#       Name:                GA Fitting Points
#       Creating user name   hitesit
#       Creation time:       Sun Apr 16 22:56:28 2023


#       Fitting Points Used by GA Software.
#

@<TRIPOS>MOLECULE
GA Fitting Points
 10174    0    0
SMALL
NO_CHARGES


@<TRIPOS>ATOM
      1 ****       178.5000  11.0000  42.0000 Du        
      2 ****       178.7500  10.7500  42.0000 Du        
      3 ****       178.7500  10.7500  42.2500 Du        
      4 ****       178.7500  11.0000  41.7500 Du        
      5 ****       178.7500  11.0000  42.0000 Du        
      6 ****       178.7500  11.0000  42.2500 Du        
      7 ****       178.7500  11.2500  41.7500 Du        
      8 ****       178.7500  11.2500  42.0000 Du        
      9 ****       178.7500  11.2500  42.2500 Du        
     10 ****       178.7500  11.2500  42.5000 Du        
     11 ****       178.7500  11.5000  41.7500 Du        
     12 ****       178.7500  11.5000  42.0000 Du        
     13 ****       178.7500  11.5000  42.2500 Du        
     14 ****       178.7500  11.5000  42.5000 Du        
     15 ****       178.7500  11.7500  41.7500 Du        
     16 ****       178.7500  11.7500  42.0000 Du        
     17 ****       178.7500  11.7500  42.2500 Du        
     18 ****       178.7500  11.7500  42.5000 Du        
     19 ****       178.7500  12.0000  41.7500 Du        
     20 ****       178.7500  12.0000  42.0000 Du        
     21 ****       178.7500  12.0000  42.2500 Du        
     22 ****       178.7500  12.0000  42.5000 Du        
     23 ****       178.7500  12.2500  42.0000 Du        
     24 ****       178.7500  12.2500  42.2500 Du        
     25 ****       178.7500  12.5000  42.0000 Du        
     26 ****       178.7500  12.5000  42.2500 Du        
     27 ****       179.0000  10.5000  42.2500 Du        
     28 ****       179.0000  10.7500  42.0000 Du        
     29 ****       179.0000  10.7500  42.2500 Du        
     30 ****       179.0000  11.0000  41.7500 Du        
     31 ****       179.0000  11.0000  42.0000 Du        
     32 ****       179.0000  11.0000  42.2500 Du        
     33 ****       179.0000  11.2500  41.5000 Du        
     34 ****       179.0000  11.2500  41.7500 Du        
     35 ****       179.0000  11.2500  42.0000 Du        
     36 ****       179.0000  11.2500  42.2500 Du        
     37 ****       179.0000  11.2500  42.5000 Du        
     38 ****       179.0000  11.5000  41.5000 Du        
     39 ****       179.0000  11.5000  41.7500 Du        
     40 ****       179.0000  11.5000  42.0000 Du        
     41 ****       179.0000  11.5000  42.2500 Du        
     42 ****       179.0000  11.5000  42.5000 Du        
     43 ****       179.0000  11.7500  41.5000 Du        
     44 ****       179.0000  11.7500  41.7500 Du        
     45 ****       179.0000  11.7500  42.0000 Du        
     46 ****       179.0000  11.7500  42.2500 Du        
     47 ****       179.0000  11.7500  42.5000 Du        
     48 ****       179.0000  12.0000  41.5000 Du        
     49 ****       179.0000  12.0000  41.7500 Du        
     50 ****       179.0000  12.0000  42.0000 Du        
     51 ****       179.0000  12.0000  42.2500 Du        
     52 ****       179.0000  12.0000  42.5000 Du        
     53 ****       179.0000  12.2500  41.7500 Du        
     54 ****       179.0000  12.2500  42.0000 Du        
     55 ****       179.0000  12.2500  42.2500 Du        
     56 ****       179.0000  12.2500  42.5000 Du        
     57 ****       179.0000  12.5000  41.7500 Du        
     58 ****       179.0000  12.5000  42.0000 Du        
     59 ****       179.0000  12.5000  42.2500 Du        
     60 ****       179.0000  12.7500  41.7500 Du        
     61 ****       179.0000  12.7500  42.0000 Du        
     62 ****       179.0000  12.7500  42.2500 Du        
     63 ****       179.2500  10.7500  42.2500 Du        
     64 ****       179.2500  11.0000  42.0000 Du        
     65 ****       179.2500  11.0000  42.2500 Du        
     66 ****       179.2500  11.2500  41.7500 Du        
     67 ****       179.2500  11.2500  42.0000 Du        
     68 ****       179.2500  11.2500  42.2500 Du        
     69 ****       179.2500  11.5000  41.7500 Du        
     70 ****       179.2500  11.5000  42.0000 Du        
     71 ****       179.2500  11.5000  42.2500 Du        
     72 ****       179.2500  11.7500  41.5000 Du        
     73 ****       179.2500  11.7500  41.7500 Du        
     74 ****       179.2500  11.7500  42.0000 Du        
     75 ****       179.2500  11.7500  42.2500 Du        
     76 ****       179.2500  12.0000  41.5000 Du        
     77 ****       179.2500  12.0000  41.7500 Du        
     78 ****       179.2500  12.0000  42.0000 Du        
     79 ****       179.2500  12.0000  42.2500 Du        
     80 ****       179.2500  12.2500  41.5000 Du        
     81 ****       179.2500  12.2500  41.7500 Du        
     82 ****       179.2500  12.2500  42.0000 Du        
     83 ****       179.2500  12.2500  42.2500 Du        
     84 ****       179.2500  12.5000  41.5000 Du        
     85 ****       179.2500  12.5000  41.7500 Du        
     86 ****       179.2500  12.5000  42.0000 Du        
     87 ****       179.2500  12.5000  42.2500 Du        
     88 ****       179.2500  12.7500  41.7500 Du        
     89 ****       179.2500  12.7500  42.0000 Du        
     90 ****       179.2500  12.7500  42.2500 Du        
     91 ****       179.2500  13.0000  41.7500 Du        
     92 ****       179.2500  13.0000  42.0000 Du        
     93 ****       179.5000  11.5000  42.0000 Du        
     94 ****       179.5000  11.7500  41.7500 Du        
     95 ****       179.5000  11.7500  42.0000 Du        
     96 ****       179.5000  11.7500  42.2500 Du        
     97 ****       179.5000  12.0000  41.5000 Du        
     98 ****       179.5000  12.0000  41.7500 Du        
     99 ****       179.5000  12.0000  42.0000 Du        
    100 ****       179.5000  12.0000  42.2500 Du        
    101 ****       179.5000  12.2500  41.5000 Du        
    102 ****       179.5000  12.2500  41.7500 Du        
    103 ****       179.5000  12.2500  42.0000 Du        
    104 ****       179.5000  12.2500  42.2500 Du        
    105 ****       179.5000  12.5000  41.5000 Du        
    106 ****       179.5000  12.5000  41.7500 Du        
    107 ****       179.5000  12.5000  42.0000 Du        
    108 ****       179.5000  12.5000  42.2500 Du        
    109 ****       179.5000  12.7500  41.5000 Du        
    110 ****       179.5000  12.7500  41.7500 Du        
    111 ****       179.5000  12.7500  42.0000 Du        
    112 ****       179.5000  12.7500  42.2500 Du        
    113 ****       179.5000  13.0000  41.5000 Du        
    114 ****       179.5000  13.0000  41.7500 Du        
    115 ****       179.5000  13.0000  42.0000 Du        
    116 ****       179.5000  13.2500  41.7500 Du        
    117 ****       179.7500  12.0000  42.0000 Du        
    118 ****       179.7500  12.2500  41.5000 Du        
    119 ****       179.7500  12.2500  41.7500 Du        
    120 ****       179.7500  12.2500  42.0000 Du        
    121 ****       179.7500  12.2500  42.2500 Du        
    122 ****       179.7500  12.5000  41.2500 Du        
    123 ****       179.7500  12.5000  41.5000 Du        
    124 ****       179.7500  12.5000  41.7500 Du        
    125 ****       179.7500  12.5000  42.0000 Du        
    126 ****       179.7500  12.5000  42.2500 Du        
    127 ****       179.7500  12.7500  41.2500 Du        
    128 ****       179.7500  12.7500  41.5000 Du        
    129 ****       179.7500  12.7500  41.7500 Du        
    130 ****       179.7500  12.7500  42.0000 Du        
    131 ****       179.7500  12.7500  42.2500 Du        
    132 ****       179.7500  13.0000  41.2500 Du        
    133 ****       179.7500  13.0000  41.5000 Du        
    134 ****       179.7500  13.0000  41.7500 Du        
    135 ****       179.7500  13.0000  42.0000 Du        
    136 ****       179.7500  13.2500  41.5000 Du        
    137 ****       179.7500  13.2500  41.7500 Du        
    138 ****       179.7500  13.2500  42.0000 Du        
    139 ****       179.7500  21.7500  43.0000 Du        
    140 ****       179.7500  22.0000  42.7500 Du        
    141 ****       179.7500  22.0000  43.0000 Du        
    142 ****       179.7500  22.0000  43.2500 Du        
    143 ****       179.7500  22.2500  42.2500 Du        
    144 ****       179.7500  22.2500  42.5000 Du        
    145 ****       179.7500  22.2500  42.7500 Du        
    146 ****       179.7500  22.2500  43.0000 Du        
    147 ****       179.7500  22.2500  43.2500 Du        
    148 ****       180.0000  12.5000  41.5000 Du        
    149 ****       180.0000  12.5000  41.7500 Du        
    150 ****       180.0000  12.5000  42.0000 Du        
    151 ****       180.0000  12.7500  41.2500 Du        
    152 ****       180.0000  12.7500  41.5000 Du        
    153 ****       180.0000  12.7500  41.7500 Du        
    154 ****       180.0000  12.7500  42.0000 Du        
    155 ****       180.0000  13.0000  41.2500 Du        
    156 ****       180.0000  13.0000  41.5000 Du        
    157 ****       180.0000  13.0000  41.7500 Du        
    158 ****       180.0000  13.0000  42.0000 Du        
    159 ****       180.0000  13.2500  41.2500 Du        
    160 ****       180.0000  13.2500  41.5000 Du        
    161 ****       180.0000  13.2500  41.7500 Du        
    162 ****       180.0000  13.2500  42.0000 Du        
    163 ****       180.0000  13.5000  41.5000 Du        
    164 ****       180.0000  13.5000  41.7500 Du        
    165 ****       180.0000  13.7500  41.7500 Du        
    166 ****       180.0000  20.7500  42.7500 Du        
    167 ****       180.0000  20.7500  43.0000 Du        
    168 ****       180.0000  21.0000  42.7500 Du        
    169 ****       180.0000  21.0000  43.0000 Du        
    170 ****       180.0000  21.2500  42.5000 Du        
    171 ****       180.0000  21.2500  42.7500 Du        
    172 ****       180.0000  21.2500  43.0000 Du        
    173 ****       180.0000  21.2500  43.2500 Du        
    174 ****       180.0000  21.5000  42.2500 Du        
    175 ****       180.0000  21.5000  42.5000 Du        
    176 ****       180.0000  21.5000  42.7500 Du        
    177 ****       180.0000  21.5000  43.0000 Du        
    178 ****       180.0000  21.5000  43.2500 Du        
    179 ****       180.0000  21.7500  42.2500 Du        
    180 ****       180.0000  21.7500  42.5000 Du        
    181 ****       180.0000  21.7500  42.7500 Du        
    182 ****       180.0000  21.7500  43.0000 Du        
    183 ****       180.0000  21.7500  43.2500 Du        
    184 ****       180.0000  22.0000  42.0000 Du        
    185 ****       180.0000  22.0000  42.2500 Du        
    186 ****       180.0000  22.0000  42.5000 Du        
    187 ****       180.0000  22.0000  42.7500 Du        
    188 ****       180.0000  22.0000  43.0000 Du        
    189 ****       180.0000  22.0000  43.2500 Du        
    190 ****       180.0000  22.0000  43.5000 Du        
    191 ****       180.0000  22.2500  42.0000 Du        
    192 ****       180.0000  22.2500  42.2500 Du        
    193 ****       180.0000  22.2500  42.5000 Du        
    194 ****       180.0000  22.2500  42.7500 Du        
    195 ****       180.0000  22.2500  43.0000 Du        
    196 ****       180.0000  22.2500  43.2500 Du        
    197 ****       180.0000  22.2500  43.5000 Du        
    198 ****       180.0000  22.2500  43.7500 Du        
    199 ****       180.0000  22.5000  43.0000 Du        
    200 ****       180.0000  22.5000  43.2500 Du        
    201 ****       180.2500  12.7500  41.5000 Du        
    202 ****       180.2500  12.7500  41.7500 Du        
    203 ****       180.2500  13.0000  41.0000 Du        
    204 ****       180.2500  13.0000  41.2500 Du        
    205 ****       180.2500  13.0000  41.5000 Du        
    206 ****       180.2500  13.0000  41.7500 Du        
    207 ****       180.2500  13.0000  42.0000 Du        
    208 ****       180.2500  13.2500  41.0000 Du        
    209 ****       180.2500  13.2500  41.2500 Du        
    210 ****       180.2500  13.2500  41.5000 Du        
    211 ****       180.2500  13.2500  41.7500 Du        
    212 ****       180.2500  13.2500  42.0000 Du        
    213 ****       180.2500  13.5000  41.2500 Du        
    214 ****       180.2500  13.5000  41.5000 Du        
    215 ****       180.2500  13.5000  41.7500 Du        
    216 ****       180.2500  13.5000  42.0000 Du        
    217 ****       180.2500  13.7500  41.5000 Du        
    218 ****       180.2500  13.7500  41.7500 Du        
    219 ****       180.2500  14.0000  41.5000 Du        
    220 ****       180.2500  14.0000  41.7500 Du        
    221 ****       180.2500  20.2500  42.7500 Du        
    222 ****       180.2500  20.5000  42.5000 Du        
    223 ****       180.2500  20.5000  42.7500 Du        
    224 ****       180.2500  20.5000  43.0000 Du        
    225 ****       180.2500  20.7500  42.5000 Du        
    226 ****       180.2500  20.7500  42.7500 Du        
    227 ****       180.2500  20.7500  43.0000 Du        
    228 ****       180.2500  20.7500  43.2500 Du        
    229 ****       180.2500  21.0000  42.2500 Du        
    230 ****       180.2500  21.0000  42.5000 Du        
    231 ****       180.2500  21.0000  42.7500 Du        
    232 ****       180.2500  21.0000  43.0000 Du        
    233 ****       180.2500  21.0000  43.2500 Du        
    234 ****       180.2500  21.2500  42.2500 Du        
    235 ****       180.2500  21.2500  42.5000 Du        
    236 ****       180.2500  21.2500  42.7500 Du        
    237 ****       180.2500  21.2500  43.0000 Du        
    238 ****       180.2500  21.2500  43.2500 Du        
    239 ****       180.2500  21.5000  42.0000 Du        
    240 ****       180.2500  21.5000  42.2500 Du        
    241 ****       180.2500  21.5000  42.5000 Du        
    242 ****       180.2500  21.5000  42.7500 Du        
    243 ****       180.2500  21.5000  43.0000 Du        
    244 ****       180.2500  21.5000  43.2500 Du        
    245 ****       180.2500  21.5000  43.5000 Du        
    246 ****       180.2500  21.7500  42.0000 Du        
    247 ****       180.2500  21.7500  42.2500 Du        
    248 ****       180.2500  21.7500  42.5000 Du        
    249 ****       180.2500  21.7500  42.7500 Du        
    250 ****       180.2500  21.7500  43.0000 Du        
    251 ****       180.2500  21.7500  43.2500 Du        
    252 ****       180.2500  21.7500  43.5000 Du        
    253 ****       180.2500  22.0000  42.0000 Du        
    254 ****       180.2500  22.0000  42.2500 Du        
    255 ****       180.2500  22.0000  42.5000 Du        
    256 ****       180.2500  22.0000  42.7500 Du        
    257 ****       180.2500  22.0000  43.0000 Du        
    258 ****       180.2500  22.0000  43.2500 Du        
    259 ****       180.2500  22.0000  43.5000 Du        
    260 ****       180.2500  22.0000  43.7500 Du        
    261 ****       180.2500  22.2500  42.0000 Du        
    262 ****       180.2500  22.2500  42.2500 Du        
    263 ****       180.2500  22.2500  42.5000 Du        
    264 ****       180.2500  22.2500  42.7500 Du        
    265 ****       180.2500  22.2500  43.0000 Du        
    266 ****       180.2500  22.2500  43.2500 Du        
    267 ****       180.2500  22.2500  43.5000 Du        
    268 ****       180.2500  22.2500  43.7500 Du        
    269 ****       180.2500  22.5000  43.0000 Du        
    270 ****       180.2500  22.5000  43.2500 Du        
    271 ****       180.5000  13.0000  41.0000 Du        
    272 ****       180.5000  13.0000  41.2500 Du        
    273 ****       180.5000  13.0000  41.5000 Du        
    274 ****       180.5000  13.2500  40.7500 Du        
    275 ****       180.5000  13.2500  41.0000 Du        
    276 ****       180.5000  13.2500  41.2500 Du        
    277 ****       180.5000  13.2500  41.5000 Du        
    278 ****       180.5000  13.2500  41.7500 Du        
    279 ****       180.5000  13.5000  41.0000 Du        
    280 ****       180.5000  13.5000  41.2500 Du        
    281 ****       180.5000  13.5000  41.5000 Du        
    282 ****       180.5000  13.5000  41.7500 Du        
    283 ****       180.5000  13.5000  42.0000 Du        
    284 ****       180.5000  13.7500  41.2500 Du        
    285 ****       180.5000  13.7500  41.5000 Du        
    286 ****       180.5000  13.7500  41.7500 Du        
    287 ****       180.5000  13.7500  42.0000 Du        
    288 ****       180.5000  14.0000  41.2500 Du        
    289 ****       180.5000  14.0000  41.5000 Du        
    290 ****       180.5000  14.0000  41.7500 Du        
    291 ****       180.5000  14.2500  41.5000 Du        
    292 ****       180.5000  14.2500  41.7500 Du        
    293 ****       180.5000  14.5000  41.5000 Du        
    294 ****       180.5000  14.5000  41.7500 Du        
    295 ****       180.5000  20.0000  42.5000 Du        
    296 ****       180.5000  20.2500  42.5000 Du        
    297 ****       180.5000  20.2500  42.7500 Du        
    298 ****       180.5000  20.2500  43.0000 Du        
    299 ****       180.5000  20.5000  42.2500 Du        
    300 ****       180.5000  20.5000  42.5000 Du        
    301 ****       180.5000  20.5000  42.7500 Du        
    302 ****       180.5000  20.5000  43.0000 Du        
    303 ****       180.5000  20.7500  42.2500 Du        
    304 ****       180.5000  20.7500  42.5000 Du        
    305 ****       180.5000  20.7500  42.7500 Du        
    306 ****       180.5000  20.7500  43.0000 Du        
    307 ****       180.5000  20.7500  43.2500 Du        
    308 ****       180.5000  21.0000  42.2500 Du        
    309 ****       180.5000  21.0000  42.5000 Du        
    310 ****       180.5000  21.0000  42.7500 Du        
    311 ****       180.5000  21.0000  43.0000 Du        
    312 ****       180.5000  21.0000  43.2500 Du        
    313 ****       180.5000  21.2500  42.0000 Du        
    314 ****       180.5000  21.2500  42.2500 Du        
    315 ****       180.5000  21.2500  42.5000 Du        
    316 ****       180.5000  21.2500  42.7500 Du        
    317 ****       180.5000  21.2500  43.0000 Du        
    318 ****       180.5000  21.2500  43.2500 Du        
    319 ****       180.5000  21.2500  43.5000 Du        
    320 ****       180.5000  21.5000  42.0000 Du        
    321 ****       180.5000  21.5000  42.2500 Du        
    322 ****       180.5000  21.5000  42.5000 Du        
    323 ****       180.5000  21.5000  42.7500 Du        
    324 ****       180.5000  21.5000  43.0000 Du        
    325 ****       180.5000  21.5000  43.2500 Du        
    326 ****       180.5000  21.5000  43.5000 Du        
    327 ****       180.5000  21.7500  42.0000 Du        
    328 ****       180.5000  21.7500  42.2500 Du        
    329 ****       180.5000  21.7500  42.5000 Du        
    330 ****       180.5000  21.7500  42.7500 Du        
    331 ****       180.5000  21.7500  43.0000 Du        
    332 ****       180.5000  21.7500  43.2500 Du        
    333 ****       180.5000  21.7500  43.5000 Du        
    334 ****       180.5000  22.0000  42.0000 Du        
    335 ****       180.5000  22.0000  42.2500 Du        
    336 ****       180.5000  22.0000  42.5000 Du        
    337 ****       180.5000  22.0000  42.7500 Du        
    338 ****       180.5000  22.0000  43.0000 Du        
    339 ****       180.5000  22.0000  43.2500 Du        
    340 ****       180.5000  22.0000  43.5000 Du        
    341 ****       180.5000  22.0000  43.7500 Du        
    342 ****       180.5000  22.2500  42.7500 Du        
    343 ****       180.5000  22.2500  43.0000 Du        
    344 ****       180.5000  22.2500  43.2500 Du        
    345 ****       180.7500  13.2500  40.7500 Du        
    346 ****       180.7500  13.2500  41.0000 Du        
    347 ****       180.7500  13.2500  41.2500 Du        
    348 ****       180.7500  13.2500  41.5000 Du        
    349 ****       180.7500  13.5000  40.7500 Du        
    350 ****       180.7500  13.5000  41.0000 Du        
    351 ****       180.7500  13.5000  41.2500 Du        
    352 ****       180.7500  13.5000  41.5000 Du        
    353 ****       180.7500  13.5000  41.7500 Du        
    354 ****       180.7500  13.7500  41.0000 Du        
    355 ****       180.7500  13.7500  41.2500 Du        
    356 ****       180.7500  13.7500  41.5000 Du        
    357 ****       180.7500  13.7500  41.7500 Du        
    358 ****       180.7500  13.7500  42.0000 Du        
    359 ****       180.7500  14.0000  41.0000 Du        
    360 ****       180.7500  14.0000  41.2500 Du        
    361 ****       180.7500  14.0000  41.5000 Du        
    362 ****       180.7500  14.0000  41.7500 Du        
    363 ****       180.7500  14.0000  42.0000 Du        
    364 ****       180.7500  14.2500  41.2500 Du        
    365 ****       180.7500  14.2500  41.5000 Du        
    366 ****       180.7500  14.2500  41.7500 Du        
    367 ****       180.7500  14.2500  42.0000 Du        
    368 ****       180.7500  14.5000  41.2500 Du        
    369 ****       180.7500  14.5000  41.5000 Du        
    370 ****       180.7500  14.5000  41.7500 Du        
    371 ****       180.7500  14.5000  42.0000 Du        
    372 ****       180.7500  14.7500  41.2500 Du        
    373 ****       180.7500  14.7500  41.5000 Du        
    374 ****       180.7500  14.7500  41.7500 Du        
    375 ****       180.7500  14.7500  42.0000 Du        
    376 ****       180.7500  15.0000  41.2500 Du        
    377 ****       180.7500  15.0000  41.5000 Du        
    378 ****       180.7500  15.0000  41.7500 Du        
    379 ****       180.7500  15.2500  41.5000 Du        
    380 ****       180.7500  15.2500  41.7500 Du        
    381 ****       180.7500  15.5000  41.5000 Du        
    382 ****       180.7500  15.7500  41.2500 Du        
    383 ****       180.7500  16.0000  41.2500 Du        
    384 ****       180.7500  16.2500  41.0000 Du        
    385 ****       180.7500  16.2500  41.2500 Du        
    386 ****       180.7500  16.5000  40.7500 Du        
    387 ****       180.7500  16.5000  41.0000 Du        
    388 ****       180.7500  16.5000  41.2500 Du        
    389 ****       180.7500  16.7500  40.7500 Du        
    390 ****       180.7500  16.7500  41.0000 Du        
    391 ****       180.7500  16.7500  41.2500 Du        
    392 ****       180.7500  17.0000  40.7500 Du        
    393 ****       180.7500  17.0000  41.0000 Du        
    394 ****       180.7500  17.0000  41.2500 Du        
    395 ****       180.7500  17.2500  40.7500 Du        
    396 ****       180.7500  17.2500  41.0000 Du        
    397 ****       180.7500  17.2500  41.2500 Du        
    398 ****       180.7500  19.7500  42.2500 Du        
    399 ****       180.7500  19.7500  42.5000 Du        
    400 ****       180.7500  20.0000  42.2500 Du        
    401 ****       180.7500  20.0000  42.5000 Du        
    402 ****       180.7500  20.0000  42.7500 Du        
    403 ****       180.7500  20.2500  42.2500 Du        
    404 ****       180.7500  20.2500  42.5000 Du        
    405 ****       180.7500  20.2500  42.7500 Du        
    406 ****       180.7500  20.2500  43.0000 Du        
    407 ****       180.7500  20.5000  42.0000 Du        
    408 ****       180.7500  20.5000  42.2500 Du        
    409 ****       180.7500  20.5000  42.5000 Du        
    410 ****       180.7500  20.5000  42.7500 Du        
    411 ****       180.7500  20.5000  43.0000 Du        
    412 ****       180.7500  20.5000  43.2500 Du        
    413 ****       180.7500  20.7500  42.0000 Du        
    414 ****       180.7500  20.7500  42.2500 Du        
    415 ****       180.7500  20.7500  42.5000 Du        
    416 ****       180.7500  20.7500  42.7500 Du        
    417 ****       180.7500  20.7500  43.0000 Du        
    418 ****       180.7500  20.7500  43.2500 Du        
    419 ****       180.7500  21.0000  42.0000 Du        
    420 ****       180.7500  21.0000  42.2500 Du        
    421 ****       180.7500  21.0000  42.5000 Du        
    422 ****       180.7500  21.0000  42.7500 Du        
    423 ****       180.7500  21.0000  43.0000 Du        
    424 ****       180.7500  21.0000  43.2500 Du        
    425 ****       180.7500  21.0000  43.5000 Du        
    426 ****       180.7500  21.2500  42.0000 Du        
    427 ****       180.7500  21.2500  42.2500 Du        
    428 ****       180.7500  21.2500  42.5000 Du        
    429 ****       180.7500  21.2500  42.7500 Du        
    430 ****       180.7500  21.2500  43.0000 Du        
    431 ****       180.7500  21.2500  43.2500 Du        
    432 ****       180.7500  21.2500  43.5000 Du        
    433 ****       180.7500  21.5000  42.0000 Du        
    434 ****       180.7500  21.5000  42.2500 Du        
    435 ****       180.7500  21.5000  42.5000 Du        
    436 ****       180.7500  21.5000  42.7500 Du        
    437 ****       180.7500  21.5000  43.0000 Du        
    438 ****       180.7500  21.5000  43.2500 Du        
    439 ****       180.7500  21.5000  43.5000 Du        
    440 ****       180.7500  21.7500  42.0000 Du        
    441 ****       180.7500  21.7500  42.2500 Du        
    442 ****       180.7500  21.7500  42.5000 Du        
    443 ****       180.7500  21.7500  42.7500 Du        
    444 ****       180.7500  21.7500  43.0000 Du        
    445 ****       180.7500  21.7500  43.2500 Du        
    446 ****       180.7500  21.7500  43.5000 Du        
    447 ****       180.7500  21.7500  43.7500 Du        
    448 ****       180.7500  22.0000  42.7500 Du        
    449 ****       180.7500  22.0000  43.0000 Du        
    450 ****       180.7500  22.0000  43.2500 Du        
    451 ****       180.7500  22.0000  43.5000 Du        
    452 ****       180.7500  22.0000  43.7500 Du        
    453 ****       180.7500  22.0000  44.0000 Du        
    454 ****       180.7500  22.2500  43.0000 Du        
    455 ****       180.7500  22.2500  43.2500 Du        
    456 ****       181.0000  13.2500  40.7500 Du        
    457 ****       181.0000  13.5000  40.7500 Du        
    458 ****       181.0000  13.5000  41.0000 Du        
    459 ****       181.0000  13.5000  41.2500 Du        
    460 ****       181.0000  13.5000  41.5000 Du        
    461 ****       181.0000  13.7500  40.7500 Du        
    462 ****       181.0000  13.7500  41.0000 Du        
    463 ****       181.0000  13.7500  41.2500 Du        
    464 ****       181.0000  13.7500  41.5000 Du        
    465 ****       181.0000  13.7500  41.7500 Du        
    466 ****       181.0000  14.0000  40.7500 Du        
    467 ****       181.0000  14.0000  41.0000 Du        
    468 ****       181.0000  14.0000  41.2500 Du        
    469 ****       181.0000  14.0000  41.5000 Du        
    470 ****       181.0000  14.0000  41.7500 Du        
    471 ****       181.0000  14.0000  42.0000 Du        
    472 ****       181.0000  14.2500  41.0000 Du        
    473 ****       181.0000  14.2500  41.2500 Du        
    474 ****       181.0000  14.2500  41.5000 Du        
    475 ****       181.0000  14.2500  41.7500 Du        
    476 ****       181.0000  14.2500  42.0000 Du        
    477 ****       181.0000  14.5000  41.0000 Du        
    478 ****       181.0000  14.5000  41.2500 Du        
    479 ****       181.0000  14.5000  41.5000 Du        
    480 ****       181.0000  14.5000  41.7500 Du        
    481 ****       181.0000  14.5000  42.0000 Du        
    482 ****       181.0000  14.7500  41.0000 Du        
    483 ****       181.0000  14.7500  41.2500 Du        
    484 ****       181.0000  14.7500  41.5000 Du        
    485 ****       181.0000  14.7500  41.7500 Du        
    486 ****       181.0000  14.7500  42.0000 Du        
    487 ****       181.0000  15.0000  41.0000 Du        
    488 ****       181.0000  15.0000  41.2500 Du        
    489 ****       181.0000  15.0000  41.5000 Du        
    490 ****       181.0000  15.0000  41.7500 Du        
    491 ****       181.0000  15.0000  42.0000 Du        
    492 ****       181.0000  15.2500  41.0000 Du        
    493 ****       181.0000  15.2500  41.2500 Du        
    494 ****       181.0000  15.2500  41.5000 Du        
    495 ****       181.0000  15.2500  41.7500 Du        
    496 ****       181.0000  15.2500  42.0000 Du        
    497 ****       181.0000  15.5000  41.0000 Du        
    498 ****       181.0000  15.5000  41.2500 Du        
    499 ****       181.0000  15.5000  41.5000 Du        
    500 ****       181.0000  15.5000  41.7500 Du        
    501 ****       181.0000  15.7500  41.0000 Du        
    502 ****       181.0000  15.7500  41.2500 Du        
    503 ****       181.0000  15.7500  41.5000 Du        
    504 ****       181.0000  15.7500  41.7500 Du        
    505 ****       181.0000  16.0000  41.0000 Du        
    506 ****       181.0000  16.0000  41.2500 Du        
    507 ****       181.0000  16.0000  41.5000 Du        
    508 ****       181.0000  16.2500  40.7500 Du        
    509 ****       181.0000  16.2500  41.0000 Du        
    510 ****       181.0000  16.2500  41.2500 Du        
    511 ****       181.0000  16.2500  41.5000 Du        
    512 ****       181.0000  16.5000  40.5000 Du        
    513 ****       181.0000  16.5000  40.7500 Du        
    514 ****       181.0000  16.5000  41.0000 Du        
    515 ****       181.0000  16.5000  41.2500 Du        
    516 ****       181.0000  16.7500  40.2500 Du        
    517 ****       181.0000  16.7500  40.5000 Du        
    518 ****       181.0000  16.7500  40.7500 Du        
    519 ****       181.0000  16.7500  41.0000 Du        
    520 ****       181.0000  16.7500  41.2500 Du        
    521 ****       181.0000  17.0000  40.2500 Du        
    522 ****       181.0000  17.0000  40.5000 Du        
    523 ****       181.0000  17.0000  40.7500 Du        
    524 ****       181.0000  17.0000  41.0000 Du        
    525 ****       181.0000  17.0000  41.2500 Du        
    526 ****       181.0000  17.2500  40.2500 Du        
    527 ****       181.0000  17.2500  40.5000 Du        
    528 ****       181.0000  17.2500  40.7500 Du        
    529 ****       181.0000  17.2500  41.0000 Du        
    530 ****       181.0000  17.2500  41.2500 Du        
    531 ****       181.0000  17.5000  40.7500 Du        
    532 ****       181.0000  17.5000  41.0000 Du        
    533 ****       181.0000  17.5000  41.2500 Du        
    534 ****       181.0000  17.7500  41.0000 Du        
    535 ****       181.0000  17.7500  41.2500 Du        
    536 ****       181.0000  19.7500  42.0000 Du        
    537 ****       181.0000  19.7500  42.2500 Du        
    538 ****       181.0000  19.7500  42.5000 Du        
    539 ****       181.0000  20.0000  42.0000 Du        
    540 ****       181.0000  20.0000  42.2500 Du        
    541 ****       181.0000  20.0000  42.5000 Du        
    542 ****       181.0000  20.0000  42.7500 Du        
    543 ****       181.0000  20.2500  42.0000 Du        
    544 ****       181.0000  20.2500  42.2500 Du        
    545 ****       181.0000  20.2500  42.5000 Du        
    546 ****       181.0000  20.2500  42.7500 Du        
    547 ****       181.0000  20.2500  43.0000 Du        
    548 ****       181.0000  20.5000  42.0000 Du        
    549 ****       181.0000  20.5000  42.2500 Du        
    550 ****       181.0000  20.5000  42.5000 Du        
    551 ****       181.0000  20.5000  42.7500 Du        
    552 ****       181.0000  20.5000  43.0000 Du        
    553 ****       181.0000  20.5000  43.2500 Du        
    554 ****       181.0000  20.7500  42.0000 Du        
    555 ****       181.0000  20.7500  42.2500 Du        
    556 ****       181.0000  20.7500  42.5000 Du        
    557 ****       181.0000  20.7500  42.7500 Du        
    558 ****       181.0000  20.7500  43.0000 Du        
    559 ****       181.0000  20.7500  43.2500 Du        
    560 ****       181.0000  21.0000  42.0000 Du        
    561 ****       181.0000  21.0000  42.2500 Du        
    562 ****       181.0000  21.0000  42.5000 Du        
    563 ****       181.0000  21.0000  42.7500 Du        
    564 ****       181.0000  21.0000  43.0000 Du        
    565 ****       181.0000  21.0000  43.2500 Du        
    566 ****       181.0000  21.0000  43.5000 Du        
    567 ****       181.0000  21.2500  42.0000 Du        
    568 ****       181.0000  21.2500  42.2500 Du        
    569 ****       181.0000  21.2500  42.5000 Du        
    570 ****       181.0000  21.2500  42.7500 Du        
    571 ****       181.0000  21.2500  43.0000 Du        
    572 ****       181.0000  21.2500  43.2500 Du        
    573 ****       181.0000  21.2500  43.5000 Du        
    574 ****       181.0000  21.5000  42.0000 Du        
    575 ****       181.0000  21.5000  42.2500 Du        
    576 ****       181.0000  21.5000  42.5000 Du        
    577 ****       181.0000  21.5000  42.7500 Du        
    578 ****       181.0000  21.5000  43.0000 Du        
    579 ****       181.0000  21.5000  43.2500 Du        
    580 ****       181.0000  21.5000  43.5000 Du        
    581 ****       181.0000  21.7500  42.7500 Du        
    582 ****       181.0000  21.7500  43.0000 Du        
    583 ****       181.0000  21.7500  43.2500 Du        
    584 ****       181.0000  21.7500  43.5000 Du        
    585 ****       181.0000  21.7500  43.7500 Du        
    586 ****       181.0000  22.0000  43.0000 Du        
    587 ****       181.0000  22.0000  43.2500 Du        
    588 ****       181.0000  22.0000  43.5000 Du        
    589 ****       181.0000  22.0000  43.7500 Du        
    590 ****       181.2500  13.5000  40.7500 Du        
    591 ****       181.2500  13.5000  41.0000 Du        
    592 ****       181.2500  13.7500  40.7500 Du        
    593 ****       181.2500  13.7500  41.0000 Du        
    594 ****       181.2500  13.7500  41.2500 Du        
    595 ****       181.2500  13.7500  41.5000 Du        
    596 ****       181.2500  14.0000  40.7500 Du        
    597 ****       181.2500  14.0000  41.0000 Du        
    598 ****       181.2500  14.0000  41.2500 Du        
    599 ****       181.2500  14.0000  41.5000 Du        
    600 ****       181.2500  14.0000  41.7500 Du        
    601 ****       181.2500  14.0000  42.0000 Du        
    602 ****       181.2500  14.2500  40.7500 Du        
    603 ****       181.2500  14.2500  41.0000 Du        
    604 ****       181.2500  14.2500  41.2500 Du        
    605 ****       181.2500  14.2500  41.5000 Du        
    606 ****       181.2500  14.2500  41.7500 Du        
    607 ****       181.2500  14.2500  42.0000 Du        
    608 ****       181.2500  14.5000  41.0000 Du        
    609 ****       181.2500  14.5000  41.2500 Du        
    610 ****       181.2500  14.5000  41.5000 Du        
    611 ****       181.2500  14.5000  41.7500 Du        
    612 ****       181.2500  14.5000  42.0000 Du        
    613 ****       181.2500  14.7500  41.0000 Du        
    614 ****       181.2500  14.7500  41.2500 Du        
    615 ****       181.2500  14.7500  41.5000 Du        
    616 ****       181.2500  14.7500  41.7500 Du        
    617 ****       181.2500  14.7500  42.0000 Du        
    618 ****       181.2500  14.7500  42.2500 Du        
    619 ****       181.2500  15.0000  41.0000 Du        
    620 ****       181.2500  15.0000  41.2500 Du        
    621 ****       181.2500  15.0000  41.5000 Du        
    622 ****       181.2500  15.0000  41.7500 Du        
    623 ****       181.2500  15.0000  42.0000 Du        
    624 ****       181.2500  15.0000  42.2500 Du        
    625 ****       181.2500  15.2500  41.0000 Du        
    626 ****       181.2500  15.2500  41.2500 Du        
    627 ****       181.2500  15.2500  41.5000 Du        
    628 ****       181.2500  15.2500  41.7500 Du        
    629 ****       181.2500  15.2500  42.0000 Du        
    630 ****       181.2500  15.5000  41.0000 Du        
    631 ****       181.2500  15.5000  41.2500 Du        
    632 ****       181.2500  15.5000  41.5000 Du        
    633 ****       181.2500  15.5000  41.7500 Du        
    634 ****       181.2500  15.5000  42.0000 Du        
    635 ****       181.2500  15.7500  40.7500 Du        
    636 ****       181.2500  15.7500  41.0000 Du        
    637 ****       181.2500  15.7500  41.2500 Du        
    638 ****       181.2500  15.7500  41.5000 Du        
    639 ****       181.2500  15.7500  41.7500 Du        
    640 ****       181.2500  16.0000  40.7500 Du        
    641 ****       181.2500  16.0000  41.0000 Du        
    642 ****       181.2500  16.0000  41.2500 Du        
    643 ****       181.2500  16.0000  41.5000 Du        
    644 ****       181.2500  16.0000  41.7500 Du        
    645 ****       181.2500  16.2500  40.5000 Du        
    646 ****       181.2500  16.2500  40.7500 Du        
    647 ****       181.2500  16.2500  41.0000 Du        
    648 ****       181.2500  16.2500  41.2500 Du        
    649 ****       181.2500  16.2500  41.5000 Du        
    650 ****       181.2500  16.5000  40.5000 Du        
    651 ****       181.2500  16.5000  40.7500 Du        
    652 ****       181.2500  16.5000  41.0000 Du        
    653 ****       181.2500  16.5000  41.2500 Du        
    654 ****       181.2500  16.5000  41.5000 Du        
    655 ****       181.2500  16.7500  40.2500 Du        
    656 ****       181.2500  16.7500  40.5000 Du        
    657 ****       181.2500  16.7500  40.7500 Du        
    658 ****       181.2500  16.7500  41.0000 Du        
    659 ****       181.2500  16.7500  41.2500 Du        
    660 ****       181.2500  16.7500  41.5000 Du        
    661 ****       181.2500  17.0000  40.2500 Du        
    662 ****       181.2500  17.0000  40.5000 Du        
    663 ****       181.2500  17.0000  40.7500 Du        
    664 ****       181.2500  17.0000  41.0000 Du        
    665 ****       181.2500  17.0000  41.2500 Du        
    666 ****       181.2500  17.2500  40.2500 Du        
    667 ****       181.2500  17.2500  40.5000 Du        
    668 ****       181.2500  17.2500  40.7500 Du        
    669 ****       181.2500  17.2500  41.0000 Du        
    670 ****       181.2500  17.2500  41.2500 Du        
    671 ****       181.2500  17.5000  40.2500 Du        
    672 ****       181.2500  17.5000  40.5000 Du        
    673 ****       181.2500  17.5000  40.7500 Du        
    674 ****       181.2500  17.5000  41.0000 Du        
    675 ****       181.2500  17.5000  41.2500 Du        
    676 ****       181.2500  17.7500  40.7500 Du        
    677 ****       181.2500  17.7500  41.0000 Du        
    678 ****       181.2500  17.7500  41.2500 Du        
    679 ****       181.2500  18.0000  41.0000 Du        
    680 ****       181.2500  18.0000  41.2500 Du        
    681 ****       181.2500  19.0000  41.7500 Du        
    682 ****       181.2500  19.2500  41.7500 Du        
    683 ****       181.2500  19.2500  42.0000 Du        
    684 ****       181.2500  19.5000  42.0000 Du        
    685 ****       181.2500  19.5000  42.2500 Du        
    686 ****       181.2500  19.7500  42.0000 Du        
    687 ****       181.2500  19.7500  42.2500 Du        
    688 ****       181.2500  19.7500  42.5000 Du        
    689 ****       181.2500  20.0000  41.7500 Du        
    690 ****       181.2500  20.0000  42.0000 Du        
    691 ****       181.2500  20.0000  42.2500 Du        
    692 ****       181.2500  20.0000  42.5000 Du        
    693 ****       181.2500  20.0000  42.7500 Du        
    694 ****       181.2500  20.2500  41.7500 Du        
    695 ****       181.2500  20.2500  42.0000 Du        
    696 ****       181.2500  20.2500  42.2500 Du        
    697 ****       181.2500  20.2500  42.5000 Du        
    698 ****       181.2500  20.2500  42.7500 Du        
    699 ****       181.2500  20.2500  43.0000 Du        
    700 ****       181.2500  20.5000  41.7500 Du        
    701 ****       181.2500  20.5000  42.0000 Du        
    702 ****       181.2500  20.5000  42.2500 Du        
    703 ****       181.2500  20.5000  42.5000 Du        
    704 ****       181.2500  20.5000  42.7500 Du        
    705 ****       181.2500  20.5000  43.0000 Du        
    706 ****       181.2500  20.7500  42.0000 Du        
    707 ****       181.2500  20.7500  42.2500 Du        
    708 ****       181.2500  20.7500  42.5000 Du        
    709 ****       181.2500  20.7500  42.7500 Du        
    710 ****       181.2500  20.7500  43.0000 Du        
    711 ****       181.2500  20.7500  43.2500 Du        
    712 ****       181.2500  21.0000  42.0000 Du        
    713 ****       181.2500  21.0000  42.2500 Du        
    714 ****       181.2500  21.0000  42.5000 Du        
    715 ****       181.2500  21.0000  42.7500 Du        
    716 ****       181.2500  21.0000  43.0000 Du        
    717 ****       181.2500  21.0000  43.2500 Du        
    718 ****       181.2500  21.2500  42.2500 Du        
    719 ****       181.2500  21.2500  42.5000 Du        
    720 ****       181.2500  21.2500  42.7500 Du        
    721 ****       181.2500  21.2500  43.0000 Du        
    722 ****       181.2500  21.2500  43.2500 Du        
    723 ****       181.2500  21.7500  43.0000 Du        
    724 ****       181.2500  22.2500  46.5000 Du        
    725 ****       181.2500  22.2500  46.7500 Du        
    726 ****       181.2500  22.7500  46.2500 Du        
    727 ****       181.2500  22.7500  46.7500 Du        
    728 ****       181.5000  13.7500  41.0000 Du        
    729 ****       181.5000  14.0000  41.0000 Du        
    730 ****       181.5000  14.0000  41.2500 Du        
    731 ****       181.5000  14.0000  41.5000 Du        
    732 ****       181.5000  14.2500  41.0000 Du        
    733 ****       181.5000  14.2500  41.2500 Du        
    734 ****       181.5000  14.2500  41.5000 Du        
    735 ****       181.5000  14.2500  41.7500 Du        
    736 ****       181.5000  14.2500  42.0000 Du        
    737 ****       181.5000  14.5000  41.0000 Du        
    738 ****       181.5000  14.5000  41.2500 Du        
    739 ****       181.5000  14.5000  41.5000 Du        
    740 ****       181.5000  14.5000  41.7500 Du        
    741 ****       181.5000  14.5000  42.0000 Du        
    742 ****       181.5000  14.5000  42.2500 Du        
    743 ****       181.5000  14.7500  41.0000 Du        
    744 ****       181.5000  14.7500  41.2500 Du        
    745 ****       181.5000  14.7500  41.5000 Du        
    746 ****       181.5000  14.7500  41.7500 Du        
    747 ****       181.5000  14.7500  42.0000 Du        
    748 ****       181.5000  14.7500  42.2500 Du        
    749 ****       181.5000  15.0000  41.0000 Du        
    750 ****       181.5000  15.0000  41.2500 Du        
    751 ****       181.5000  15.0000  41.5000 Du        
    752 ****       181.5000  15.0000  41.7500 Du        
    753 ****       181.5000  15.0000  42.0000 Du        
    754 ****       181.5000  15.0000  42.2500 Du        
    755 ****       181.5000  15.2500  41.0000 Du        
    756 ****       181.5000  15.2500  41.2500 Du        
    757 ****       181.5000  15.2500  41.5000 Du        
    758 ****       181.5000  15.2500  41.7500 Du        
    759 ****       181.5000  15.2500  42.0000 Du        
    760 ****       181.5000  15.2500  42.2500 Du        
    761 ****       181.5000  15.5000  40.7500 Du        
    762 ****       181.5000  15.5000  41.0000 Du        
    763 ****       181.5000  15.5000  41.2500 Du        
    764 ****       181.5000  15.5000  41.5000 Du        
    765 ****       181.5000  15.5000  41.7500 Du        
    766 ****       181.5000  15.5000  42.0000 Du        
    767 ****       181.5000  15.7500  40.7500 Du        
    768 ****       181.5000  15.7500  41.0000 Du        
    769 ****       181.5000  15.7500  41.2500 Du        
    770 ****       181.5000  15.7500  41.5000 Du        
    771 ****       181.5000  15.7500  41.7500 Du        
    772 ****       181.5000  15.7500  42.0000 Du        
    773 ****       181.5000  16.0000  40.7500 Du        
    774 ****       181.5000  16.0000  41.0000 Du        
    775 ****       181.5000  16.0000  41.2500 Du        
    776 ****       181.5000  16.0000  41.5000 Du        
    777 ****       181.5000  16.0000  41.7500 Du        
    778 ****       181.5000  16.2500  40.5000 Du        
    779 ****       181.5000  16.2500  40.7500 Du        
    780 ****       181.5000  16.2500  41.0000 Du        
    781 ****       181.5000  16.2500  41.2500 Du        
    782 ****       181.5000  16.2500  41.5000 Du        
    783 ****       181.5000  16.5000  40.5000 Du        
    784 ****       181.5000  16.5000  40.7500 Du        
    785 ****       181.5000  16.5000  41.0000 Du        
    786 ****       181.5000  16.5000  41.2500 Du        
    787 ****       181.5000  16.5000  41.5000 Du        
    788 ****       181.5000  16.7500  40.5000 Du        
    789 ****       181.5000  16.7500  40.7500 Du        
    790 ****       181.5000  16.7500  41.0000 Du        
    791 ****       181.5000  16.7500  41.2500 Du        
    792 ****       181.5000  16.7500  41.5000 Du        
    793 ****       181.5000  17.0000  40.2500 Du        
    794 ****       181.5000  17.0000  40.5000 Du        
    795 ****       181.5000  17.0000  40.7500 Du        
    796 ****       181.5000  17.0000  41.0000 Du        
    797 ****       181.5000  17.0000  41.2500 Du        
    798 ****       181.5000  17.0000  41.5000 Du        
    799 ****       181.5000  17.2500  40.2500 Du        
    800 ****       181.5000  17.2500  40.5000 Du        
    801 ****       181.5000  17.2500  40.7500 Du        
    802 ****       181.5000  17.2500  41.0000 Du        
    803 ****       181.5000  17.2500  41.2500 Du        
    804 ****       181.5000  17.2500  41.5000 Du        
    805 ****       181.5000  17.5000  40.5000 Du        
    806 ****       181.5000  17.5000  40.7500 Du        
    807 ****       181.5000  17.5000  41.0000 Du        
    808 ****       181.5000  17.5000  41.2500 Du        
    809 ****       181.5000  17.7500  40.5000 Du        
    810 ****       181.5000  17.7500  40.7500 Du        
    811 ****       181.5000  17.7500  41.0000 Du        
    812 ****       181.5000  17.7500  41.2500 Du        
    813 ****       181.5000  18.0000  40.7500 Du        
    814 ****       181.5000  18.0000  41.0000 Du        
    815 ****       181.5000  18.0000  41.2500 Du        
    816 ****       181.5000  18.0000  41.5000 Du        
    817 ****       181.5000  18.2500  41.0000 Du        
    818 ****       181.5000  18.2500  41.2500 Du        
    819 ****       181.5000  18.2500  41.5000 Du        
    820 ****       181.5000  18.5000  41.5000 Du        
    821 ****       181.5000  19.0000  41.7500 Du        
    822 ****       181.5000  19.2500  41.7500 Du        
    823 ****       181.5000  19.2500  42.0000 Du        
    824 ****       181.5000  19.5000  41.7500 Du        
    825 ****       181.5000  19.5000  42.0000 Du        
    826 ****       181.5000  19.7500  41.7500 Du        
    827 ****       181.5000  19.7500  42.0000 Du        
    828 ****       181.5000  19.7500  42.2500 Du        
    829 ****       181.5000  20.0000  41.7500 Du        
    830 ****       181.5000  20.0000  42.0000 Du        
    831 ****       181.5000  20.0000  42.2500 Du        
    832 ****       181.5000  20.0000  42.5000 Du        
    833 ****       181.5000  20.2500  41.7500 Du        
    834 ****       181.5000  20.2500  42.0000 Du        
    835 ****       181.5000  20.2500  42.2500 Du        
    836 ****       181.5000  20.2500  42.5000 Du        
    837 ****       181.5000  20.2500  42.7500 Du        
    838 ****       181.5000  20.5000  42.2500 Du        
    839 ****       181.5000  20.5000  42.5000 Du        
    840 ****       181.5000  22.2500  46.5000 Du        
    841 ****       181.5000  22.2500  46.7500 Du        
    842 ****       181.5000  22.2500  47.0000 Du        
    843 ****       181.7500  14.0000  41.0000 Du        
    844 ****       181.7500  14.2500  41.0000 Du        
    845 ****       181.7500  14.2500  41.2500 Du        
    846 ****       181.7500  14.2500  41.5000 Du        
    847 ****       181.7500  14.2500  41.7500 Du        
    848 ****       181.7500  14.5000  41.0000 Du        
    849 ****       181.7500  14.5000  41.2500 Du        
    850 ****       181.7500  14.5000  41.5000 Du        
    851 ****       181.7500  14.5000  41.7500 Du        
    852 ****       181.7500  14.5000  42.0000 Du        
    853 ****       181.7500  14.5000  42.2500 Du        
    854 ****       181.7500  14.7500  41.0000 Du        
    855 ****       181.7500  14.7500  41.2500 Du        
    856 ****       181.7500  14.7500  41.5000 Du        
    857 ****       181.7500  14.7500  41.7500 Du        
    858 ****       181.7500  14.7500  42.0000 Du        
    859 ****       181.7500  14.7500  42.2500 Du        
    860 ****       181.7500  15.0000  41.0000 Du        
    861 ****       181.7500  15.0000  41.2500 Du        
    862 ****       181.7500  15.0000  41.5000 Du        
    863 ****       181.7500  15.0000  41.7500 Du        
    864 ****       181.7500  15.0000  42.0000 Du        
    865 ****       181.7500  15.0000  42.2500 Du        
    866 ****       181.7500  15.2500  41.0000 Du        
    867 ****       181.7500  15.2500  41.2500 Du        
    868 ****       181.7500  15.2500  41.5000 Du        
    869 ****       181.7500  15.2500  41.7500 Du        
    870 ****       181.7500  15.2500  42.0000 Du        
    871 ****       181.7500  15.2500  42.2500 Du        
    872 ****       181.7500  15.5000  40.7500 Du        
    873 ****       181.7500  15.5000  41.0000 Du        
    874 ****       181.7500  15.5000  41.2500 Du        
    875 ****       181.7500  15.5000  41.5000 Du        
    876 ****       181.7500  15.5000  41.7500 Du        
    877 ****       181.7500  15.5000  42.0000 Du        
    878 ****       181.7500  15.5000  42.2500 Du        
    879 ****       181.7500  15.7500  40.7500 Du        
    880 ****       181.7500  15.7500  41.0000 Du        
    881 ****       181.7500  15.7500  41.2500 Du        
    882 ****       181.7500  15.7500  41.5000 Du        
    883 ****       181.7500  15.7500  41.7500 Du        
    884 ****       181.7500  15.7500  42.0000 Du        
    885 ****       181.7500  16.0000  40.7500 Du        
    886 ****       181.7500  16.0000  41.0000 Du        
    887 ****       181.7500  16.0000  41.2500 Du        
    888 ****       181.7500  16.0000  41.5000 Du        
    889 ****       181.7500  16.0000  41.7500 Du        
    890 ****       181.7500  16.2500  40.5000 Du        
    891 ****       181.7500  16.2500  40.7500 Du        
    892 ****       181.7500  16.2500  41.0000 Du        
    893 ****       181.7500  16.2500  41.2500 Du        
    894 ****       181.7500  16.2500  41.5000 Du        
    895 ****       181.7500  16.2500  41.7500 Du        
    896 ****       181.7500  16.5000  40.5000 Du        
    897 ****       181.7500  16.5000  40.7500 Du        
    898 ****       181.7500  16.5000  41.0000 Du        
    899 ****       181.7500  16.5000  41.2500 Du        
    900 ****       181.7500  16.5000  41.5000 Du        
    901 ****       181.7500  16.5000  41.7500 Du        
    902 ****       181.7500  16.7500  40.5000 Du        
    903 ****       181.7500  16.7500  40.7500 Du        
    904 ****       181.7500  16.7500  41.0000 Du        
    905 ****       181.7500  16.7500  41.2500 Du        
    906 ****       181.7500  16.7500  41.5000 Du        
    907 ****       181.7500  17.0000  40.5000 Du        
    908 ****       181.7500  17.0000  40.7500 Du        
    909 ****       181.7500  17.0000  41.0000 Du        
    910 ****       181.7500  17.0000  41.2500 Du        
    911 ****       181.7500  17.0000  41.5000 Du        
    912 ****       181.7500  17.2500  40.5000 Du        
    913 ****       181.7500  17.2500  40.7500 Du        
    914 ****       181.7500  17.2500  41.0000 Du        
    915 ****       181.7500  17.2500  41.2500 Du        
    916 ****       181.7500  17.2500  41.5000 Du        
    917 ****       181.7500  17.5000  40.5000 Du        
    918 ****       181.7500  17.5000  40.7500 Du        
    919 ****       181.7500  17.5000  41.0000 Du        
    920 ****       181.7500  17.5000  41.2500 Du        
    921 ****       181.7500  17.5000  41.5000 Du        
    922 ****       181.7500  17.7500  40.5000 Du        
    923 ****       181.7500  17.7500  40.7500 Du        
    924 ****       181.7500  17.7500  41.0000 Du        
    925 ****       181.7500  17.7500  41.2500 Du        
    926 ****       181.7500  17.7500  41.5000 Du        
    927 ****       181.7500  18.0000  40.5000 Du        
    928 ****       181.7500  18.0000  40.7500 Du        
    929 ****       181.7500  18.0000  41.0000 Du        
    930 ****       181.7500  18.0000  41.2500 Du        
    931 ****       181.7500  18.0000  41.5000 Du        
    932 ****       181.7500  18.2500  40.7500 Du        
    933 ****       181.7500  18.2500  41.0000 Du        
    934 ****       181.7500  18.2500  41.2500 Du        
    935 ****       181.7500  18.2500  41.5000 Du        
    936 ****       181.7500  18.5000  41.0000 Du        
    937 ****       181.7500  18.5000  41.2500 Du        
    938 ****       181.7500  18.5000  41.5000 Du        
    939 ****       181.7500  18.7500  41.2500 Du        
    940 ****       181.7500  18.7500  41.5000 Du        
    941 ****       181.7500  18.7500  41.7500 Du        
    942 ****       181.7500  19.0000  41.5000 Du        
    943 ****       181.7500  19.0000  41.7500 Du        
    944 ****       181.7500  19.0000  42.0000 Du        
    945 ****       181.7500  19.2500  41.5000 Du        
    946 ****       181.7500  19.2500  41.7500 Du        
    947 ****       181.7500  19.2500  42.0000 Du        
    948 ****       181.7500  19.5000  41.7500 Du        
    949 ****       181.7500  19.5000  42.0000 Du        
    950 ****       181.7500  19.7500  41.7500 Du        
    951 ****       181.7500  19.7500  42.0000 Du        
    952 ****       181.7500  19.7500  42.2500 Du        
    953 ****       181.7500  20.0000  41.7500 Du        
    954 ****       181.7500  20.0000  42.0000 Du        
    955 ****       181.7500  20.0000  42.2500 Du        
    956 ****       181.7500  20.2500  41.7500 Du        
    957 ****       181.7500  20.2500  42.0000 Du        
    958 ****       181.7500  20.2500  42.2500 Du        
    959 ****       181.7500  20.2500  42.5000 Du        
    960 ****       181.7500  22.0000  46.5000 Du        
    961 ****       181.7500  22.0000  46.7500 Du        
    962 ****       181.7500  22.0000  47.0000 Du        
    963 ****       181.7500  22.2500  46.2500 Du        
    964 ****       181.7500  22.2500  46.5000 Du        
    965 ****       181.7500  22.2500  46.7500 Du        
    966 ****       182.0000  14.2500  41.2500 Du        
    967 ****       182.0000  14.5000  41.0000 Du        
    968 ****       182.0000  14.5000  41.2500 Du        
    969 ****       182.0000  14.5000  41.5000 Du        
    970 ****       182.0000  14.5000  41.7500 Du        
    971 ****       182.0000  14.5000  42.0000 Du        
    972 ****       182.0000  14.7500  41.0000 Du        
    973 ****       182.0000  14.7500  41.2500 Du        
    974 ****       182.0000  14.7500  41.5000 Du        
    975 ****       182.0000  14.7500  41.7500 Du        
    976 ****       182.0000  14.7500  42.0000 Du        
    977 ****       182.0000  14.7500  42.2500 Du        
    978 ****       182.0000  15.0000  41.0000 Du        
    979 ****       182.0000  15.0000  41.2500 Du        
    980 ****       182.0000  15.0000  41.5000 Du        
    981 ****       182.0000  15.0000  41.7500 Du        
    982 ****       182.0000  15.0000  42.0000 Du        
    983 ****       182.0000  15.0000  42.2500 Du        
    984 ****       182.0000  15.0000  42.5000 Du        
    985 ****       182.0000  15.2500  41.0000 Du        
    986 ****       182.0000  15.2500  41.2500 Du        
    987 ****       182.0000  15.2500  41.5000 Du        
    988 ****       182.0000  15.2500  41.7500 Du        
    989 ****       182.0000  15.2500  42.0000 Du        
    990 ****       182.0000  15.2500  42.2500 Du        
    991 ****       182.0000  15.2500  42.5000 Du        
    992 ****       182.0000  15.5000  41.0000 Du        
    993 ****       182.0000  15.5000  41.2500 Du        
    994 ****       182.0000  15.5000  41.5000 Du        
    995 ****       182.0000  15.5000  41.7500 Du        
    996 ****       182.0000  15.5000  42.0000 Du        
    997 ****       182.0000  15.5000  42.2500 Du        
    998 ****       182.0000  15.7500  40.7500 Du        
    999 ****       182.0000  15.7500  41.0000 Du        
   1000 ****       182.0000  15.7500  41.2500 Du        
   1001 ****       182.0000  15.7500  41.5000 Du        
   1002 ****       182.0000  15.7500  41.7500 Du        
   1003 ****       182.0000  15.7500  42.0000 Du        
   1004 ****       182.0000  15.7500  42.2500 Du        
   1005 ****       182.0000  16.0000  40.7500 Du        
   1006 ****       182.0000  16.0000  41.0000 Du        
   1007 ****       182.0000  16.0000  41.2500 Du        
   1008 ****       182.0000  16.0000  41.5000 Du        
   1009 ****       182.0000  16.0000  41.7500 Du        
   1010 ****       182.0000  16.0000  42.0000 Du        
   1011 ****       182.0000  16.2500  40.7500 Du        
   1012 ****       182.0000  16.2500  41.0000 Du        
   1013 ****       182.0000  16.2500  41.2500 Du        
   1014 ****       182.0000  16.2500  41.5000 Du        
   1015 ****       182.0000  16.2500  41.7500 Du        
   1016 ****       182.0000  16.5000  40.5000 Du        
   1017 ****       182.0000  16.5000  40.7500 Du        
   1018 ****       182.0000  16.5000  41.0000 Du        
   1019 ****       182.0000  16.5000  41.2500 Du        
   1020 ****       182.0000  16.5000  41.5000 Du        
   1021 ****       182.0000  16.5000  41.7500 Du        
   1022 ****       182.0000  16.7500  40.5000 Du        
   1023 ****       182.0000  16.7500  40.7500 Du        
   1024 ****       182.0000  16.7500  41.0000 Du        
   1025 ****       182.0000  16.7500  41.2500 Du        
   1026 ****       182.0000  16.7500  41.5000 Du        
   1027 ****       182.0000  16.7500  41.7500 Du        
   1028 ****       182.0000  17.0000  40.5000 Du        
   1029 ****       182.0000  17.0000  40.7500 Du        
   1030 ****       182.0000  17.0000  41.0000 Du        
   1031 ****       182.0000  17.0000  41.2500 Du        
   1032 ****       182.0000  17.0000  41.5000 Du        
   1033 ****       182.0000  17.2500  40.5000 Du        
   1034 ****       182.0000  17.2500  40.7500 Du        
   1035 ****       182.0000  17.2500  41.0000 Du        
   1036 ****       182.0000  17.2500  41.2500 Du        
   1037 ****       182.0000  17.2500  41.5000 Du        
   1038 ****       182.0000  17.5000  40.5000 Du        
   1039 ****       182.0000  17.5000  40.7500 Du        
   1040 ****       182.0000  17.5000  41.0000 Du        
   1041 ****       182.0000  17.5000  41.2500 Du        
   1042 ****       182.0000  17.5000  41.5000 Du        
   1043 ****       182.0000  17.7500  40.5000 Du        
   1044 ****       182.0000  17.7500  40.7500 Du        
   1045 ****       182.0000  17.7500  41.0000 Du        
   1046 ****       182.0000  17.7500  41.2500 Du        
   1047 ****       182.0000  17.7500  41.5000 Du        
   1048 ****       182.0000  18.0000  40.5000 Du        
   1049 ****       182.0000  18.0000  40.7500 Du        
   1050 ****       182.0000  18.0000  41.0000 Du        
   1051 ****       182.0000  18.0000  41.2500 Du        
   1052 ****       182.0000  18.0000  41.5000 Du        
   1053 ****       182.0000  18.2500  40.5000 Du        
   1054 ****       182.0000  18.2500  40.7500 Du        
   1055 ****       182.0000  18.2500  41.0000 Du        
   1056 ****       182.0000  18.2500  41.2500 Du        
   1057 ****       182.0000  18.2500  41.5000 Du        
   1058 ****       182.0000  18.2500  41.7500 Du        
   1059 ****       182.0000  18.5000  40.7500 Du        
   1060 ****       182.0000  18.5000  41.0000 Du        
   1061 ****       182.0000  18.5000  41.2500 Du        
   1062 ****       182.0000  18.5000  41.5000 Du        
   1063 ****       182.0000  18.5000  41.7500 Du        
   1064 ****       182.0000  18.7500  41.0000 Du        
   1065 ****       182.0000  18.7500  41.2500 Du        
   1066 ****       182.0000  18.7500  41.5000 Du        
   1067 ****       182.0000  18.7500  41.7500 Du        
   1068 ****       182.0000  19.0000  41.2500 Du        
   1069 ****       182.0000  19.0000  41.5000 Du        
   1070 ****       182.0000  19.0000  41.7500 Du        
   1071 ****       182.0000  19.0000  42.0000 Du        
   1072 ****       182.0000  19.2500  41.2500 Du        
   1073 ****       182.0000  19.2500  41.5000 Du        
   1074 ****       182.0000  19.2500  41.7500 Du        
   1075 ****       182.0000  19.2500  42.0000 Du        
   1076 ****       182.0000  19.5000  41.7500 Du        
   1077 ****       182.0000  19.5000  42.0000 Du        
   1078 ****       182.0000  19.7500  41.7500 Du        
   1079 ****       182.0000  19.7500  42.0000 Du        
   1080 ****       182.0000  19.7500  42.2500 Du        
   1081 ****       182.0000  20.0000  42.0000 Du        
   1082 ****       182.0000  21.7500  47.0000 Du        
   1083 ****       182.0000  22.0000  46.7500 Du        
   1084 ****       182.0000  22.0000  47.0000 Du        
   1085 ****       182.2500  14.5000  41.2500 Du        
   1086 ****       182.2500  14.5000  41.7500 Du        
   1087 ****       182.2500  14.7500  41.0000 Du        
   1088 ****       182.2500  14.7500  41.2500 Du        
   1089 ****       182.2500  14.7500  41.5000 Du        
   1090 ****       182.2500  14.7500  41.7500 Du        
   1091 ****       182.2500  14.7500  42.0000 Du        
   1092 ****       182.2500  14.7500  42.2500 Du        
   1093 ****       182.2500  15.0000  41.0000 Du        
   1094 ****       182.2500  15.0000  41.2500 Du        
   1095 ****       182.2500  15.0000  41.5000 Du        
   1096 ****       182.2500  15.0000  41.7500 Du        
   1097 ****       182.2500  15.0000  42.0000 Du        
   1098 ****       182.2500  15.0000  42.2500 Du        
   1099 ****       182.2500  15.0000  42.5000 Du        
   1100 ****       182.2500  15.2500  41.0000 Du        
   1101 ****       182.2500  15.2500  41.2500 Du        
   1102 ****       182.2500  15.2500  41.5000 Du        
   1103 ****       182.2500  15.2500  41.7500 Du        
   1104 ****       182.2500  15.2500  42.0000 Du        
   1105 ****       182.2500  15.2500  42.2500 Du        
   1106 ****       182.2500  15.2500  42.5000 Du        
   1107 ****       182.2500  15.5000  41.0000 Du        
   1108 ****       182.2500  15.5000  41.2500 Du        
   1109 ****       182.2500  15.5000  41.5000 Du        
   1110 ****       182.2500  15.5000  41.7500 Du        
   1111 ****       182.2500  15.5000  42.0000 Du        
   1112 ****       182.2500  15.5000  42.2500 Du        
   1113 ****       182.2500  15.5000  42.5000 Du        
   1114 ****       182.2500  15.7500  40.7500 Du        
   1115 ****       182.2500  15.7500  41.0000 Du        
   1116 ****       182.2500  15.7500  41.2500 Du        
   1117 ****       182.2500  15.7500  41.5000 Du        
   1118 ****       182.2500  15.7500  41.7500 Du        
   1119 ****       182.2500  15.7500  42.0000 Du        
   1120 ****       182.2500  15.7500  42.2500 Du        
   1121 ****       182.2500  16.0000  40.7500 Du        
   1122 ****       182.2500  16.0000  41.0000 Du        
   1123 ****       182.2500  16.0000  41.2500 Du        
   1124 ****       182.2500  16.0000  41.5000 Du        
   1125 ****       182.2500  16.0000  41.7500 Du        
   1126 ****       182.2500  16.0000  42.0000 Du        
   1127 ****       182.2500  16.2500  40.7500 Du        
   1128 ****       182.2500  16.2500  41.0000 Du        
   1129 ****       182.2500  16.2500  41.2500 Du        
   1130 ****       182.2500  16.2500  41.5000 Du        
   1131 ****       182.2500  16.2500  41.7500 Du        
   1132 ****       182.2500  16.2500  42.0000 Du        
   1133 ****       182.2500  16.5000  40.7500 Du        
   1134 ****       182.2500  16.5000  41.0000 Du        
   1135 ****       182.2500  16.5000  41.2500 Du        
   1136 ****       182.2500  16.5000  41.5000 Du        
   1137 ****       182.2500  16.5000  41.7500 Du        
   1138 ****       182.2500  16.7500  40.7500 Du        
   1139 ****       182.2500  16.7500  41.0000 Du        
   1140 ****       182.2500  16.7500  41.2500 Du        
   1141 ****       182.2500  16.7500  41.5000 Du        
   1142 ****       182.2500  16.7500  41.7500 Du        
   1143 ****       182.2500  17.0000  40.5000 Du        
   1144 ****       182.2500  17.0000  40.7500 Du        
   1145 ****       182.2500  17.0000  41.0000 Du        
   1146 ****       182.2500  17.0000  41.2500 Du        
   1147 ****       182.2500  17.0000  41.5000 Du        
   1148 ****       182.2500  17.0000  41.7500 Du        
   1149 ****       182.2500  17.2500  40.5000 Du        
   1150 ****       182.2500  17.2500  40.7500 Du        
   1151 ****       182.2500  17.2500  41.0000 Du        
   1152 ****       182.2500  17.2500  41.2500 Du        
   1153 ****       182.2500  17.2500  41.5000 Du        
   1154 ****       182.2500  17.5000  40.5000 Du        
   1155 ****       182.2500  17.5000  40.7500 Du        
   1156 ****       182.2500  17.5000  41.0000 Du        
   1157 ****       182.2500  17.5000  41.2500 Du        
   1158 ****       182.2500  17.5000  41.5000 Du        
   1159 ****       182.2500  17.7500  40.5000 Du        
   1160 ****       182.2500  17.7500  40.7500 Du        
   1161 ****       182.2500  17.7500  41.0000 Du        
   1162 ****       182.2500  17.7500  41.2500 Du        
   1163 ****       182.2500  17.7500  41.5000 Du        
   1164 ****       182.2500  18.0000  40.5000 Du        
   1165 ****       182.2500  18.0000  40.7500 Du        
   1166 ****       182.2500  18.0000  41.0000 Du        
   1167 ****       182.2500  18.0000  41.2500 Du        
   1168 ****       182.2500  18.0000  41.5000 Du        
   1169 ****       182.2500  18.2500  40.5000 Du        
   1170 ****       182.2500  18.2500  40.7500 Du        
   1171 ****       182.2500  18.2500  41.0000 Du        
   1172 ****       182.2500  18.2500  41.2500 Du        
   1173 ****       182.2500  18.2500  41.5000 Du        
   1174 ****       182.2500  18.5000  40.7500 Du        
   1175 ****       182.2500  18.5000  41.0000 Du        
   1176 ****       182.2500  18.5000  41.2500 Du        
   1177 ****       182.2500  18.7500  40.7500 Du        
   1178 ****       182.2500  18.7500  41.0000 Du        
   1179 ****       182.2500  18.7500  41.2500 Du        
   1180 ****       182.2500  18.7500  41.5000 Du        
   1181 ****       182.2500  19.0000  41.0000 Du        
   1182 ****       182.2500  19.0000  41.2500 Du        
   1183 ****       182.2500  19.2500  41.2500 Du        
   1184 ****       182.2500  21.7500  47.0000 Du        
   1185 ****       182.5000  14.7500  41.2500 Du        
   1186 ****       182.5000  14.7500  41.5000 Du        
   1187 ****       182.5000  14.7500  41.7500 Du        
   1188 ****       182.5000  14.7500  42.0000 Du        
   1189 ****       182.5000  15.0000  41.2500 Du        
   1190 ****       182.5000  15.0000  41.5000 Du        
   1191 ****       182.5000  15.0000  41.7500 Du        
   1192 ****       182.5000  15.0000  42.0000 Du        
   1193 ****       182.5000  15.0000  42.2500 Du        
   1194 ****       182.5000  15.0000  42.5000 Du        
   1195 ****       182.5000  15.2500  41.2500 Du        
   1196 ****       182.5000  15.2500  41.5000 Du        
   1197 ****       182.5000  15.2500  41.7500 Du        
   1198 ****       182.5000  15.2500  42.0000 Du        
   1199 ****       182.5000  15.2500  42.2500 Du        
   1200 ****       182.5000  15.2500  42.5000 Du        
   1201 ****       182.5000  15.5000  41.0000 Du        
   1202 ****       182.5000  15.5000  41.2500 Du        
   1203 ****       182.5000  15.5000  41.5000 Du        
   1204 ****       182.5000  15.5000  41.7500 Du        
   1205 ****       182.5000  15.5000  42.0000 Du        
   1206 ****       182.5000  15.5000  42.2500 Du        
   1207 ****       182.5000  15.5000  42.5000 Du        
   1208 ****       182.5000  15.7500  41.0000 Du        
   1209 ****       182.5000  15.7500  41.2500 Du        
   1210 ****       182.5000  15.7500  41.5000 Du        
   1211 ****       182.5000  15.7500  41.7500 Du        
   1212 ****       182.5000  15.7500  42.0000 Du        
   1213 ****       182.5000  15.7500  42.2500 Du        
   1214 ****       182.5000  16.0000  41.0000 Du        
   1215 ****       182.5000  16.0000  41.2500 Du        
   1216 ****       182.5000  16.0000  41.5000 Du        
   1217 ****       182.5000  16.0000  41.7500 Du        
   1218 ****       182.5000  16.0000  42.0000 Du        
   1219 ****       182.5000  16.2500  40.7500 Du        
   1220 ****       182.5000  16.2500  41.0000 Du        
   1221 ****       182.5000  16.2500  41.2500 Du        
   1222 ****       182.5000  16.2500  41.5000 Du        
   1223 ****       182.5000  16.2500  41.7500 Du        
   1224 ****       182.5000  16.5000  41.0000 Du        
   1225 ****       182.5000  16.5000  41.2500 Du        
   1226 ****       182.5000  16.5000  41.5000 Du        
   1227 ****       182.5000  16.5000  41.7500 Du        
   1228 ****       182.5000  16.7500  40.7500 Du        
   1229 ****       182.5000  16.7500  41.0000 Du        
   1230 ****       182.5000  16.7500  41.2500 Du        
   1231 ****       182.5000  16.7500  41.5000 Du        
   1232 ****       182.5000  17.0000  40.7500 Du        
   1233 ****       182.5000  17.0000  41.0000 Du        
   1234 ****       182.5000  17.0000  41.2500 Du        
   1235 ****       182.5000  17.0000  41.5000 Du        
   1236 ****       182.5000  17.2500  40.7500 Du        
   1237 ****       182.5000  17.2500  41.0000 Du        
   1238 ****       182.5000  17.2500  41.2500 Du        
   1239 ****       182.5000  17.5000  40.7500 Du        
   1240 ****       182.5000  17.5000  41.0000 Du        
   1241 ****       182.5000  17.5000  41.2500 Du        
   1242 ****       182.5000  17.7500  40.7500 Du        
   1243 ****       182.5000  17.7500  41.0000 Du        
   1244 ****       182.5000  17.7500  41.2500 Du        
   1245 ****       182.5000  18.0000  40.7500 Du        
   1246 ****       182.5000  18.0000  41.0000 Du        
   1247 ****       182.5000  18.0000  41.2500 Du        
   1248 ****       182.5000  18.2500  40.7500 Du        
   1249 ****       182.5000  18.2500  41.0000 Du        
   1250 ****       182.7500  15.0000  41.2500 Du        
   1251 ****       182.7500  15.0000  41.5000 Du        
   1252 ****       182.7500  15.0000  41.7500 Du        
   1253 ****       182.7500  15.0000  42.0000 Du        
   1254 ****       182.7500  15.0000  42.2500 Du        
   1255 ****       182.7500  15.0000  42.5000 Du        
   1256 ****       182.7500  15.2500  41.2500 Du        
   1257 ****       182.7500  15.2500  41.5000 Du        
   1258 ****       182.7500  15.2500  41.7500 Du        
   1259 ****       182.7500  15.2500  42.0000 Du        
   1260 ****       182.7500  15.2500  42.2500 Du        
   1261 ****       182.7500  15.2500  42.5000 Du        
   1262 ****       182.7500  15.2500  42.7500 Du        
   1263 ****       182.7500  15.5000  41.0000 Du        
   1264 ****       182.7500  15.5000  41.2500 Du        
   1265 ****       182.7500  15.5000  41.5000 Du        
   1266 ****       182.7500  15.5000  41.7500 Du        
   1267 ****       182.7500  15.5000  42.0000 Du        
   1268 ****       182.7500  15.5000  42.2500 Du        
   1269 ****       182.7500  15.5000  42.5000 Du        
   1270 ****       182.7500  15.5000  42.7500 Du        
   1271 ****       182.7500  15.7500  41.0000 Du        
   1272 ****       182.7500  15.7500  41.2500 Du        
   1273 ****       182.7500  15.7500  41.5000 Du        
   1274 ****       182.7500  15.7500  41.7500 Du        
   1275 ****       182.7500  15.7500  42.0000 Du        
   1276 ****       182.7500  15.7500  42.2500 Du        
   1277 ****       182.7500  15.7500  42.5000 Du        
   1278 ****       182.7500  16.0000  41.0000 Du        
   1279 ****       182.7500  16.0000  41.2500 Du        
   1280 ****       182.7500  16.0000  41.5000 Du        
   1281 ****       182.7500  16.0000  41.7500 Du        
   1282 ****       182.7500  16.0000  42.0000 Du        
   1283 ****       182.7500  16.0000  42.2500 Du        
   1284 ****       182.7500  16.2500  41.0000 Du        
   1285 ****       182.7500  16.2500  41.2500 Du        
   1286 ****       182.7500  16.2500  41.5000 Du        
   1287 ****       182.7500  16.2500  41.7500 Du        
   1288 ****       182.7500  16.2500  42.0000 Du        
   1289 ****       182.7500  16.5000  41.0000 Du        
   1290 ****       182.7500  16.5000  41.2500 Du        
   1291 ****       182.7500  16.5000  41.5000 Du        
   1292 ****       182.7500  16.5000  41.7500 Du        
   1293 ****       182.7500  16.7500  41.0000 Du        
   1294 ****       182.7500  16.7500  41.2500 Du        
   1295 ****       182.7500  16.7500  41.5000 Du        
   1296 ****       182.7500  16.7500  41.7500 Du        
   1297 ****       182.7500  17.0000  41.0000 Du        
   1298 ****       182.7500  17.0000  41.2500 Du        
   1299 ****       182.7500  17.2500  41.0000 Du        
   1300 ****       182.7500  17.2500  41.2500 Du        
   1301 ****       182.7500  17.5000  41.0000 Du        
   1302 ****       182.7500  17.7500  41.0000 Du        
   1303 ****       182.7500  17.7500  41.2500 Du        
   1304 ****       182.7500  18.0000  41.0000 Du        
   1305 ****       183.0000  15.0000  41.2500 Du        
   1306 ****       183.0000  15.0000  41.5000 Du        
   1307 ****       183.0000  15.0000  41.7500 Du        
   1308 ****       183.0000  15.0000  42.0000 Du        
   1309 ****       183.0000  15.0000  42.2500 Du        
   1310 ****       183.0000  15.2500  41.0000 Du        
   1311 ****       183.0000  15.2500  41.2500 Du        
   1312 ****       183.0000  15.2500  41.5000 Du        
   1313 ****       183.0000  15.2500  41.7500 Du        
   1314 ****       183.0000  15.2500  42.0000 Du        
   1315 ****       183.0000  15.2500  42.2500 Du        
   1316 ****       183.0000  15.2500  42.5000 Du        
   1317 ****       183.0000  15.5000  41.0000 Du        
   1318 ****       183.0000  15.5000  41.2500 Du        
   1319 ****       183.0000  15.5000  41.5000 Du        
   1320 ****       183.0000  15.5000  41.7500 Du        
   1321 ****       183.0000  15.5000  42.0000 Du        
   1322 ****       183.0000  15.5000  42.2500 Du        
   1323 ****       183.0000  15.5000  42.5000 Du        
   1324 ****       183.0000  15.5000  42.7500 Du        
   1325 ****       183.0000  15.7500  41.0000 Du        
   1326 ****       183.0000  15.7500  41.2500 Du        
   1327 ****       183.0000  15.7500  41.5000 Du        
   1328 ****       183.0000  15.7500  41.7500 Du        
   1329 ****       183.0000  15.7500  42.0000 Du        
   1330 ****       183.0000  15.7500  42.2500 Du        
   1331 ****       183.0000  15.7500  42.5000 Du        
   1332 ****       183.0000  15.7500  42.7500 Du        
   1333 ****       183.0000  16.0000  41.0000 Du        
   1334 ****       183.0000  16.0000  41.2500 Du        
   1335 ****       183.0000  16.0000  41.5000 Du        
   1336 ****       183.0000  16.0000  41.7500 Du        
   1337 ****       183.0000  16.0000  42.0000 Du        
   1338 ****       183.0000  16.0000  42.2500 Du        
   1339 ****       183.0000  16.2500  41.0000 Du        
   1340 ****       183.0000  16.2500  41.2500 Du        
   1341 ****       183.0000  16.2500  41.7500 Du        
   1342 ****       183.0000  16.2500  42.0000 Du        
   1343 ****       183.0000  16.5000  41.0000 Du        
   1344 ****       183.0000  16.5000  41.2500 Du        
   1345 ****       183.0000  16.5000  41.7500 Du        
   1346 ****       183.0000  16.7500  41.0000 Du        
   1347 ****       183.0000  16.7500  41.2500 Du        
   1348 ****       183.0000  17.0000  41.0000 Du        
   1349 ****       183.0000  17.0000  41.2500 Du        
   1350 ****       183.0000  20.7500  47.5000 Du        
   1351 ****       183.0000  20.7500  47.7500 Du        
   1352 ****       183.0000  21.0000  47.5000 Du        
   1353 ****       183.2500  15.0000  42.2500 Du        
   1354 ****       183.2500  15.2500  41.2500 Du        
   1355 ****       183.2500  15.2500  41.5000 Du        
   1356 ****       183.2500  15.2500  41.7500 Du        
   1357 ****       183.2500  15.2500  42.0000 Du        
   1358 ****       183.2500  15.2500  42.2500 Du        
   1359 ****       183.2500  15.2500  42.5000 Du        
   1360 ****       183.2500  15.5000  41.7500 Du        
   1361 ****       183.2500  15.5000  42.0000 Du        
   1362 ****       183.2500  15.5000  42.2500 Du        
   1363 ****       183.2500  15.5000  42.5000 Du        
   1364 ****       183.2500  15.7500  41.7500 Du        
   1365 ****       183.2500  15.7500  42.0000 Du        
   1366 ****       183.2500  15.7500  42.2500 Du        
   1367 ****       183.2500  16.0000  42.0000 Du        
   1368 ****       183.2500  16.0000  42.2500 Du        
   1369 ****       183.2500  20.7500  47.7500 Du        
   1370 ****       183.2500  21.0000  47.5000 Du        
   1371 ****       183.2500  21.5000  47.0000 Du        
   1372 ****       183.2500  21.7500  46.7500 Du        
   1373 ****       183.5000  10.0000  51.2500 Du        
   1374 ****       183.5000  10.2500  51.2500 Du        
   1375 ****       183.7500   9.7500  51.2500 Du        
   1376 ****       183.7500   9.7500  51.5000 Du        
   1377 ****       183.7500  10.0000  51.0000 Du        
   1378 ****       183.7500  10.0000  51.2500 Du        
   1379 ****       183.7500  10.0000  51.5000 Du        
   1380 ****       183.7500  10.0000  51.7500 Du        
   1381 ****       183.7500  10.2500  51.0000 Du        
   1382 ****       183.7500  10.2500  51.2500 Du        
   1383 ****       183.7500  10.2500  51.5000 Du        
   1384 ****       183.7500  10.5000  51.2500 Du        
   1385 ****       183.7500  20.2500  47.5000 Du        
   1386 ****       183.7500  20.2500  47.7500 Du        
   1387 ****       183.7500  20.2500  48.0000 Du        
   1388 ****       184.0000   9.7500  51.0000 Du        
   1389 ****       184.0000   9.7500  51.2500 Du        
   1390 ****       184.0000   9.7500  51.5000 Du        
   1391 ****       184.0000   9.7500  51.7500 Du        
   1392 ****       184.0000  10.0000  51.0000 Du        
   1393 ****       184.0000  10.0000  51.2500 Du        
   1394 ****       184.0000  10.0000  51.5000 Du        
   1395 ****       184.0000  10.0000  51.7500 Du        
   1396 ****       184.0000  10.0000  52.0000 Du        
   1397 ****       184.0000  10.2500  51.0000 Du        
   1398 ****       184.0000  10.2500  51.2500 Du        
   1399 ****       184.0000  10.2500  51.5000 Du        
   1400 ****       184.0000  10.2500  51.7500 Du        
   1401 ****       184.0000  10.5000  51.0000 Du        
   1402 ****       184.0000  10.5000  51.2500 Du        
   1403 ****       184.0000  10.5000  51.5000 Du        
   1404 ****       184.0000  10.7500  51.2500 Du        
   1405 ****       184.0000  20.0000  47.7500 Du        
   1406 ****       184.0000  20.0000  48.0000 Du        
   1407 ****       184.0000  20.2500  47.7500 Du        
   1408 ****       184.0000  20.2500  48.0000 Du        
   1409 ****       184.0000  24.0000  47.0000 Du        
   1410 ****       184.0000  24.0000  47.2500 Du        
   1411 ****       184.0000  24.2500  47.0000 Du        
   1412 ****       184.0000  24.2500  47.2500 Du        
   1413 ****       184.2500   9.5000  51.0000 Du        
   1414 ****       184.2500   9.5000  51.2500 Du        
   1415 ****       184.2500   9.7500  51.0000 Du        
   1416 ****       184.2500   9.7500  51.2500 Du        
   1417 ****       184.2500   9.7500  51.5000 Du        
   1418 ****       184.2500   9.7500  51.7500 Du        
   1419 ****       184.2500  10.0000  51.0000 Du        
   1420 ****       184.2500  10.0000  51.2500 Du        
   1421 ****       184.2500  10.0000  51.5000 Du        
   1422 ****       184.2500  10.0000  51.7500 Du        
   1423 ****       184.2500  10.0000  52.0000 Du        
   1424 ****       184.2500  10.2500  51.0000 Du        
   1425 ****       184.2500  10.2500  51.2500 Du        
   1426 ****       184.2500  10.2500  51.5000 Du        
   1427 ****       184.2500  10.2500  51.7500 Du        
   1428 ****       184.2500  10.2500  52.0000 Du        
   1429 ****       184.2500  10.5000  51.0000 Du        
   1430 ****       184.2500  10.5000  51.2500 Du        
   1431 ****       184.2500  10.5000  51.5000 Du        
   1432 ****       184.2500  10.5000  51.7500 Du        
   1433 ****       184.2500  10.7500  51.0000 Du        
   1434 ****       184.2500  10.7500  51.2500 Du        
   1435 ****       184.2500  10.7500  51.5000 Du        
   1436 ****       184.2500  11.0000  51.0000 Du        
   1437 ****       184.2500  19.7500  47.7500 Du        
   1438 ****       184.2500  19.7500  48.0000 Du        
   1439 ****       184.2500  20.0000  47.7500 Du        
   1440 ****       184.2500  20.0000  48.0000 Du        
   1441 ****       184.2500  20.2500  48.0000 Du        
   1442 ****       184.2500  23.5000  46.7500 Du        
   1443 ****       184.2500  23.5000  47.0000 Du        
   1444 ****       184.2500  23.7500  47.0000 Du        
   1445 ****       184.2500  23.7500  47.2500 Du        
   1446 ****       184.2500  24.0000  47.0000 Du        
   1447 ****       184.2500  24.0000  47.2500 Du        
   1448 ****       184.2500  24.0000  47.5000 Du        
   1449 ****       184.2500  24.2500  47.5000 Du        
   1450 ****       184.5000   9.5000  51.0000 Du        
   1451 ****       184.5000   9.5000  51.2500 Du        
   1452 ****       184.5000   9.7500  51.0000 Du        
   1453 ****       184.5000   9.7500  51.2500 Du        
   1454 ****       184.5000   9.7500  51.5000 Du        
   1455 ****       184.5000   9.7500  51.7500 Du        
   1456 ****       184.5000  10.0000  51.0000 Du        
   1457 ****       184.5000  10.0000  51.2500 Du        
   1458 ****       184.5000  10.0000  51.5000 Du        
   1459 ****       184.5000  10.0000  51.7500 Du        
   1460 ****       184.5000  10.0000  52.0000 Du        
   1461 ****       184.5000  10.2500  51.0000 Du        
   1462 ****       184.5000  10.2500  51.2500 Du        
   1463 ****       184.5000  10.2500  51.5000 Du        
   1464 ****       184.5000  10.2500  51.7500 Du        
   1465 ****       184.5000  10.2500  52.0000 Du        
   1466 ****       184.5000  10.2500  52.2500 Du        
   1467 ****       184.5000  10.5000  51.0000 Du        
   1468 ****       184.5000  10.5000  51.2500 Du        
   1469 ****       184.5000  10.5000  51.5000 Du        
   1470 ****       184.5000  10.5000  51.7500 Du        
   1471 ****       184.5000  10.5000  52.0000 Du        
   1472 ****       184.5000  10.7500  51.0000 Du        
   1473 ****       184.5000  10.7500  51.2500 Du        
   1474 ****       184.5000  10.7500  51.5000 Du        
   1475 ****       184.5000  10.7500  51.7500 Du        
   1476 ****       184.5000  11.0000  51.0000 Du        
   1477 ****       184.5000  11.0000  51.2500 Du        
   1478 ****       184.5000  11.0000  51.5000 Du        
   1479 ****       184.5000  11.2500  51.0000 Du        
   1480 ****       184.5000  23.0000  46.7500 Du        
   1481 ****       184.5000  23.2500  46.7500 Du        
   1482 ****       184.5000  23.2500  47.0000 Du        
   1483 ****       184.5000  23.2500  47.2500 Du        
   1484 ****       184.5000  23.5000  46.7500 Du        
   1485 ****       184.5000  23.5000  47.0000 Du        
   1486 ****       184.5000  23.5000  47.2500 Du        
   1487 ****       184.5000  23.7500  46.7500 Du        
   1488 ****       184.5000  23.7500  47.0000 Du        
   1489 ****       184.5000  23.7500  47.2500 Du        
   1490 ****       184.5000  23.7500  47.5000 Du        
   1491 ****       184.5000  24.0000  47.0000 Du        
   1492 ****       184.5000  24.0000  47.2500 Du        
   1493 ****       184.5000  24.0000  47.5000 Du        
   1494 ****       184.5000  24.2500  47.5000 Du        
   1495 ****       184.7500   6.5000  48.7500 Du        
   1496 ****       184.7500   6.7500  49.0000 Du        
   1497 ****       184.7500   6.7500  49.2500 Du        
   1498 ****       184.7500   7.0000  49.2500 Du        
   1499 ****       184.7500   7.0000  49.5000 Du        
   1500 ****       184.7500   7.2500  49.5000 Du        
   1501 ****       184.7500   7.2500  49.7500 Du        
   1502 ****       184.7500   9.0000  50.7500 Du        
   1503 ****       184.7500   9.2500  50.7500 Du        
   1504 ****       184.7500   9.2500  51.0000 Du        
   1505 ****       184.7500   9.5000  50.7500 Du        
   1506 ****       184.7500   9.5000  51.0000 Du        
   1507 ****       184.7500   9.5000  51.2500 Du        
   1508 ****       184.7500   9.5000  51.5000 Du        
   1509 ****       184.7500   9.7500  50.7500 Du        
   1510 ****       184.7500   9.7500  51.0000 Du        
   1511 ****       184.7500   9.7500  51.2500 Du        
   1512 ****       184.7500   9.7500  51.5000 Du        
   1513 ****       184.7500   9.7500  51.7500 Du        
   1514 ****       184.7500  10.0000  50.7500 Du        
   1515 ****       184.7500  10.0000  51.0000 Du        
   1516 ****       184.7500  10.0000  51.2500 Du        
   1517 ****       184.7500  10.0000  51.5000 Du        
   1518 ****       184.7500  10.0000  51.7500 Du        
   1519 ****       184.7500  10.0000  52.0000 Du        
   1520 ****       184.7500  10.2500  50.7500 Du        
   1521 ****       184.7500  10.2500  51.0000 Du        
   1522 ****       184.7500  10.2500  51.2500 Du        
   1523 ****       184.7500  10.2500  51.5000 Du        
   1524 ****       184.7500  10.2500  51.7500 Du        
   1525 ****       184.7500  10.2500  52.0000 Du        
   1526 ****       184.7500  10.2500  52.2500 Du        
   1527 ****       184.7500  10.5000  50.7500 Du        
   1528 ****       184.7500  10.5000  51.0000 Du        
   1529 ****       184.7500  10.5000  51.2500 Du        
   1530 ****       184.7500  10.5000  51.5000 Du        
   1531 ****       184.7500  10.5000  51.7500 Du        
   1532 ****       184.7500  10.5000  52.0000 Du        
   1533 ****       184.7500  10.5000  52.2500 Du        
   1534 ****       184.7500  10.7500  50.7500 Du        
   1535 ****       184.7500  10.7500  51.0000 Du        
   1536 ****       184.7500  10.7500  51.2500 Du        
   1537 ****       184.7500  10.7500  51.5000 Du        
   1538 ****       184.7500  10.7500  51.7500 Du        
   1539 ****       184.7500  10.7500  52.0000 Du        
   1540 ****       184.7500  10.7500  52.2500 Du        
   1541 ****       184.7500  11.0000  50.7500 Du        
   1542 ****       184.7500  11.0000  51.0000 Du        
   1543 ****       184.7500  11.0000  51.2500 Du        
   1544 ****       184.7500  11.0000  51.5000 Du        
   1545 ****       184.7500  11.0000  51.7500 Du        
   1546 ****       184.7500  11.0000  52.0000 Du        
   1547 ****       184.7500  11.2500  50.7500 Du        
   1548 ****       184.7500  11.2500  51.0000 Du        
   1549 ****       184.7500  11.2500  51.2500 Du        
   1550 ****       184.7500  11.2500  51.5000 Du        
   1551 ****       184.7500  11.2500  51.7500 Du        
   1552 ****       184.7500  11.5000  50.7500 Du        
   1553 ****       184.7500  11.5000  51.0000 Du        
   1554 ****       184.7500  11.5000  51.2500 Du        
   1555 ****       184.7500  11.7500  50.7500 Du        
   1556 ****       184.7500  19.2500  48.5000 Du        
   1557 ****       184.7500  19.2500  48.7500 Du        
   1558 ****       184.7500  19.5000  48.5000 Du        
   1559 ****       184.7500  19.5000  48.7500 Du        
   1560 ****       184.7500  19.7500  48.5000 Du        
   1561 ****       184.7500  20.0000  48.5000 Du        
   1562 ****       184.7500  23.0000  46.5000 Du        
   1563 ****       184.7500  23.0000  46.7500 Du        
   1564 ****       184.7500  23.0000  47.0000 Du        
   1565 ****       184.7500  23.2500  46.7500 Du        
   1566 ****       184.7500  23.2500  47.0000 Du        
   1567 ****       184.7500  23.5000  46.7500 Du        
   1568 ****       184.7500  23.5000  47.0000 Du        
   1569 ****       184.7500  23.7500  47.0000 Du        
   1570 ****       184.7500  23.7500  47.2500 Du        
   1571 ****       185.0000   6.2500  48.5000 Du        
   1572 ****       185.0000   6.2500  48.7500 Du        
   1573 ****       185.0000   6.5000  48.5000 Du        
   1574 ****       185.0000   6.5000  48.7500 Du        
   1575 ****       185.0000   6.5000  49.0000 Du        
   1576 ****       185.0000   6.7500  48.7500 Du        
   1577 ****       185.0000   6.7500  49.0000 Du        
   1578 ****       185.0000   6.7500  49.2500 Du        
   1579 ****       185.0000   6.7500  49.5000 Du        
   1580 ****       185.0000   7.0000  48.7500 Du        
   1581 ****       185.0000   7.0000  49.0000 Du        
   1582 ****       185.0000   7.0000  49.2500 Du        
   1583 ****       185.0000   7.0000  49.5000 Du        
   1584 ****       185.0000   7.0000  49.7500 Du        
   1585 ****       185.0000   7.0000  50.0000 Du        
   1586 ****       185.0000   7.2500  49.2500 Du        
   1587 ****       185.0000   7.2500  49.5000 Du        
   1588 ****       185.0000   7.2500  49.7500 Du        
   1589 ****       185.0000   7.2500  50.0000 Du        
   1590 ****       185.0000   7.5000  49.5000 Du        
   1591 ****       185.0000   7.5000  49.7500 Du        
   1592 ****       185.0000   7.5000  50.0000 Du        
   1593 ****       185.0000   7.5000  50.2500 Du        
   1594 ****       185.0000   7.7500  49.7500 Du        
   1595 ****       185.0000   7.7500  50.0000 Du        
   1596 ****       185.0000   7.7500  50.2500 Du        
   1597 ****       185.0000   8.0000  49.7500 Du        
   1598 ****       185.0000   8.0000  50.0000 Du        
   1599 ****       185.0000   8.0000  50.2500 Du        
   1600 ****       185.0000   8.2500  50.0000 Du        
   1601 ****       185.0000   8.2500  50.2500 Du        
   1602 ****       185.0000   8.5000  50.2500 Du        
   1603 ****       185.0000   8.5000  50.5000 Du        
   1604 ****       185.0000   8.7500  50.5000 Du        
   1605 ****       185.0000   8.7500  50.7500 Du        
   1606 ****       185.0000   9.0000  50.5000 Du        
   1607 ****       185.0000   9.0000  50.7500 Du        
   1608 ****       185.0000   9.0000  51.0000 Du        
   1609 ****       185.0000   9.2500  50.5000 Du        
   1610 ****       185.0000   9.2500  50.7500 Du        
   1611 ****       185.0000   9.2500  51.0000 Du        
   1612 ****       185.0000   9.2500  51.2500 Du        
   1613 ****       185.0000   9.5000  50.7500 Du        
   1614 ****       185.0000   9.5000  51.0000 Du        
   1615 ****       185.0000   9.5000  51.2500 Du        
   1616 ****       185.0000   9.5000  51.5000 Du        
   1617 ****       185.0000   9.7500  50.7500 Du        
   1618 ****       185.0000   9.7500  51.0000 Du        
   1619 ****       185.0000   9.7500  51.2500 Du        
   1620 ****       185.0000   9.7500  51.5000 Du        
   1621 ****       185.0000   9.7500  51.7500 Du        
   1622 ****       185.0000  10.0000  50.7500 Du        
   1623 ****       185.0000  10.0000  51.0000 Du        
   1624 ****       185.0000  10.0000  51.2500 Du        
   1625 ****       185.0000  10.0000  51.5000 Du        
   1626 ****       185.0000  10.0000  51.7500 Du        
   1627 ****       185.0000  10.0000  52.0000 Du        
   1628 ****       185.0000  10.2500  50.7500 Du        
   1629 ****       185.0000  10.2500  51.0000 Du        
   1630 ****       185.0000  10.2500  51.2500 Du        
   1631 ****       185.0000  10.2500  51.5000 Du        
   1632 ****       185.0000  10.2500  51.7500 Du        
   1633 ****       185.0000  10.2500  52.0000 Du        
   1634 ****       185.0000  10.2500  52.2500 Du        
   1635 ****       185.0000  10.5000  50.7500 Du        
   1636 ****       185.0000  10.5000  51.0000 Du        
   1637 ****       185.0000  10.5000  51.2500 Du        
   1638 ****       185.0000  10.5000  51.5000 Du        
   1639 ****       185.0000  10.5000  51.7500 Du        
   1640 ****       185.0000  10.5000  52.0000 Du        
   1641 ****       185.0000  10.5000  52.2500 Du        
   1642 ****       185.0000  10.7500  50.7500 Du        
   1643 ****       185.0000  10.7500  51.0000 Du        
   1644 ****       185.0000  10.7500  51.2500 Du        
   1645 ****       185.0000  10.7500  51.5000 Du        
   1646 ****       185.0000  10.7500  51.7500 Du        
   1647 ****       185.0000  10.7500  52.0000 Du        
   1648 ****       185.0000  10.7500  52.2500 Du        
   1649 ****       185.0000  10.7500  52.5000 Du        
   1650 ****       185.0000  11.0000  50.7500 Du        
   1651 ****       185.0000  11.0000  51.0000 Du        
   1652 ****       185.0000  11.0000  51.2500 Du        
   1653 ****       185.0000  11.0000  51.5000 Du        
   1654 ****       185.0000  11.0000  51.7500 Du        
   1655 ****       185.0000  11.0000  52.0000 Du        
   1656 ****       185.0000  11.0000  52.2500 Du        
   1657 ****       185.0000  11.0000  52.5000 Du        
   1658 ****       185.0000  11.2500  50.5000 Du        
   1659 ****       185.0000  11.2500  50.7500 Du        
   1660 ****       185.0000  11.2500  51.0000 Du        
   1661 ****       185.0000  11.2500  51.2500 Du        
   1662 ****       185.0000  11.2500  51.5000 Du        
   1663 ****       185.0000  11.2500  51.7500 Du        
   1664 ****       185.0000  11.2500  52.0000 Du        
   1665 ****       185.0000  11.2500  52.2500 Du        
   1666 ****       185.0000  11.5000  50.5000 Du        
   1667 ****       185.0000  11.5000  50.7500 Du        
   1668 ****       185.0000  11.5000  51.0000 Du        
   1669 ****       185.0000  11.5000  51.2500 Du        
   1670 ****       185.0000  11.5000  51.5000 Du        
   1671 ****       185.0000  11.5000  51.7500 Du        
   1672 ****       185.0000  11.7500  50.5000 Du        
   1673 ****       185.0000  11.7500  50.7500 Du        
   1674 ****       185.0000  11.7500  51.0000 Du        
   1675 ****       185.0000  11.7500  51.2500 Du        
   1676 ****       185.0000  11.7500  51.5000 Du        
   1677 ****       185.0000  12.0000  50.5000 Du        
   1678 ****       185.0000  12.0000  50.7500 Du        
   1679 ****       185.0000  12.0000  51.0000 Du        
   1680 ****       185.0000  19.0000  48.5000 Du        
   1681 ****       185.0000  19.0000  48.7500 Du        
   1682 ****       185.0000  19.0000  49.0000 Du        
   1683 ****       185.0000  19.2500  48.5000 Du        
   1684 ****       185.0000  19.2500  48.7500 Du        
   1685 ****       185.0000  19.2500  49.0000 Du        
   1686 ****       185.0000  19.5000  48.5000 Du        
   1687 ****       185.0000  19.5000  48.7500 Du        
   1688 ****       185.0000  19.5000  49.0000 Du        
   1689 ****       185.0000  19.7500  48.5000 Du        
   1690 ****       185.0000  19.7500  48.7500 Du        
   1691 ****       185.0000  20.0000  48.5000 Du        
   1692 ****       185.0000  22.0000  46.7500 Du        
   1693 ****       185.0000  22.2500  46.7500 Du        
   1694 ****       185.0000  22.5000  46.7500 Du        
   1695 ****       185.0000  22.7500  46.2500 Du        
   1696 ****       185.0000  22.7500  46.5000 Du        
   1697 ****       185.0000  22.7500  46.7500 Du        
   1698 ****       185.0000  23.0000  46.2500 Du        
   1699 ****       185.0000  23.0000  46.5000 Du        
   1700 ****       185.0000  23.0000  46.7500 Du        
   1701 ****       185.0000  23.0000  47.0000 Du        
   1702 ****       185.0000  23.2500  46.5000 Du        
   1703 ****       185.0000  23.2500  46.7500 Du        
   1704 ****       185.0000  23.2500  47.0000 Du        
   1705 ****       185.0000  23.5000  46.7500 Du        
   1706 ****       185.2500   6.2500  48.5000 Du        
   1707 ****       185.2500   6.2500  48.7500 Du        
   1708 ****       185.2500   6.5000  48.5000 Du        
   1709 ****       185.2500   6.5000  48.7500 Du        
   1710 ****       185.2500   6.5000  49.0000 Du        
   1711 ****       185.2500   6.5000  49.2500 Du        
   1712 ****       185.2500   6.7500  48.5000 Du        
   1713 ****       185.2500   6.7500  48.7500 Du        
   1714 ****       185.2500   6.7500  49.0000 Du        
   1715 ****       185.2500   6.7500  49.2500 Du        
   1716 ****       185.2500   6.7500  49.5000 Du        
   1717 ****       185.2500   6.7500  49.7500 Du        
   1718 ****       185.2500   7.0000  48.7500 Du        
   1719 ****       185.2500   7.0000  49.0000 Du        
   1720 ****       185.2500   7.0000  49.2500 Du        
   1721 ****       185.2500   7.0000  49.5000 Du        
   1722 ****       185.2500   7.0000  49.7500 Du        
   1723 ****       185.2500   7.0000  50.0000 Du        
   1724 ****       185.2500   7.2500  48.7500 Du        
   1725 ****       185.2500   7.2500  49.0000 Du        
   1726 ****       185.2500   7.2500  49.2500 Du        
   1727 ****       185.2500   7.2500  49.5000 Du        
   1728 ****       185.2500   7.2500  49.7500 Du        
   1729 ****       185.2500   7.2500  50.0000 Du        
   1730 ****       185.2500   7.2500  50.2500 Du        
   1731 ****       185.2500   7.5000  49.0000 Du        
   1732 ****       185.2500   7.5000  49.2500 Du        
   1733 ****       185.2500   7.5000  49.5000 Du        
   1734 ****       185.2500   7.5000  49.7500 Du        
   1735 ****       185.2500   7.5000  50.0000 Du        
   1736 ****       185.2500   7.5000  50.2500 Du        
   1737 ****       185.2500   7.7500  49.2500 Du        
   1738 ****       185.2500   7.7500  49.5000 Du        
   1739 ****       185.2500   7.7500  49.7500 Du        
   1740 ****       185.2500   7.7500  50.0000 Du        
   1741 ****       185.2500   7.7500  50.2500 Du        
   1742 ****       185.2500   7.7500  50.5000 Du        
   1743 ****       185.2500   8.0000  49.5000 Du        
   1744 ****       185.2500   8.0000  49.7500 Du        
   1745 ****       185.2500   8.0000  50.0000 Du        
   1746 ****       185.2500   8.0000  50.2500 Du        
   1747 ****       185.2500   8.0000  50.5000 Du        
   1748 ****       185.2500   8.2500  49.7500 Du        
   1749 ****       185.2500   8.2500  50.0000 Du        
   1750 ****       185.2500   8.2500  50.2500 Du        
   1751 ****       185.2500   8.2500  50.5000 Du        
   1752 ****       185.2500   8.5000  50.0000 Du        
   1753 ****       185.2500   8.5000  50.2500 Du        
   1754 ****       185.2500   8.5000  50.5000 Du        
   1755 ****       185.2500   8.5000  50.7500 Du        
   1756 ****       185.2500   8.7500  50.0000 Du        
   1757 ****       185.2500   8.7500  50.2500 Du        
   1758 ****       185.2500   8.7500  50.5000 Du        
   1759 ****       185.2500   8.7500  50.7500 Du        
   1760 ****       185.2500   9.0000  50.2500 Du        
   1761 ****       185.2500   9.0000  50.5000 Du        
   1762 ****       185.2500   9.0000  50.7500 Du        
   1763 ****       185.2500   9.0000  51.0000 Du        
   1764 ****       185.2500   9.2500  50.5000 Du        
   1765 ****       185.2500   9.2500  50.7500 Du        
   1766 ****       185.2500   9.2500  51.0000 Du        
   1767 ****       185.2500   9.2500  51.2500 Du        
   1768 ****       185.2500   9.5000  50.5000 Du        
   1769 ****       185.2500   9.5000  50.7500 Du        
   1770 ****       185.2500   9.5000  51.0000 Du        
   1771 ****       185.2500   9.5000  51.2500 Du        
   1772 ****       185.2500   9.5000  51.5000 Du        
   1773 ****       185.2500   9.7500  50.5000 Du        
   1774 ****       185.2500   9.7500  50.7500 Du        
   1775 ****       185.2500   9.7500  51.0000 Du        
   1776 ****       185.2500   9.7500  51.2500 Du        
   1777 ****       185.2500   9.7500  51.5000 Du        
   1778 ****       185.2500   9.7500  51.7500 Du        
   1779 ****       185.2500  10.0000  50.5000 Du        
   1780 ****       185.2500  10.0000  50.7500 Du        
   1781 ****       185.2500  10.0000  51.0000 Du        
   1782 ****       185.2500  10.0000  51.2500 Du        
   1783 ****       185.2500  10.0000  51.5000 Du        
   1784 ****       185.2500  10.0000  51.7500 Du        
   1785 ****       185.2500  10.0000  52.0000 Du        
   1786 ****       185.2500  10.2500  50.5000 Du        
   1787 ****       185.2500  10.2500  50.7500 Du        
   1788 ****       185.2500  10.2500  51.0000 Du        
   1789 ****       185.2500  10.2500  51.2500 Du        
   1790 ****       185.2500  10.2500  51.5000 Du        
   1791 ****       185.2500  10.2500  51.7500 Du        
   1792 ****       185.2500  10.2500  52.0000 Du        
   1793 ****       185.2500  10.2500  52.2500 Du        
   1794 ****       185.2500  10.5000  50.5000 Du        
   1795 ****       185.2500  10.5000  50.7500 Du        
   1796 ****       185.2500  10.5000  51.0000 Du        
   1797 ****       185.2500  10.5000  51.2500 Du        
   1798 ****       185.2500  10.5000  51.5000 Du        
   1799 ****       185.2500  10.5000  51.7500 Du        
   1800 ****       185.2500  10.5000  52.0000 Du        
   1801 ****       185.2500  10.5000  52.2500 Du        
   1802 ****       185.2500  10.7500  50.5000 Du        
   1803 ****       185.2500  10.7500  50.7500 Du        
   1804 ****       185.2500  10.7500  51.0000 Du        
   1805 ****       185.2500  10.7500  51.2500 Du        
   1806 ****       185.2500  10.7500  51.5000 Du        
   1807 ****       185.2500  10.7500  51.7500 Du        
   1808 ****       185.2500  10.7500  52.0000 Du        
   1809 ****       185.2500  10.7500  52.2500 Du        
   1810 ****       185.2500  10.7500  52.5000 Du        
   1811 ****       185.2500  11.0000  50.5000 Du        
   1812 ****       185.2500  11.0000  50.7500 Du        
   1813 ****       185.2500  11.0000  51.0000 Du        
   1814 ****       185.2500  11.0000  51.2500 Du        
   1815 ****       185.2500  11.0000  51.5000 Du        
   1816 ****       185.2500  11.0000  51.7500 Du        
   1817 ****       185.2500  11.0000  52.0000 Du        
   1818 ****       185.2500  11.0000  52.2500 Du        
   1819 ****       185.2500  11.0000  52.5000 Du        
   1820 ****       185.2500  11.2500  50.5000 Du        
   1821 ****       185.2500  11.2500  50.7500 Du        
   1822 ****       185.2500  11.2500  51.0000 Du        
   1823 ****       185.2500  11.2500  51.2500 Du        
   1824 ****       185.2500  11.2500  51.5000 Du        
   1825 ****       185.2500  11.2500  51.7500 Du        
   1826 ****       185.2500  11.2500  52.0000 Du        
   1827 ****       185.2500  11.2500  52.2500 Du        
   1828 ****       185.2500  11.2500  52.5000 Du        
   1829 ****       185.2500  11.2500  52.7500 Du        
   1830 ****       185.2500  11.5000  50.5000 Du        
   1831 ****       185.2500  11.5000  50.7500 Du        
   1832 ****       185.2500  11.5000  51.0000 Du        
   1833 ****       185.2500  11.5000  51.2500 Du        
   1834 ****       185.2500  11.5000  51.5000 Du        
   1835 ****       185.2500  11.5000  51.7500 Du        
   1836 ****       185.2500  11.5000  52.0000 Du        
   1837 ****       185.2500  11.5000  52.2500 Du        
   1838 ****       185.2500  11.5000  52.5000 Du        
   1839 ****       185.2500  11.7500  50.5000 Du        
   1840 ****       185.2500  11.7500  50.7500 Du        
   1841 ****       185.2500  11.7500  51.0000 Du        
   1842 ****       185.2500  11.7500  51.2500 Du        
   1843 ****       185.2500  11.7500  51.5000 Du        
   1844 ****       185.2500  11.7500  51.7500 Du        
   1845 ****       185.2500  11.7500  52.0000 Du        
   1846 ****       185.2500  11.7500  52.2500 Du        
   1847 ****       185.2500  11.7500  52.5000 Du        
   1848 ****       185.2500  12.0000  50.2500 Du        
   1849 ****       185.2500  12.0000  50.5000 Du        
   1850 ****       185.2500  12.0000  50.7500 Du        
   1851 ****       185.2500  12.0000  51.0000 Du        
   1852 ****       185.2500  12.0000  51.2500 Du        
   1853 ****       185.2500  12.0000  51.5000 Du        
   1854 ****       185.2500  12.0000  51.7500 Du        
   1855 ****       185.2500  12.0000  52.0000 Du        
   1856 ****       185.2500  12.2500  50.5000 Du        
   1857 ****       185.2500  12.2500  50.7500 Du        
   1858 ****       185.2500  12.2500  51.0000 Du        
   1859 ****       185.2500  12.2500  51.2500 Du        
   1860 ****       185.2500  18.7500  49.0000 Du        
   1861 ****       185.2500  18.7500  49.2500 Du        
   1862 ****       185.2500  18.7500  49.5000 Du        
   1863 ****       185.2500  18.7500  49.7500 Du        
   1864 ****       185.2500  18.7500  50.0000 Du        
   1865 ****       185.2500  19.0000  48.7500 Du        
   1866 ****       185.2500  19.0000  49.0000 Du        
   1867 ****       185.2500  19.0000  49.2500 Du        
   1868 ****       185.2500  19.0000  49.5000 Du        
   1869 ****       185.2500  19.0000  49.7500 Du        
   1870 ****       185.2500  19.0000  50.0000 Du        
   1871 ****       185.2500  19.2500  48.5000 Du        
   1872 ****       185.2500  19.2500  48.7500 Du        
   1873 ****       185.2500  19.2500  49.0000 Du        
   1874 ****       185.2500  19.2500  49.2500 Du        
   1875 ****       185.2500  19.2500  49.5000 Du        
   1876 ****       185.2500  19.2500  49.7500 Du        
   1877 ****       185.2500  19.5000  48.5000 Du        
   1878 ****       185.2500  19.5000  48.7500 Du        
   1879 ****       185.2500  19.5000  49.0000 Du        
   1880 ****       185.2500  19.5000  49.2500 Du        
   1881 ****       185.2500  19.5000  49.5000 Du        
   1882 ****       185.2500  19.7500  48.5000 Du        
   1883 ****       185.2500  19.7500  48.7500 Du        
   1884 ****       185.2500  19.7500  49.0000 Du        
   1885 ****       185.2500  20.0000  48.5000 Du        
   1886 ****       185.2500  20.0000  48.7500 Du        
   1887 ****       185.2500  20.0000  49.0000 Du        
   1888 ****       185.2500  22.5000  46.0000 Du        
   1889 ****       185.2500  22.5000  46.2500 Du        
   1890 ****       185.2500  22.7500  46.0000 Du        
   1891 ****       185.2500  22.7500  46.2500 Du        
   1892 ****       185.2500  22.7500  46.5000 Du        
   1893 ****       185.2500  23.0000  46.2500 Du        
   1894 ****       185.5000   6.2500  48.7500 Du        
   1895 ****       185.5000   6.2500  49.0000 Du        
   1896 ****       185.5000   6.5000  48.5000 Du        
   1897 ****       185.5000   6.5000  48.7500 Du        
   1898 ****       185.5000   6.5000  49.0000 Du        
   1899 ****       185.5000   6.5000  49.2500 Du        
   1900 ****       185.5000   6.7500  48.5000 Du        
   1901 ****       185.5000   6.7500  48.7500 Du        
   1902 ****       185.5000   6.7500  49.0000 Du        
   1903 ****       185.5000   6.7500  49.2500 Du        
   1904 ****       185.5000   6.7500  49.5000 Du        
   1905 ****       185.5000   6.7500  49.7500 Du        
   1906 ****       185.5000   7.0000  48.7500 Du        
   1907 ****       185.5000   7.0000  49.0000 Du        
   1908 ****       185.5000   7.0000  49.2500 Du        
   1909 ****       185.5000   7.0000  49.5000 Du        
   1910 ****       185.5000   7.0000  49.7500 Du        
   1911 ****       185.5000   7.0000  50.0000 Du        
   1912 ****       185.5000   7.0000  50.2500 Du        
   1913 ****       185.5000   7.2500  48.7500 Du        
   1914 ****       185.5000   7.2500  49.0000 Du        
   1915 ****       185.5000   7.2500  49.2500 Du        
   1916 ****       185.5000   7.2500  49.5000 Du        
   1917 ****       185.5000   7.2500  49.7500 Du        
   1918 ****       185.5000   7.2500  50.0000 Du        
   1919 ****       185.5000   7.2500  50.2500 Du        
   1920 ****       185.5000   7.5000  48.7500 Du        
   1921 ****       185.5000   7.5000  49.0000 Du        
   1922 ****       185.5000   7.5000  49.2500 Du        
   1923 ****       185.5000   7.5000  49.5000 Du        
   1924 ****       185.5000   7.5000  49.7500 Du        
   1925 ****       185.5000   7.5000  50.0000 Du        
   1926 ****       185.5000   7.5000  50.2500 Du        
   1927 ****       185.5000   7.5000  50.5000 Du        
   1928 ****       185.5000   7.7500  49.0000 Du        
   1929 ****       185.5000   7.7500  49.2500 Du        
   1930 ****       185.5000   7.7500  49.5000 Du        
   1931 ****       185.5000   7.7500  49.7500 Du        
   1932 ****       185.5000   7.7500  50.0000 Du        
   1933 ****       185.5000   7.7500  50.2500 Du        
   1934 ****       185.5000   7.7500  50.5000 Du        
   1935 ****       185.5000   8.0000  49.2500 Du        
   1936 ****       185.5000   8.0000  49.5000 Du        
   1937 ****       185.5000   8.0000  49.7500 Du        
   1938 ****       185.5000   8.0000  50.0000 Du        
   1939 ****       185.5000   8.0000  50.2500 Du        
   1940 ****       185.5000   8.0000  50.5000 Du        
   1941 ****       185.5000   8.2500  49.5000 Du        
   1942 ****       185.5000   8.2500  49.7500 Du        
   1943 ****       185.5000   8.2500  50.0000 Du        
   1944 ****       185.5000   8.2500  50.2500 Du        
   1945 ****       185.5000   8.2500  50.5000 Du        
   1946 ****       185.5000   8.2500  50.7500 Du        
   1947 ****       185.5000   8.5000  49.7500 Du        
   1948 ****       185.5000   8.5000  50.0000 Du        
   1949 ****       185.5000   8.5000  50.2500 Du        
   1950 ****       185.5000   8.5000  50.5000 Du        
   1951 ****       185.5000   8.5000  50.7500 Du        
   1952 ****       185.5000   8.7500  50.0000 Du        
   1953 ****       185.5000   8.7500  50.2500 Du        
   1954 ****       185.5000   8.7500  50.5000 Du        
   1955 ****       185.5000   8.7500  50.7500 Du        
   1956 ****       185.5000   9.0000  50.0000 Du        
   1957 ****       185.5000   9.0000  50.2500 Du        
   1958 ****       185.5000   9.0000  50.5000 Du        
   1959 ****       185.5000   9.0000  50.7500 Du        
   1960 ****       185.5000   9.0000  51.0000 Du        
   1961 ****       185.5000   9.2500  50.2500 Du        
   1962 ****       185.5000   9.2500  50.5000 Du        
   1963 ****       185.5000   9.2500  50.7500 Du        
   1964 ****       185.5000   9.2500  51.0000 Du        
   1965 ****       185.5000   9.2500  51.2500 Du        
   1966 ****       185.5000   9.5000  50.5000 Du        
   1967 ****       185.5000   9.5000  50.7500 Du        
   1968 ****       185.5000   9.5000  51.0000 Du        
   1969 ****       185.5000   9.5000  51.2500 Du        
   1970 ****       185.5000   9.7500  50.5000 Du        
   1971 ****       185.5000   9.7500  50.7500 Du        
   1972 ****       185.5000   9.7500  51.0000 Du        
   1973 ****       185.5000   9.7500  51.2500 Du        
   1974 ****       185.5000   9.7500  51.5000 Du        
   1975 ****       185.5000   9.7500  51.7500 Du        
   1976 ****       185.5000  10.0000  50.5000 Du        
   1977 ****       185.5000  10.0000  50.7500 Du        
   1978 ****       185.5000  10.0000  51.0000 Du        
   1979 ****       185.5000  10.0000  51.2500 Du        
   1980 ****       185.5000  10.0000  51.5000 Du        
   1981 ****       185.5000  10.0000  51.7500 Du        
   1982 ****       185.5000  10.0000  52.0000 Du        
   1983 ****       185.5000  10.2500  50.5000 Du        
   1984 ****       185.5000  10.2500  50.7500 Du        
   1985 ****       185.5000  10.2500  51.0000 Du        
   1986 ****       185.5000  10.2500  51.2500 Du        
   1987 ****       185.5000  10.2500  51.5000 Du        
   1988 ****       185.5000  10.2500  51.7500 Du        
   1989 ****       185.5000  10.2500  52.0000 Du        
   1990 ****       185.5000  10.5000  50.5000 Du        
   1991 ****       185.5000  10.5000  50.7500 Du        
   1992 ****       185.5000  10.5000  51.0000 Du        
   1993 ****       185.5000  10.5000  51.2500 Du        
   1994 ****       185.5000  10.5000  51.5000 Du        
   1995 ****       185.5000  10.5000  51.7500 Du        
   1996 ****       185.5000  10.5000  52.0000 Du        
   1997 ****       185.5000  10.5000  52.2500 Du        
   1998 ****       185.5000  10.7500  50.5000 Du        
   1999 ****       185.5000  10.7500  50.7500 Du        
   2000 ****       185.5000  10.7500  51.0000 Du        
   2001 ****       185.5000  10.7500  51.2500 Du        
   2002 ****       185.5000  10.7500  51.5000 Du        
   2003 ****       185.5000  10.7500  51.7500 Du        
   2004 ****       185.5000  10.7500  52.0000 Du        
   2005 ****       185.5000  10.7500  52.2500 Du        
   2006 ****       185.5000  11.0000  50.5000 Du        
   2007 ****       185.5000  11.0000  50.7500 Du        
   2008 ****       185.5000  11.0000  51.0000 Du        
   2009 ****       185.5000  11.0000  51.2500 Du        
   2010 ****       185.5000  11.0000  51.5000 Du        
   2011 ****       185.5000  11.0000  51.7500 Du        
   2012 ****       185.5000  11.0000  52.0000 Du        
   2013 ****       185.5000  11.0000  52.2500 Du        
   2014 ****       185.5000  11.0000  52.5000 Du        
   2015 ****       185.5000  11.2500  50.5000 Du        
   2016 ****       185.5000  11.2500  50.7500 Du        
   2017 ****       185.5000  11.2500  51.0000 Du        
   2018 ****       185.5000  11.2500  51.2500 Du        
   2019 ****       185.5000  11.2500  51.5000 Du        
   2020 ****       185.5000  11.2500  51.7500 Du        
   2021 ****       185.5000  11.2500  52.0000 Du        
   2022 ****       185.5000  11.2500  52.2500 Du        
   2023 ****       185.5000  11.2500  52.5000 Du        
   2024 ****       185.5000  11.2500  52.7500 Du        
   2025 ****       185.5000  11.5000  50.5000 Du        
   2026 ****       185.5000  11.5000  50.7500 Du        
   2027 ****       185.5000  11.5000  51.0000 Du        
   2028 ****       185.5000  11.5000  51.2500 Du        
   2029 ****       185.5000  11.5000  51.5000 Du        
   2030 ****       185.5000  11.5000  51.7500 Du        
   2031 ****       185.5000  11.5000  52.0000 Du        
   2032 ****       185.5000  11.5000  52.2500 Du        
   2033 ****       185.5000  11.5000  52.5000 Du        
   2034 ****       185.5000  11.5000  52.7500 Du        
   2035 ****       185.5000  11.7500  50.2500 Du        
   2036 ****       185.5000  11.7500  50.5000 Du        
   2037 ****       185.5000  11.7500  50.7500 Du        
   2038 ****       185.5000  11.7500  51.0000 Du        
   2039 ****       185.5000  11.7500  51.2500 Du        
   2040 ****       185.5000  11.7500  51.5000 Du        
   2041 ****       185.5000  11.7500  51.7500 Du        
   2042 ****       185.5000  11.7500  52.0000 Du        
   2043 ****       185.5000  11.7500  52.2500 Du        
   2044 ****       185.5000  11.7500  52.5000 Du        
   2045 ****       185.5000  11.7500  52.7500 Du        
   2046 ****       185.5000  12.0000  50.2500 Du        
   2047 ****       185.5000  12.0000  50.5000 Du        
   2048 ****       185.5000  12.0000  50.7500 Du        
   2049 ****       185.5000  12.0000  51.0000 Du        
   2050 ****       185.5000  12.0000  51.2500 Du        
   2051 ****       185.5000  12.0000  51.5000 Du        
   2052 ****       185.5000  12.0000  51.7500 Du        
   2053 ****       185.5000  12.0000  52.0000 Du        
   2054 ****       185.5000  12.0000  52.2500 Du        
   2055 ****       185.5000  12.0000  52.5000 Du        
   2056 ****       185.5000  12.0000  52.7500 Du        
   2057 ****       185.5000  12.2500  50.5000 Du        
   2058 ****       185.5000  12.2500  50.7500 Du        
   2059 ****       185.5000  12.2500  51.0000 Du        
   2060 ****       185.5000  12.2500  51.2500 Du        
   2061 ****       185.5000  12.2500  51.5000 Du        
   2062 ****       185.5000  12.2500  51.7500 Du        
   2063 ****       185.5000  12.2500  52.0000 Du        
   2064 ****       185.5000  12.2500  52.2500 Du        
   2065 ****       185.5000  12.2500  52.5000 Du        
   2066 ****       185.5000  12.2500  52.7500 Du        
   2067 ****       185.5000  12.5000  51.0000 Du        
   2068 ****       185.5000  12.5000  51.2500 Du        
   2069 ****       185.5000  12.5000  51.5000 Du        
   2070 ****       185.5000  12.5000  51.7500 Du        
   2071 ****       185.5000  12.5000  52.0000 Du        
   2072 ****       185.5000  12.5000  52.2500 Du        
   2073 ****       185.5000  12.7500  52.0000 Du        
   2074 ****       185.5000  18.5000  49.5000 Du        
   2075 ****       185.5000  18.5000  49.7500 Du        
   2076 ****       185.5000  18.5000  50.0000 Du        
   2077 ****       185.5000  18.5000  50.2500 Du        
   2078 ****       185.5000  18.5000  50.5000 Du        
   2079 ****       185.5000  18.7500  49.0000 Du        
   2080 ****       185.5000  18.7500  49.2500 Du        
   2081 ****       185.5000  18.7500  49.5000 Du        
   2082 ****       185.5000  18.7500  49.7500 Du        
   2083 ****       185.5000  18.7500  50.0000 Du        
   2084 ****       185.5000  18.7500  50.2500 Du        
   2085 ****       185.5000  18.7500  50.5000 Du        
   2086 ****       185.5000  19.0000  48.7500 Du        
   2087 ****       185.5000  19.0000  49.0000 Du        
   2088 ****       185.5000  19.0000  49.2500 Du        
   2089 ****       185.5000  19.0000  49.5000 Du        
   2090 ****       185.5000  19.0000  49.7500 Du        
   2091 ****       185.5000  19.0000  50.0000 Du        
   2092 ****       185.5000  19.0000  50.2500 Du        
   2093 ****       185.5000  19.0000  50.5000 Du        
   2094 ****       185.5000  19.2500  48.7500 Du        
   2095 ****       185.5000  19.2500  49.0000 Du        
   2096 ****       185.5000  19.2500  49.2500 Du        
   2097 ****       185.5000  19.2500  49.5000 Du        
   2098 ****       185.5000  19.2500  49.7500 Du        
   2099 ****       185.5000  19.2500  50.0000 Du        
   2100 ****       185.5000  19.2500  50.2500 Du        
   2101 ****       185.5000  19.2500  50.5000 Du        
   2102 ****       185.5000  19.5000  49.5000 Du        
   2103 ****       185.5000  19.5000  49.7500 Du        
   2104 ****       185.5000  19.5000  50.0000 Du        
   2105 ****       185.5000  19.7500  48.7500 Du        
   2106 ****       185.5000  19.7500  49.0000 Du        
   2107 ****       185.5000  19.7500  49.5000 Du        
   2108 ****       185.5000  20.0000  48.5000 Du        
   2109 ****       185.5000  20.0000  48.7500 Du        
   2110 ****       185.5000  20.2500  48.5000 Du        
   2111 ****       185.5000  22.2500  46.0000 Du        
   2112 ****       185.5000  22.2500  46.2500 Du        
   2113 ****       185.5000  22.5000  45.7500 Du        
   2114 ****       185.5000  22.5000  46.0000 Du        
   2115 ****       185.5000  22.5000  46.2500 Du        
   2116 ****       185.5000  22.7500  45.7500 Du        
   2117 ****       185.5000  22.7500  46.0000 Du        
   2118 ****       185.5000  22.7500  46.2500 Du        
   2119 ****       185.5000  23.0000  46.2500 Du        
   2120 ****       185.7500   6.2500  48.7500 Du        
   2121 ****       185.7500   6.2500  49.0000 Du        
   2122 ****       185.7500   6.5000  48.7500 Du        
   2123 ****       185.7500   6.5000  49.0000 Du        
   2124 ****       185.7500   6.5000  49.2500 Du        
   2125 ****       185.7500   6.5000  49.5000 Du        
   2126 ****       185.7500   6.7500  48.7500 Du        
   2127 ****       185.7500   6.7500  49.0000 Du        
   2128 ****       185.7500   6.7500  49.2500 Du        
   2129 ****       185.7500   6.7500  49.5000 Du        
   2130 ****       185.7500   6.7500  49.7500 Du        
   2131 ****       185.7500   6.7500  50.0000 Du        
   2132 ****       185.7500   7.0000  48.7500 Du        
   2133 ****       185.7500   7.0000  49.0000 Du        
   2134 ****       185.7500   7.0000  49.2500 Du        
   2135 ****       185.7500   7.0000  49.5000 Du        
   2136 ****       185.7500   7.0000  49.7500 Du        
   2137 ****       185.7500   7.0000  50.0000 Du        
   2138 ****       185.7500   7.0000  50.2500 Du        
   2139 ****       185.7500   7.2500  48.7500 Du        
   2140 ****       185.7500   7.2500  49.0000 Du        
   2141 ****       185.7500   7.2500  49.2500 Du        
   2142 ****       185.7500   7.2500  49.5000 Du        
   2143 ****       185.7500   7.2500  49.7500 Du        
   2144 ****       185.7500   7.2500  50.0000 Du        
   2145 ****       185.7500   7.2500  50.2500 Du        
   2146 ****       185.7500   7.2500  50.5000 Du        
   2147 ****       185.7500   7.5000  48.7500 Du        
   2148 ****       185.7500   7.5000  49.0000 Du        
   2149 ****       185.7500   7.5000  49.2500 Du        
   2150 ****       185.7500   7.5000  49.5000 Du        
   2151 ****       185.7500   7.5000  49.7500 Du        
   2152 ****       185.7500   7.5000  50.0000 Du        
   2153 ****       185.7500   7.5000  50.2500 Du        
   2154 ****       185.7500   7.5000  50.5000 Du        
   2155 ****       185.7500   7.7500  48.7500 Du        
   2156 ****       185.7500   7.7500  49.0000 Du        
   2157 ****       185.7500   7.7500  49.2500 Du        
   2158 ****       185.7500   7.7500  49.5000 Du        
   2159 ****       185.7500   7.7500  49.7500 Du        
   2160 ****       185.7500   7.7500  50.0000 Du        
   2161 ****       185.7500   7.7500  50.2500 Du        
   2162 ****       185.7500   7.7500  50.5000 Du        
   2163 ****       185.7500   8.0000  49.0000 Du        
   2164 ****       185.7500   8.0000  49.2500 Du        
   2165 ****       185.7500   8.0000  49.5000 Du        
   2166 ****       185.7500   8.0000  49.7500 Du        
   2167 ****       185.7500   8.0000  50.0000 Du        
   2168 ****       185.7500   8.0000  50.2500 Du        
   2169 ****       185.7500   8.0000  50.5000 Du        
   2170 ****       185.7500   8.2500  49.0000 Du        
   2171 ****       185.7500   8.2500  49.2500 Du        
   2172 ****       185.7500   8.2500  49.5000 Du        
   2173 ****       185.7500   8.2500  49.7500 Du        
   2174 ****       185.7500   8.2500  50.0000 Du        
   2175 ****       185.7500   8.2500  50.2500 Du        
   2176 ****       185.7500   8.2500  50.5000 Du        
   2177 ****       185.7500   8.5000  49.5000 Du        
   2178 ****       185.7500   8.5000  49.7500 Du        
   2179 ****       185.7500   8.5000  50.0000 Du        
   2180 ****       185.7500   8.5000  50.2500 Du        
   2181 ****       185.7500   8.5000  50.5000 Du        
   2182 ****       185.7500   8.5000  50.7500 Du        
   2183 ****       185.7500   8.7500  49.7500 Du        
   2184 ****       185.7500   8.7500  50.0000 Du        
   2185 ****       185.7500   8.7500  50.2500 Du        
   2186 ****       185.7500   8.7500  50.5000 Du        
   2187 ****       185.7500   8.7500  50.7500 Du        
   2188 ****       185.7500   9.0000  49.7500 Du        
   2189 ****       185.7500   9.0000  50.0000 Du        
   2190 ****       185.7500   9.0000  50.2500 Du        
   2191 ****       185.7500   9.0000  50.5000 Du        
   2192 ****       185.7500   9.0000  50.7500 Du        
   2193 ****       185.7500   9.0000  51.0000 Du        
   2194 ****       185.7500   9.2500  50.0000 Du        
   2195 ****       185.7500   9.2500  50.2500 Du        
   2196 ****       185.7500   9.2500  50.5000 Du        
   2197 ****       185.7500   9.2500  50.7500 Du        
   2198 ****       185.7500   9.2500  51.0000 Du        
   2199 ****       185.7500   9.2500  51.2500 Du        
   2200 ****       185.7500   9.5000  50.2500 Du        
   2201 ****       185.7500   9.5000  50.5000 Du        
   2202 ****       185.7500   9.5000  50.7500 Du        
   2203 ****       185.7500   9.5000  51.0000 Du        
   2204 ****       185.7500   9.5000  51.2500 Du        
   2205 ****       185.7500   9.7500  50.5000 Du        
   2206 ****       185.7500   9.7500  50.7500 Du        
   2207 ****       185.7500   9.7500  51.0000 Du        
   2208 ****       185.7500   9.7500  51.2500 Du        
   2209 ****       185.7500   9.7500  51.5000 Du        
   2210 ****       185.7500   9.7500  51.7500 Du        
   2211 ****       185.7500  10.0000  50.2500 Du        
   2212 ****       185.7500  10.0000  50.5000 Du        
   2213 ****       185.7500  10.0000  50.7500 Du        
   2214 ****       185.7500  10.0000  51.0000 Du        
   2215 ****       185.7500  10.0000  51.2500 Du        
   2216 ****       185.7500  10.0000  51.5000 Du        
   2217 ****       185.7500  10.0000  51.7500 Du        
   2218 ****       185.7500  10.2500  50.2500 Du        
   2219 ****       185.7500  10.2500  50.5000 Du        
   2220 ****       185.7500  10.2500  50.7500 Du        
   2221 ****       185.7500  10.2500  51.0000 Du        
   2222 ****       185.7500  10.2500  51.2500 Du        
   2223 ****       185.7500  10.2500  51.5000 Du        
   2224 ****       185.7500  10.2500  51.7500 Du        
   2225 ****       185.7500  10.2500  52.0000 Du        
   2226 ****       185.7500  10.5000  50.5000 Du        
   2227 ****       185.7500  10.5000  50.7500 Du        
   2228 ****       185.7500  10.5000  51.0000 Du        
   2229 ****       185.7500  10.5000  51.2500 Du        
   2230 ****       185.7500  10.5000  51.5000 Du        
   2231 ****       185.7500  10.5000  51.7500 Du        
   2232 ****       185.7500  10.5000  52.0000 Du        
   2233 ****       185.7500  10.5000  52.2500 Du        
   2234 ****       185.7500  10.7500  50.2500 Du        
   2235 ****       185.7500  10.7500  50.5000 Du        
   2236 ****       185.7500  10.7500  50.7500 Du        
   2237 ****       185.7500  10.7500  51.0000 Du        
   2238 ****       185.7500  10.7500  51.2500 Du        
   2239 ****       185.7500  10.7500  51.5000 Du        
   2240 ****       185.7500  10.7500  51.7500 Du        
   2241 ****       185.7500  10.7500  52.0000 Du        
   2242 ****       185.7500  10.7500  52.2500 Du        
   2243 ****       185.7500  10.7500  52.5000 Du        
   2244 ****       185.7500  11.0000  50.2500 Du        
   2245 ****       185.7500  11.0000  50.5000 Du        
   2246 ****       185.7500  11.0000  50.7500 Du        
   2247 ****       185.7500  11.0000  51.0000 Du        
   2248 ****       185.7500  11.0000  51.2500 Du        
   2249 ****       185.7500  11.0000  51.5000 Du        
   2250 ****       185.7500  11.0000  51.7500 Du        
   2251 ****       185.7500  11.0000  52.0000 Du        
   2252 ****       185.7500  11.0000  52.2500 Du        
   2253 ****       185.7500  11.0000  52.5000 Du        
   2254 ****       185.7500  11.2500  50.2500 Du        
   2255 ****       185.7500  11.2500  50.5000 Du        
   2256 ****       185.7500  11.2500  50.7500 Du        
   2257 ****       185.7500  11.2500  51.0000 Du        
   2258 ****       185.7500  11.2500  51.2500 Du        
   2259 ****       185.7500  11.2500  51.5000 Du        
   2260 ****       185.7500  11.2500  51.7500 Du        
   2261 ****       185.7500  11.2500  52.0000 Du        
   2262 ****       185.7500  11.2500  52.2500 Du        
   2263 ****       185.7500  11.2500  52.5000 Du        
   2264 ****       185.7500  11.2500  52.7500 Du        
   2265 ****       185.7500  11.5000  50.2500 Du        
   2266 ****       185.7500  11.5000  50.5000 Du        
   2267 ****       185.7500  11.5000  50.7500 Du        
   2268 ****       185.7500  11.5000  51.0000 Du        
   2269 ****       185.7500  11.5000  51.2500 Du        
   2270 ****       185.7500  11.5000  51.5000 Du        
   2271 ****       185.7500  11.5000  51.7500 Du        
   2272 ****       185.7500  11.5000  52.0000 Du        
   2273 ****       185.7500  11.5000  52.2500 Du        
   2274 ****       185.7500  11.5000  52.5000 Du        
   2275 ****       185.7500  11.5000  52.7500 Du        
   2276 ****       185.7500  11.7500  50.2500 Du        
   2277 ****       185.7500  11.7500  50.5000 Du        
   2278 ****       185.7500  11.7500  50.7500 Du        
   2279 ****       185.7500  11.7500  51.0000 Du        
   2280 ****       185.7500  11.7500  51.2500 Du        
   2281 ****       185.7500  11.7500  51.5000 Du        
   2282 ****       185.7500  11.7500  51.7500 Du        
   2283 ****       185.7500  11.7500  52.0000 Du        
   2284 ****       185.7500  11.7500  52.2500 Du        
   2285 ****       185.7500  11.7500  52.5000 Du        
   2286 ****       185.7500  11.7500  52.7500 Du        
   2287 ****       185.7500  11.7500  53.0000 Du        
   2288 ****       185.7500  12.0000  50.2500 Du        
   2289 ****       185.7500  12.0000  50.5000 Du        
   2290 ****       185.7500  12.0000  50.7500 Du        
   2291 ****       185.7500  12.0000  51.0000 Du        
   2292 ****       185.7500  12.0000  51.2500 Du        
   2293 ****       185.7500  12.0000  51.5000 Du        
   2294 ****       185.7500  12.0000  51.7500 Du        
   2295 ****       185.7500  12.0000  52.0000 Du        
   2296 ****       185.7500  12.0000  52.2500 Du        
   2297 ****       185.7500  12.0000  52.5000 Du        
   2298 ****       185.7500  12.0000  52.7500 Du        
   2299 ****       185.7500  12.0000  53.0000 Du        
   2300 ****       185.7500  12.2500  50.5000 Du        
   2301 ****       185.7500  12.2500  50.7500 Du        
   2302 ****       185.7500  12.2500  51.0000 Du        
   2303 ****       185.7500  12.2500  51.2500 Du        
   2304 ****       185.7500  12.2500  51.5000 Du        
   2305 ****       185.7500  12.2500  51.7500 Du        
   2306 ****       185.7500  12.2500  52.0000 Du        
   2307 ****       185.7500  12.2500  52.2500 Du        
   2308 ****       185.7500  12.2500  52.5000 Du        
   2309 ****       185.7500  12.2500  52.7500 Du        
   2310 ****       185.7500  12.5000  50.5000 Du        
   2311 ****       185.7500  12.5000  50.7500 Du        
   2312 ****       185.7500  12.5000  51.0000 Du        
   2313 ****       185.7500  12.5000  51.2500 Du        
   2314 ****       185.7500  12.5000  51.5000 Du        
   2315 ****       185.7500  12.5000  51.7500 Du        
   2316 ****       185.7500  12.5000  52.0000 Du        
   2317 ****       185.7500  12.5000  52.2500 Du        
   2318 ****       185.7500  12.5000  52.5000 Du        
   2319 ****       185.7500  12.5000  52.7500 Du        
   2320 ****       185.7500  12.7500  50.5000 Du        
   2321 ****       185.7500  12.7500  50.7500 Du        
   2322 ****       185.7500  12.7500  51.0000 Du        
   2323 ****       185.7500  12.7500  51.2500 Du        
   2324 ****       185.7500  12.7500  51.5000 Du        
   2325 ****       185.7500  12.7500  51.7500 Du        
   2326 ****       185.7500  12.7500  52.0000 Du        
   2327 ****       185.7500  12.7500  52.2500 Du        
   2328 ****       185.7500  12.7500  52.5000 Du        
   2329 ****       185.7500  13.0000  51.0000 Du        
   2330 ****       185.7500  13.0000  51.2500 Du        
   2331 ****       185.7500  13.0000  51.5000 Du        
   2332 ****       185.7500  13.0000  51.7500 Du        
   2333 ****       185.7500  13.0000  52.0000 Du        
   2334 ****       185.7500  13.0000  52.2500 Du        
   2335 ****       185.7500  13.2500  51.7500 Du        
   2336 ****       185.7500  13.2500  52.0000 Du        
   2337 ****       185.7500  18.0000  49.7500 Du        
   2338 ****       185.7500  18.0000  50.0000 Du        
   2339 ****       185.7500  18.0000  50.2500 Du        
   2340 ****       185.7500  18.0000  50.5000 Du        
   2341 ****       185.7500  18.2500  49.7500 Du        
   2342 ****       185.7500  18.2500  50.0000 Du        
   2343 ****       185.7500  18.2500  50.2500 Du        
   2344 ****       185.7500  18.2500  50.5000 Du        
   2345 ****       185.7500  18.5000  49.2500 Du        
   2346 ****       185.7500  18.5000  49.5000 Du        
   2347 ****       185.7500  18.5000  49.7500 Du        
   2348 ****       185.7500  18.5000  50.0000 Du        
   2349 ****       185.7500  18.5000  50.2500 Du        
   2350 ****       185.7500  18.5000  50.5000 Du        
   2351 ****       185.7500  18.7500  49.0000 Du        
   2352 ****       185.7500  18.7500  49.2500 Du        
   2353 ****       185.7500  18.7500  49.5000 Du        
   2354 ****       185.7500  18.7500  49.7500 Du        
   2355 ****       185.7500  18.7500  50.0000 Du        
   2356 ****       185.7500  18.7500  50.2500 Du        
   2357 ****       185.7500  18.7500  50.5000 Du        
   2358 ****       185.7500  19.0000  48.7500 Du        
   2359 ****       185.7500  19.0000  49.0000 Du        
   2360 ****       185.7500  19.0000  49.2500 Du        
   2361 ****       185.7500  19.0000  49.5000 Du        
   2362 ****       185.7500  19.0000  49.7500 Du        
   2363 ****       185.7500  19.0000  50.0000 Du        
   2364 ****       185.7500  19.0000  50.2500 Du        
   2365 ****       185.7500  19.0000  50.5000 Du        
   2366 ****       185.7500  19.2500  48.7500 Du        
   2367 ****       185.7500  19.2500  49.0000 Du        
   2368 ****       185.7500  19.2500  49.2500 Du        
   2369 ****       185.7500  19.2500  49.5000 Du        
   2370 ****       185.7500  19.2500  49.7500 Du        
   2371 ****       185.7500  19.2500  50.0000 Du        
   2372 ****       185.7500  19.2500  50.2500 Du        
   2373 ****       185.7500  19.2500  50.5000 Du        
   2374 ****       185.7500  19.5000  48.7500 Du        
   2375 ****       185.7500  19.5000  49.0000 Du        
   2376 ****       185.7500  19.5000  49.2500 Du        
   2377 ****       185.7500  19.5000  49.5000 Du        
   2378 ****       185.7500  19.5000  49.7500 Du        
   2379 ****       185.7500  19.5000  50.0000 Du        
   2380 ****       185.7500  19.5000  50.2500 Du        
   2381 ****       185.7500  19.5000  50.5000 Du        
   2382 ****       185.7500  19.7500  48.5000 Du        
   2383 ****       185.7500  19.7500  48.7500 Du        
   2384 ****       185.7500  19.7500  49.0000 Du        
   2385 ****       185.7500  19.7500  49.2500 Du        
   2386 ****       185.7500  19.7500  49.5000 Du        
   2387 ****       185.7500  19.7500  49.7500 Du        
   2388 ****       185.7500  19.7500  50.0000 Du        
   2389 ****       185.7500  19.7500  50.2500 Du        
   2390 ****       185.7500  20.0000  48.2500 Du        
   2391 ****       185.7500  20.0000  48.5000 Du        
   2392 ****       185.7500  20.0000  48.7500 Du        
   2393 ****       185.7500  20.0000  49.0000 Du        
   2394 ****       185.7500  20.0000  49.2500 Du        
   2395 ****       185.7500  20.0000  49.5000 Du        
   2396 ****       185.7500  20.0000  49.7500 Du        
   2397 ****       185.7500  20.2500  48.2500 Du        
   2398 ****       185.7500  20.2500  48.5000 Du        
   2399 ****       185.7500  20.2500  48.7500 Du        
   2400 ****       185.7500  20.2500  49.0000 Du        
   2401 ****       185.7500  20.5000  48.5000 Du        
   2402 ****       185.7500  20.5000  48.7500 Du        
   2403 ****       185.7500  20.7500  48.7500 Du        
   2404 ****       185.7500  22.0000  46.0000 Du        
   2405 ****       185.7500  22.2500  45.7500 Du        
   2406 ****       185.7500  22.2500  46.0000 Du        
   2407 ****       185.7500  22.5000  45.5000 Du        
   2408 ****       185.7500  22.5000  45.7500 Du        
   2409 ****       185.7500  22.5000  46.0000 Du        
   2410 ****       185.7500  22.5000  46.2500 Du        
   2411 ****       185.7500  22.7500  45.7500 Du        
   2412 ****       185.7500  22.7500  46.0000 Du        
   2413 ****       185.7500  22.7500  46.2500 Du        
   2414 ****       186.0000   6.2500  49.0000 Du        
   2415 ****       186.0000   6.2500  49.2500 Du        
   2416 ****       186.0000   6.5000  49.0000 Du        
   2417 ****       186.0000   6.5000  49.2500 Du        
   2418 ****       186.0000   6.5000  49.5000 Du        
   2419 ****       186.0000   6.7500  49.0000 Du        
   2420 ****       186.0000   6.7500  49.2500 Du        
   2421 ****       186.0000   6.7500  49.5000 Du        
   2422 ****       186.0000   6.7500  49.7500 Du        
   2423 ****       186.0000   6.7500  50.0000 Du        
   2424 ****       186.0000   6.7500  50.2500 Du        
   2425 ****       186.0000   7.0000  48.7500 Du        
   2426 ****       186.0000   7.0000  49.0000 Du        
   2427 ****       186.0000   7.0000  49.2500 Du        
   2428 ****       186.0000   7.0000  49.5000 Du        
   2429 ****       186.0000   7.0000  49.7500 Du        
   2430 ****       186.0000   7.0000  50.0000 Du        
   2431 ****       186.0000   7.0000  50.2500 Du        
   2432 ****       186.0000   7.2500  48.7500 Du        
   2433 ****       186.0000   7.2500  49.0000 Du        
   2434 ****       186.0000   7.2500  49.2500 Du        
   2435 ****       186.0000   7.2500  49.5000 Du        
   2436 ****       186.0000   7.2500  49.7500 Du        
   2437 ****       186.0000   7.2500  50.0000 Du        
   2438 ****       186.0000   7.2500  50.2500 Du        
   2439 ****       186.0000   7.2500  50.5000 Du        
   2440 ****       186.0000   7.5000  48.7500 Du        
   2441 ****       186.0000   7.5000  49.0000 Du        
   2442 ****       186.0000   7.5000  49.2500 Du        
   2443 ****       186.0000   7.5000  49.5000 Du        
   2444 ****       186.0000   7.5000  49.7500 Du        
   2445 ****       186.0000   7.5000  50.0000 Du        
   2446 ****       186.0000   7.5000  50.2500 Du        
   2447 ****       186.0000   7.5000  50.5000 Du        
   2448 ****       186.0000   7.7500  48.7500 Du        
   2449 ****       186.0000   7.7500  49.0000 Du        
   2450 ****       186.0000   7.7500  49.2500 Du        
   2451 ****       186.0000   7.7500  49.5000 Du        
   2452 ****       186.0000   7.7500  49.7500 Du        
   2453 ****       186.0000   7.7500  50.0000 Du        
   2454 ****       186.0000   7.7500  50.2500 Du        
   2455 ****       186.0000   7.7500  50.5000 Du        
   2456 ****       186.0000   8.0000  48.7500 Du        
   2457 ****       186.0000   8.0000  49.0000 Du        
   2458 ****       186.0000   8.0000  49.2500 Du        
   2459 ****       186.0000   8.0000  49.5000 Du        
   2460 ****       186.0000   8.0000  49.7500 Du        
   2461 ****       186.0000   8.0000  50.0000 Du        
   2462 ****       186.0000   8.0000  50.2500 Du        
   2463 ****       186.0000   8.0000  50.5000 Du        
   2464 ****       186.0000   8.2500  48.7500 Du        
   2465 ****       186.0000   8.2500  49.0000 Du        
   2466 ****       186.0000   8.2500  49.2500 Du        
   2467 ****       186.0000   8.2500  49.5000 Du        
   2468 ****       186.0000   8.2500  49.7500 Du        
   2469 ****       186.0000   8.2500  50.0000 Du        
   2470 ****       186.0000   8.2500  50.2500 Du        
   2471 ****       186.0000   8.2500  50.5000 Du        
   2472 ****       186.0000   8.5000  49.2500 Du        
   2473 ****       186.0000   8.5000  49.5000 Du        
   2474 ****       186.0000   8.5000  49.7500 Du        
   2475 ****       186.0000   8.5000  50.0000 Du        
   2476 ****       186.0000   8.5000  50.2500 Du        
   2477 ****       186.0000   8.5000  50.5000 Du        
   2478 ****       186.0000   8.5000  50.7500 Du        
   2479 ****       186.0000   8.7500  49.2500 Du        
   2480 ****       186.0000   8.7500  49.5000 Du        
   2481 ****       186.0000   8.7500  49.7500 Du        
   2482 ****       186.0000   8.7500  50.0000 Du        
   2483 ****       186.0000   8.7500  50.2500 Du        
   2484 ****       186.0000   8.7500  50.5000 Du        
   2485 ****       186.0000   8.7500  50.7500 Du        
   2486 ****       186.0000   9.0000  49.7500 Du        
   2487 ****       186.0000   9.0000  50.0000 Du        
   2488 ****       186.0000   9.0000  50.2500 Du        
   2489 ****       186.0000   9.0000  50.5000 Du        
   2490 ****       186.0000   9.0000  50.7500 Du        
   2491 ****       186.0000   9.0000  51.0000 Du        
   2492 ****       186.0000   9.2500  49.7500 Du        
   2493 ****       186.0000   9.2500  50.0000 Du        
   2494 ****       186.0000   9.2500  50.2500 Du        
   2495 ****       186.0000   9.2500  50.5000 Du        
   2496 ****       186.0000   9.2500  50.7500 Du        
   2497 ****       186.0000   9.2500  51.0000 Du        
   2498 ****       186.0000   9.5000  50.2500 Du        
   2499 ****       186.0000   9.5000  50.5000 Du        
   2500 ****       186.0000   9.5000  50.7500 Du        
   2501 ****       186.0000   9.5000  51.0000 Du        
   2502 ****       186.0000   9.5000  51.2500 Du        
   2503 ****       186.0000   9.7500  50.2500 Du        
   2504 ****       186.0000   9.7500  50.5000 Du        
   2505 ****       186.0000   9.7500  50.7500 Du        
   2506 ****       186.0000   9.7500  51.0000 Du        
   2507 ****       186.0000   9.7500  51.2500 Du        
   2508 ****       186.0000   9.7500  51.5000 Du        
   2509 ****       186.0000  10.0000  50.2500 Du        
   2510 ****       186.0000  10.0000  50.5000 Du        
   2511 ****       186.0000  10.0000  50.7500 Du        
   2512 ****       186.0000  10.0000  51.0000 Du        
   2513 ****       186.0000  10.0000  51.2500 Du        
   2514 ****       186.0000  10.0000  51.5000 Du        
   2515 ****       186.0000  10.0000  51.7500 Du        
   2516 ****       186.0000  10.2500  50.2500 Du        
   2517 ****       186.0000  10.2500  50.5000 Du        
   2518 ****       186.0000  10.2500  50.7500 Du        
   2519 ****       186.0000  10.2500  51.0000 Du        
   2520 ****       186.0000  10.2500  51.2500 Du        
   2521 ****       186.0000  10.2500  51.5000 Du        
   2522 ****       186.0000  10.2500  51.7500 Du        
   2523 ****       186.0000  10.2500  52.0000 Du        
   2524 ****       186.0000  10.5000  50.2500 Du        
   2525 ****       186.0000  10.5000  50.5000 Du        
   2526 ****       186.0000  10.5000  50.7500 Du        
   2527 ****       186.0000  10.5000  51.0000 Du        
   2528 ****       186.0000  10.5000  51.2500 Du        
   2529 ****       186.0000  10.5000  51.5000 Du        
   2530 ****       186.0000  10.5000  51.7500 Du        
   2531 ****       186.0000  10.5000  52.0000 Du        
   2532 ****       186.0000  10.5000  52.2500 Du        
   2533 ****       186.0000  10.7500  50.2500 Du        
   2534 ****       186.0000  10.7500  50.5000 Du        
   2535 ****       186.0000  10.7500  50.7500 Du        
   2536 ****       186.0000  10.7500  51.0000 Du        
   2537 ****       186.0000  10.7500  51.2500 Du        
   2538 ****       186.0000  10.7500  51.5000 Du        
   2539 ****       186.0000  10.7500  51.7500 Du        
   2540 ****       186.0000  10.7500  52.0000 Du        
   2541 ****       186.0000  10.7500  52.2500 Du        
   2542 ****       186.0000  11.0000  50.2500 Du        
   2543 ****       186.0000  11.0000  50.5000 Du        
   2544 ****       186.0000  11.0000  50.7500 Du        
   2545 ****       186.0000  11.0000  51.0000 Du        
   2546 ****       186.0000  11.0000  51.2500 Du        
   2547 ****       186.0000  11.0000  51.5000 Du        
   2548 ****       186.0000  11.0000  51.7500 Du        
   2549 ****       186.0000  11.0000  52.0000 Du        
   2550 ****       186.0000  11.0000  52.2500 Du        
   2551 ****       186.0000  11.0000  52.5000 Du        
   2552 ****       186.0000  11.2500  50.2500 Du        
   2553 ****       186.0000  11.2500  50.5000 Du        
   2554 ****       186.0000  11.2500  50.7500 Du        
   2555 ****       186.0000  11.2500  51.0000 Du        
   2556 ****       186.0000  11.2500  51.2500 Du        
   2557 ****       186.0000  11.2500  51.5000 Du        
   2558 ****       186.0000  11.2500  51.7500 Du        
   2559 ****       186.0000  11.2500  52.0000 Du        
   2560 ****       186.0000  11.2500  52.2500 Du        
   2561 ****       186.0000  11.2500  52.5000 Du        
   2562 ****       186.0000  11.2500  52.7500 Du        
   2563 ****       186.0000  11.5000  50.5000 Du        
   2564 ****       186.0000  11.5000  50.7500 Du        
   2565 ****       186.0000  11.5000  51.0000 Du        
   2566 ****       186.0000  11.5000  51.2500 Du        
   2567 ****       186.0000  11.5000  51.5000 Du        
   2568 ****       186.0000  11.5000  51.7500 Du        
   2569 ****       186.0000  11.5000  52.0000 Du        
   2570 ****       186.0000  11.5000  52.2500 Du        
   2571 ****       186.0000  11.5000  52.5000 Du        
   2572 ****       186.0000  11.5000  52.7500 Du        
   2573 ****       186.0000  11.5000  53.0000 Du        
   2574 ****       186.0000  11.7500  50.2500 Du        
   2575 ****       186.0000  11.7500  50.5000 Du        
   2576 ****       186.0000  11.7500  50.7500 Du        
   2577 ****       186.0000  11.7500  51.0000 Du        
   2578 ****       186.0000  11.7500  51.2500 Du        
   2579 ****       186.0000  11.7500  51.5000 Du        
   2580 ****       186.0000  11.7500  51.7500 Du        
   2581 ****       186.0000  11.7500  52.0000 Du        
   2582 ****       186.0000  11.7500  52.2500 Du        
   2583 ****       186.0000  11.7500  52.5000 Du        
   2584 ****       186.0000  11.7500  52.7500 Du        
   2585 ****       186.0000  11.7500  53.0000 Du        
   2586 ****       186.0000  12.0000  45.2500 Du        
   2587 ****       186.0000  12.0000  50.5000 Du        
   2588 ****       186.0000  12.0000  50.7500 Du        
   2589 ****       186.0000  12.0000  51.0000 Du        
   2590 ****       186.0000  12.0000  51.2500 Du        
   2591 ****       186.0000  12.0000  51.5000 Du        
   2592 ****       186.0000  12.0000  51.7500 Du        
   2593 ****       186.0000  12.0000  52.0000 Du        
   2594 ****       186.0000  12.0000  52.2500 Du        
   2595 ****       186.0000  12.0000  52.5000 Du        
   2596 ****       186.0000  12.0000  52.7500 Du        
   2597 ****       186.0000  12.0000  53.0000 Du        
   2598 ****       186.0000  12.2500  50.5000 Du        
   2599 ****       186.0000  12.2500  50.7500 Du        
   2600 ****       186.0000  12.2500  51.0000 Du        
   2601 ****       186.0000  12.2500  51.2500 Du        
   2602 ****       186.0000  12.2500  51.5000 Du        
   2603 ****       186.0000  12.2500  51.7500 Du        
   2604 ****       186.0000  12.2500  52.0000 Du        
   2605 ****       186.0000  12.2500  52.2500 Du        
   2606 ****       186.0000  12.2500  52.5000 Du        
   2607 ****       186.0000  12.2500  52.7500 Du        
   2608 ****       186.0000  12.2500  53.0000 Du        
   2609 ****       186.0000  12.5000  50.5000 Du        
   2610 ****       186.0000  12.5000  50.7500 Du        
   2611 ****       186.0000  12.5000  51.0000 Du        
   2612 ****       186.0000  12.5000  51.2500 Du        
   2613 ****       186.0000  12.5000  51.5000 Du        
   2614 ****       186.0000  12.5000  51.7500 Du        
   2615 ****       186.0000  12.5000  52.0000 Du        
   2616 ****       186.0000  12.5000  52.2500 Du        
   2617 ****       186.0000  12.5000  52.5000 Du        
   2618 ****       186.0000  12.5000  52.7500 Du        
   2619 ****       186.0000  12.7500  50.5000 Du        
   2620 ****       186.0000  12.7500  50.7500 Du        
   2621 ****       186.0000  12.7500  51.0000 Du        
   2622 ****       186.0000  12.7500  51.2500 Du        
   2623 ****       186.0000  12.7500  51.5000 Du        
   2624 ****       186.0000  12.7500  51.7500 Du        
   2625 ****       186.0000  12.7500  52.0000 Du        
   2626 ****       186.0000  12.7500  52.2500 Du        
   2627 ****       186.0000  12.7500  52.5000 Du        
   2628 ****       186.0000  13.0000  50.5000 Du        
   2629 ****       186.0000  13.0000  50.7500 Du        
   2630 ****       186.0000  13.0000  51.0000 Du        
   2631 ****       186.0000  13.0000  51.2500 Du        
   2632 ****       186.0000  13.0000  51.5000 Du        
   2633 ****       186.0000  13.0000  51.7500 Du        
   2634 ****       186.0000  13.0000  52.0000 Du        
   2635 ****       186.0000  13.0000  52.2500 Du        
   2636 ****       186.0000  13.0000  52.5000 Du        
   2637 ****       186.0000  13.2500  50.5000 Du        
   2638 ****       186.0000  13.2500  50.7500 Du        
   2639 ****       186.0000  13.2500  51.0000 Du        
   2640 ****       186.0000  13.2500  51.2500 Du        
   2641 ****       186.0000  13.2500  51.5000 Du        
   2642 ****       186.0000  13.2500  51.7500 Du        
   2643 ****       186.0000  13.2500  52.0000 Du        
   2644 ****       186.0000  13.2500  52.2500 Du        
   2645 ****       186.0000  13.5000  51.0000 Du        
   2646 ****       186.0000  13.5000  51.2500 Du        
   2647 ****       186.0000  13.5000  51.5000 Du        
   2648 ****       186.0000  13.5000  51.7500 Du        
   2649 ****       186.0000  13.5000  52.0000 Du        
   2650 ****       186.0000  13.7500  51.2500 Du        
   2651 ****       186.0000  13.7500  51.5000 Du        
   2652 ****       186.0000  13.7500  51.7500 Du        
   2653 ****       186.0000  13.7500  52.0000 Du        
   2654 ****       186.0000  14.0000  51.7500 Du        
   2655 ****       186.0000  17.2500  50.0000 Du        
   2656 ****       186.0000  17.2500  50.5000 Du        
   2657 ****       186.0000  17.5000  50.5000 Du        
   2658 ****       186.0000  17.7500  49.7500 Du        
   2659 ****       186.0000  17.7500  50.0000 Du        
   2660 ****       186.0000  17.7500  50.2500 Du        
   2661 ****       186.0000  17.7500  50.5000 Du        
   2662 ****       186.0000  18.0000  49.5000 Du        
   2663 ****       186.0000  18.0000  49.7500 Du        
   2664 ****       186.0000  18.0000  50.0000 Du        
   2665 ****       186.0000  18.0000  50.2500 Du        
   2666 ****       186.0000  18.0000  50.5000 Du        
   2667 ****       186.0000  18.2500  49.5000 Du        
   2668 ****       186.0000  18.2500  49.7500 Du        
   2669 ****       186.0000  18.2500  50.0000 Du        
   2670 ****       186.0000  18.2500  50.2500 Du        
   2671 ****       186.0000  18.2500  50.5000 Du        
   2672 ****       186.0000  18.5000  49.5000 Du        
   2673 ****       186.0000  18.5000  49.7500 Du        
   2674 ****       186.0000  18.5000  50.0000 Du        
   2675 ****       186.0000  18.5000  50.2500 Du        
   2676 ****       186.0000  18.5000  50.5000 Du        
   2677 ****       186.0000  18.7500  49.2500 Du        
   2678 ****       186.0000  18.7500  49.5000 Du        
   2679 ****       186.0000  18.7500  49.7500 Du        
   2680 ****       186.0000  18.7500  50.0000 Du        
   2681 ****       186.0000  18.7500  50.2500 Du        
   2682 ****       186.0000  18.7500  50.5000 Du        
   2683 ****       186.0000  19.0000  48.7500 Du        
   2684 ****       186.0000  19.0000  49.0000 Du        
   2685 ****       186.0000  19.0000  49.2500 Du        
   2686 ****       186.0000  19.0000  49.5000 Du        
   2687 ****       186.0000  19.0000  49.7500 Du        
   2688 ****       186.0000  19.0000  50.0000 Du        
   2689 ****       186.0000  19.0000  50.2500 Du        
   2690 ****       186.0000  19.0000  50.5000 Du        
   2691 ****       186.0000  19.2500  48.7500 Du        
   2692 ****       186.0000  19.2500  49.0000 Du        
   2693 ****       186.0000  19.2500  49.2500 Du        
   2694 ****       186.0000  19.2500  49.5000 Du        
   2695 ****       186.0000  19.2500  49.7500 Du        
   2696 ****       186.0000  19.2500  50.0000 Du        
   2697 ****       186.0000  19.2500  50.2500 Du        
   2698 ****       186.0000  19.2500  50.5000 Du        
   2699 ****       186.0000  19.2500  50.7500 Du        
   2700 ****       186.0000  19.5000  48.7500 Du        
   2701 ****       186.0000  19.5000  49.0000 Du        
   2702 ****       186.0000  19.5000  49.2500 Du        
   2703 ****       186.0000  19.5000  49.5000 Du        
   2704 ****       186.0000  19.5000  49.7500 Du        
   2705 ****       186.0000  19.5000  50.0000 Du        
   2706 ****       186.0000  19.5000  50.2500 Du        
   2707 ****       186.0000  19.5000  50.5000 Du        
   2708 ****       186.0000  19.5000  50.7500 Du        
   2709 ****       186.0000  19.7500  48.5000 Du        
   2710 ****       186.0000  19.7500  48.7500 Du        
   2711 ****       186.0000  19.7500  49.0000 Du        
   2712 ****       186.0000  19.7500  49.2500 Du        
   2713 ****       186.0000  19.7500  49.5000 Du        
   2714 ****       186.0000  19.7500  49.7500 Du        
   2715 ****       186.0000  19.7500  50.0000 Du        
   2716 ****       186.0000  19.7500  50.2500 Du        
   2717 ****       186.0000  19.7500  50.5000 Du        
   2718 ****       186.0000  19.7500  50.7500 Du        
   2719 ****       186.0000  20.0000  48.2500 Du        
   2720 ****       186.0000  20.0000  48.5000 Du        
   2721 ****       186.0000  20.0000  48.7500 Du        
   2722 ****       186.0000  20.0000  49.0000 Du        
   2723 ****       186.0000  20.0000  49.2500 Du        
   2724 ****       186.0000  20.0000  49.5000 Du        
   2725 ****       186.0000  20.0000  49.7500 Du        
   2726 ****       186.0000  20.0000  50.0000 Du        
   2727 ****       186.0000  20.0000  50.2500 Du        
   2728 ****       186.0000  20.0000  50.5000 Du        
   2729 ****       186.0000  20.0000  50.7500 Du        
   2730 ****       186.0000  20.2500  48.5000 Du        
   2731 ****       186.0000  20.2500  48.7500 Du        
   2732 ****       186.0000  20.2500  49.0000 Du        
   2733 ****       186.0000  20.2500  49.2500 Du        
   2734 ****       186.0000  20.2500  49.5000 Du        
   2735 ****       186.0000  20.2500  49.7500 Du        
   2736 ****       186.0000  20.2500  50.0000 Du        
   2737 ****       186.0000  20.5000  48.5000 Du        
   2738 ****       186.0000  20.5000  48.7500 Du        
   2739 ****       186.0000  20.5000  49.0000 Du        
   2740 ****       186.0000  20.5000  49.2500 Du        
   2741 ****       186.0000  20.5000  49.5000 Du        
   2742 ****       186.0000  20.7500  48.7500 Du        
   2743 ****       186.0000  20.7500  49.0000 Du        
   2744 ****       186.0000  22.5000  45.5000 Du        
   2745 ****       186.0000  22.5000  45.7500 Du        
   2746 ****       186.0000  22.5000  46.0000 Du        
   2747 ****       186.0000  22.5000  46.2500 Du        
   2748 ****       186.0000  22.7500  45.7500 Du        
   2749 ****       186.0000  22.7500  46.0000 Du        
   2750 ****       186.0000  22.7500  46.2500 Du        
   2751 ****       186.0000  23.0000  46.0000 Du        
   2752 ****       186.2500   6.2500  49.2500 Du        
   2753 ****       186.2500   6.5000  49.2500 Du        
   2754 ****       186.2500   6.5000  49.5000 Du        
   2755 ****       186.2500   6.5000  49.7500 Du        
   2756 ****       186.2500   6.5000  50.0000 Du        
   2757 ****       186.2500   6.7500  49.0000 Du        
   2758 ****       186.2500   6.7500  49.2500 Du        
   2759 ****       186.2500   6.7500  49.5000 Du        
   2760 ****       186.2500   6.7500  49.7500 Du        
   2761 ****       186.2500   6.7500  50.0000 Du        
   2762 ****       186.2500   6.7500  50.2500 Du        
   2763 ****       186.2500   7.0000  49.0000 Du        
   2764 ****       186.2500   7.0000  49.2500 Du        
   2765 ****       186.2500   7.0000  49.5000 Du        
   2766 ****       186.2500   7.0000  49.7500 Du        
   2767 ****       186.2500   7.0000  50.0000 Du        
   2768 ****       186.2500   7.0000  50.2500 Du        
   2769 ****       186.2500   7.0000  50.5000 Du        
   2770 ****       186.2500   7.2500  49.0000 Du        
   2771 ****       186.2500   7.2500  49.2500 Du        
   2772 ****       186.2500   7.2500  49.5000 Du        
   2773 ****       186.2500   7.2500  49.7500 Du        
   2774 ****       186.2500   7.2500  50.0000 Du        
   2775 ****       186.2500   7.2500  50.2500 Du        
   2776 ****       186.2500   7.5000  48.7500 Du        
   2777 ****       186.2500   7.5000  49.0000 Du        
   2778 ****       186.2500   7.5000  49.2500 Du        
   2779 ****       186.2500   7.5000  49.5000 Du        
   2780 ****       186.2500   7.5000  49.7500 Du        
   2781 ****       186.2500   7.5000  50.0000 Du        
   2782 ****       186.2500   7.5000  50.2500 Du        
   2783 ****       186.2500   7.7500  48.7500 Du        
   2784 ****       186.2500   7.7500  49.0000 Du        
   2785 ****       186.2500   7.7500  49.2500 Du        
   2786 ****       186.2500   7.7500  49.5000 Du        
   2787 ****       186.2500   7.7500  49.7500 Du        
   2788 ****       186.2500   7.7500  50.0000 Du        
   2789 ****       186.2500   7.7500  50.2500 Du        
   2790 ****       186.2500   8.0000  48.7500 Du        
   2791 ****       186.2500   8.0000  49.0000 Du        
   2792 ****       186.2500   8.0000  49.2500 Du        
   2793 ****       186.2500   8.0000  49.5000 Du        
   2794 ****       186.2500   8.0000  49.7500 Du        
   2795 ****       186.2500   8.0000  50.0000 Du        
   2796 ****       186.2500   8.0000  50.2500 Du        
   2797 ****       186.2500   8.0000  50.5000 Du        
   2798 ****       186.2500   8.2500  48.7500 Du        
   2799 ****       186.2500   8.2500  49.0000 Du        
   2800 ****       186.2500   8.2500  49.2500 Du        
   2801 ****       186.2500   8.2500  49.5000 Du        
   2802 ****       186.2500   8.2500  49.7500 Du        
   2803 ****       186.2500   8.2500  50.0000 Du        
   2804 ****       186.2500   8.2500  50.2500 Du        
   2805 ****       186.2500   8.2500  50.5000 Du        
   2806 ****       186.2500   8.5000  49.0000 Du        
   2807 ****       186.2500   8.5000  49.2500 Du        
   2808 ****       186.2500   8.5000  49.5000 Du        
   2809 ****       186.2500   8.5000  49.7500 Du        
   2810 ****       186.2500   8.5000  50.0000 Du        
   2811 ****       186.2500   8.5000  50.2500 Du        
   2812 ****       186.2500   8.5000  50.5000 Du        
   2813 ****       186.2500   8.7500  49.0000 Du        
   2814 ****       186.2500   8.7500  49.2500 Du        
   2815 ****       186.2500   8.7500  49.5000 Du        
   2816 ****       186.2500   8.7500  49.7500 Du        
   2817 ****       186.2500   8.7500  50.0000 Du        
   2818 ****       186.2500   8.7500  50.2500 Du        
   2819 ****       186.2500   8.7500  50.5000 Du        
   2820 ****       186.2500   9.0000  49.5000 Du        
   2821 ****       186.2500   9.0000  49.7500 Du        
   2822 ****       186.2500   9.0000  50.0000 Du        
   2823 ****       186.2500   9.0000  50.2500 Du        
   2824 ****       186.2500   9.0000  50.5000 Du        
   2825 ****       186.2500   9.0000  50.7500 Du        
   2826 ****       186.2500   9.2500  49.7500 Du        
   2827 ****       186.2500   9.2500  50.0000 Du        
   2828 ****       186.2500   9.2500  50.2500 Du        
   2829 ****       186.2500   9.2500  50.5000 Du        
   2830 ****       186.2500   9.2500  50.7500 Du        
   2831 ****       186.2500   9.2500  51.0000 Du        
   2832 ****       186.2500   9.5000  50.0000 Du        
   2833 ****       186.2500   9.5000  50.2500 Du        
   2834 ****       186.2500   9.5000  50.5000 Du        
   2835 ****       186.2500   9.5000  50.7500 Du        
   2836 ****       186.2500   9.5000  51.0000 Du        
   2837 ****       186.2500   9.7500  44.5000 Du        
   2838 ****       186.2500   9.7500  44.7500 Du        
   2839 ****       186.2500   9.7500  45.0000 Du        
   2840 ****       186.2500   9.7500  50.0000 Du        
   2841 ****       186.2500   9.7500  50.2500 Du        
   2842 ****       186.2500   9.7500  50.5000 Du        
   2843 ****       186.2500   9.7500  50.7500 Du        
   2844 ****       186.2500   9.7500  51.0000 Du        
   2845 ****       186.2500   9.7500  51.2500 Du        
   2846 ****       186.2500  10.0000  44.2500 Du        
   2847 ****       186.2500  10.0000  44.5000 Du        
   2848 ****       186.2500  10.0000  44.7500 Du        
   2849 ****       186.2500  10.0000  45.0000 Du        
   2850 ****       186.2500  10.0000  45.2500 Du        
   2851 ****       186.2500  10.0000  50.2500 Du        
   2852 ****       186.2500  10.0000  50.5000 Du        
   2853 ****       186.2500  10.0000  50.7500 Du        
   2854 ****       186.2500  10.0000  51.0000 Du        
   2855 ****       186.2500  10.0000  51.2500 Du        
   2856 ****       186.2500  10.0000  51.5000 Du        
   2857 ****       186.2500  10.0000  51.7500 Du        
   2858 ****       186.2500  10.2500  44.5000 Du        
   2859 ****       186.2500  10.2500  44.7500 Du        
   2860 ****       186.2500  10.2500  45.0000 Du        
   2861 ****       186.2500  10.2500  45.2500 Du        
   2862 ****       186.2500  10.2500  50.2500 Du        
   2863 ****       186.2500  10.2500  50.5000 Du        
   2864 ****       186.2500  10.2500  50.7500 Du        
   2865 ****       186.2500  10.2500  51.0000 Du        
   2866 ****       186.2500  10.2500  51.2500 Du        
   2867 ****       186.2500  10.2500  51.5000 Du        
   2868 ****       186.2500  10.2500  51.7500 Du        
   2869 ****       186.2500  10.2500  52.0000 Du        
   2870 ****       186.2500  10.5000  44.7500 Du        
   2871 ****       186.2500  10.5000  45.0000 Du        
   2872 ****       186.2500  10.5000  45.2500 Du        
   2873 ****       186.2500  10.5000  50.5000 Du        
   2874 ****       186.2500  10.5000  50.7500 Du        
   2875 ****       186.2500  10.5000  51.0000 Du        
   2876 ****       186.2500  10.5000  51.2500 Du        
   2877 ****       186.2500  10.5000  51.5000 Du        
   2878 ****       186.2500  10.5000  51.7500 Du        
   2879 ****       186.2500  10.5000  52.0000 Du        
   2880 ****       186.2500  10.5000  52.2500 Du        
   2881 ****       186.2500  10.7500  44.7500 Du        
   2882 ****       186.2500  10.7500  45.0000 Du        
   2883 ****       186.2500  10.7500  45.2500 Du        
   2884 ****       186.2500  10.7500  50.5000 Du        
   2885 ****       186.2500  10.7500  50.7500 Du        
   2886 ****       186.2500  10.7500  51.0000 Du        
   2887 ****       186.2500  10.7500  51.2500 Du        
   2888 ****       186.2500  10.7500  51.5000 Du        
   2889 ****       186.2500  10.7500  51.7500 Du        
   2890 ****       186.2500  10.7500  52.0000 Du        
   2891 ****       186.2500  10.7500  52.2500 Du        
   2892 ****       186.2500  11.0000  44.7500 Du        
   2893 ****       186.2500  11.0000  45.0000 Du        
   2894 ****       186.2500  11.0000  45.2500 Du        
   2895 ****       186.2500  11.0000  45.5000 Du        
   2896 ****       186.2500  11.0000  50.2500 Du        
   2897 ****       186.2500  11.0000  50.5000 Du        
   2898 ****       186.2500  11.0000  50.7500 Du        
   2899 ****       186.2500  11.0000  51.0000 Du        
   2900 ****       186.2500  11.0000  51.2500 Du        
   2901 ****       186.2500  11.0000  51.5000 Du        
   2902 ****       186.2500  11.0000  51.7500 Du        
   2903 ****       186.2500  11.0000  52.0000 Du        
   2904 ****       186.2500  11.0000  52.2500 Du        
   2905 ****       186.2500  11.0000  52.5000 Du        
   2906 ****       186.2500  11.2500  44.7500 Du        
   2907 ****       186.2500  11.2500  45.0000 Du        
   2908 ****       186.2500  11.2500  45.2500 Du        
   2909 ****       186.2500  11.2500  45.5000 Du        
   2910 ****       186.2500  11.2500  50.5000 Du        
   2911 ****       186.2500  11.2500  50.7500 Du        
   2912 ****       186.2500  11.2500  51.0000 Du        
   2913 ****       186.2500  11.2500  51.2500 Du        
   2914 ****       186.2500  11.2500  51.5000 Du        
   2915 ****       186.2500  11.2500  51.7500 Du        
   2916 ****       186.2500  11.2500  52.0000 Du        
   2917 ****       186.2500  11.2500  52.2500 Du        
   2918 ****       186.2500  11.2500  52.5000 Du        
   2919 ****       186.2500  11.2500  52.7500 Du        
   2920 ****       186.2500  11.5000  45.0000 Du        
   2921 ****       186.2500  11.5000  45.2500 Du        
   2922 ****       186.2500  11.5000  50.5000 Du        
   2923 ****       186.2500  11.5000  50.7500 Du        
   2924 ****       186.2500  11.5000  51.0000 Du        
   2925 ****       186.2500  11.5000  51.2500 Du        
   2926 ****       186.2500  11.5000  51.5000 Du        
   2927 ****       186.2500  11.5000  51.7500 Du        
   2928 ****       186.2500  11.5000  52.0000 Du        
   2929 ****       186.2500  11.5000  52.2500 Du        
   2930 ****       186.2500  11.5000  52.5000 Du        
   2931 ****       186.2500  11.5000  52.7500 Du        
   2932 ****       186.2500  11.5000  53.0000 Du        
   2933 ****       186.2500  11.7500  45.0000 Du        
   2934 ****       186.2500  11.7500  45.2500 Du        
   2935 ****       186.2500  11.7500  50.5000 Du        
   2936 ****       186.2500  11.7500  50.7500 Du        
   2937 ****       186.2500  11.7500  51.0000 Du        
   2938 ****       186.2500  11.7500  51.2500 Du        
   2939 ****       186.2500  11.7500  51.5000 Du        
   2940 ****       186.2500  11.7500  51.7500 Du        
   2941 ****       186.2500  11.7500  52.0000 Du        
   2942 ****       186.2500  11.7500  52.2500 Du        
   2943 ****       186.2500  11.7500  52.5000 Du        
   2944 ****       186.2500  11.7500  52.7500 Du        
   2945 ****       186.2500  11.7500  53.0000 Du        
   2946 ****       186.2500  12.0000  45.0000 Du        
   2947 ****       186.2500  12.0000  45.2500 Du        
   2948 ****       186.2500  12.0000  45.5000 Du        
   2949 ****       186.2500  12.0000  50.5000 Du        
   2950 ****       186.2500  12.0000  50.7500 Du        
   2951 ****       186.2500  12.0000  51.0000 Du        
   2952 ****       186.2500  12.0000  51.2500 Du        
   2953 ****       186.2500  12.0000  51.5000 Du        
   2954 ****       186.2500  12.0000  51.7500 Du        
   2955 ****       186.2500  12.0000  52.0000 Du        
   2956 ****       186.2500  12.0000  52.2500 Du        
   2957 ****       186.2500  12.0000  52.5000 Du        
   2958 ****       186.2500  12.0000  52.7500 Du        
   2959 ****       186.2500  12.0000  53.0000 Du        
   2960 ****       186.2500  12.2500  50.5000 Du        
   2961 ****       186.2500  12.2500  50.7500 Du        
   2962 ****       186.2500  12.2500  51.0000 Du        
   2963 ****       186.2500  12.2500  51.2500 Du        
   2964 ****       186.2500  12.2500  51.5000 Du        
   2965 ****       186.2500  12.2500  51.7500 Du        
   2966 ****       186.2500  12.2500  52.0000 Du        
   2967 ****       186.2500  12.2500  52.2500 Du        
   2968 ****       186.2500  12.2500  52.5000 Du        
   2969 ****       186.2500  12.2500  52.7500 Du        
   2970 ****       186.2500  12.2500  53.0000 Du        
   2971 ****       186.2500  12.5000  50.5000 Du        
   2972 ****       186.2500  12.5000  50.7500 Du        
   2973 ****       186.2500  12.5000  51.0000 Du        
   2974 ****       186.2500  12.5000  51.2500 Du        
   2975 ****       186.2500  12.5000  51.5000 Du        
   2976 ****       186.2500  12.5000  51.7500 Du        
   2977 ****       186.2500  12.5000  52.0000 Du        
   2978 ****       186.2500  12.5000  52.2500 Du        
   2979 ****       186.2500  12.5000  52.5000 Du        
   2980 ****       186.2500  12.5000  52.7500 Du        
   2981 ****       186.2500  12.7500  50.5000 Du        
   2982 ****       186.2500  12.7500  50.7500 Du        
   2983 ****       186.2500  12.7500  51.0000 Du        
   2984 ****       186.2500  12.7500  51.2500 Du        
   2985 ****       186.2500  12.7500  51.5000 Du        
   2986 ****       186.2500  12.7500  51.7500 Du        
   2987 ****       186.2500  12.7500  52.0000 Du        
   2988 ****       186.2500  12.7500  52.2500 Du        
   2989 ****       186.2500  12.7500  52.5000 Du        
   2990 ****       186.2500  12.7500  52.7500 Du        
   2991 ****       186.2500  13.0000  50.5000 Du        
   2992 ****       186.2500  13.0000  50.7500 Du        
   2993 ****       186.2500  13.0000  51.0000 Du        
   2994 ****       186.2500  13.0000  51.2500 Du        
   2995 ****       186.2500  13.0000  51.5000 Du        
   2996 ****       186.2500  13.0000  51.7500 Du        
   2997 ****       186.2500  13.0000  52.0000 Du        
   2998 ****       186.2500  13.0000  52.2500 Du        
   2999 ****       186.2500  13.0000  52.5000 Du        
   3000 ****       186.2500  13.2500  50.5000 Du        
   3001 ****       186.2500  13.2500  50.7500 Du        
   3002 ****       186.2500  13.2500  51.0000 Du        
   3003 ****       186.2500  13.2500  51.2500 Du        
   3004 ****       186.2500  13.2500  51.5000 Du        
   3005 ****       186.2500  13.2500  51.7500 Du        
   3006 ****       186.2500  13.2500  52.0000 Du        
   3007 ****       186.2500  13.2500  52.2500 Du        
   3008 ****       186.2500  13.5000  50.5000 Du        
   3009 ****       186.2500  13.5000  50.7500 Du        
   3010 ****       186.2500  13.5000  51.0000 Du        
   3011 ****       186.2500  13.5000  51.2500 Du        
   3012 ****       186.2500  13.5000  51.5000 Du        
   3013 ****       186.2500  13.5000  51.7500 Du        
   3014 ****       186.2500  13.5000  52.0000 Du        
   3015 ****       186.2500  13.5000  52.2500 Du        
   3016 ****       186.2500  13.7500  50.5000 Du        
   3017 ****       186.2500  13.7500  50.7500 Du        
   3018 ****       186.2500  13.7500  51.0000 Du        
   3019 ****       186.2500  13.7500  51.2500 Du        
   3020 ****       186.2500  13.7500  51.5000 Du        
   3021 ****       186.2500  13.7500  51.7500 Du        
   3022 ****       186.2500  13.7500  52.0000 Du        
   3023 ****       186.2500  14.0000  50.5000 Du        
   3024 ****       186.2500  14.0000  50.7500 Du        
   3025 ****       186.2500  14.0000  51.0000 Du        
   3026 ****       186.2500  14.0000  51.2500 Du        
   3027 ****       186.2500  14.0000  51.5000 Du        
   3028 ****       186.2500  14.0000  51.7500 Du        
   3029 ****       186.2500  14.0000  52.0000 Du        
   3030 ****       186.2500  14.2500  50.5000 Du        
   3031 ****       186.2500  14.2500  50.7500 Du        
   3032 ****       186.2500  14.2500  51.0000 Du        
   3033 ****       186.2500  14.2500  51.2500 Du        
   3034 ****       186.2500  14.2500  51.5000 Du        
   3035 ****       186.2500  14.2500  51.7500 Du        
   3036 ****       186.2500  14.5000  50.5000 Du        
   3037 ****       186.2500  14.5000  50.7500 Du        
   3038 ****       186.2500  14.5000  51.0000 Du        
   3039 ****       186.2500  14.5000  51.2500 Du        
   3040 ****       186.2500  14.5000  51.5000 Du        
   3041 ****       186.2500  14.5000  51.7500 Du        
   3042 ****       186.2500  14.7500  50.5000 Du        
   3043 ****       186.2500  14.7500  50.7500 Du        
   3044 ****       186.2500  14.7500  51.0000 Du        
   3045 ****       186.2500  14.7500  51.2500 Du        
   3046 ****       186.2500  14.7500  51.5000 Du        
   3047 ****       186.2500  15.0000  50.5000 Du        
   3048 ****       186.2500  15.0000  50.7500 Du        
   3049 ****       186.2500  15.0000  51.0000 Du        
   3050 ****       186.2500  15.0000  51.2500 Du        
   3051 ****       186.2500  15.0000  51.5000 Du        
   3052 ****       186.2500  15.2500  50.5000 Du        
   3053 ****       186.2500  15.2500  50.7500 Du        
   3054 ****       186.2500  15.2500  51.0000 Du        
   3055 ****       186.2500  15.2500  51.2500 Du        
   3056 ****       186.2500  15.2500  51.5000 Du        
   3057 ****       186.2500  15.5000  50.5000 Du        
   3058 ****       186.2500  15.5000  50.7500 Du        
   3059 ****       186.2500  15.5000  51.0000 Du        
   3060 ****       186.2500  15.5000  51.2500 Du        
   3061 ****       186.2500  15.5000  51.5000 Du        
   3062 ****       186.2500  15.7500  50.7500 Du        
   3063 ****       186.2500  15.7500  51.0000 Du        
   3064 ****       186.2500  15.7500  51.2500 Du        
   3065 ****       186.2500  16.0000  50.5000 Du        
   3066 ****       186.2500  16.0000  50.7500 Du        
   3067 ****       186.2500  16.0000  51.0000 Du        
   3068 ****       186.2500  16.0000  51.2500 Du        
   3069 ****       186.2500  16.2500  50.2500 Du        
   3070 ****       186.2500  16.2500  50.5000 Du        
   3071 ****       186.2500  16.2500  50.7500 Du        
   3072 ****       186.2500  16.5000  50.5000 Du        
   3073 ****       186.2500  16.5000  50.7500 Du        
   3074 ****       186.2500  16.7500  50.0000 Du        
   3075 ****       186.2500  16.7500  50.2500 Du        
   3076 ****       186.2500  16.7500  50.5000 Du        
   3077 ****       186.2500  16.7500  50.7500 Du        
   3078 ****       186.2500  17.0000  50.5000 Du        
   3079 ****       186.2500  17.2500  50.5000 Du        
   3080 ****       186.2500  17.5000  50.0000 Du        
   3081 ****       186.2500  17.5000  50.2500 Du        
   3082 ****       186.2500  17.5000  50.5000 Du        
   3083 ****       186.2500  17.7500  49.7500 Du        
   3084 ****       186.2500  17.7500  50.0000 Du        
   3085 ****       186.2500  17.7500  50.2500 Du        
   3086 ****       186.2500  17.7500  50.5000 Du        
   3087 ****       186.2500  18.0000  49.7500 Du        
   3088 ****       186.2500  18.0000  50.0000 Du        
   3089 ****       186.2500  18.0000  50.2500 Du        
   3090 ****       186.2500  18.2500  49.5000 Du        
   3091 ****       186.2500  18.2500  49.7500 Du        
   3092 ****       186.2500  18.2500  50.0000 Du        
   3093 ****       186.2500  18.2500  50.2500 Du        
   3094 ****       186.2500  18.5000  49.5000 Du        
   3095 ****       186.2500  18.5000  49.7500 Du        
   3096 ****       186.2500  18.5000  50.0000 Du        
   3097 ****       186.2500  18.5000  50.2500 Du        
   3098 ****       186.2500  18.5000  50.5000 Du        
   3099 ****       186.2500  18.7500  49.2500 Du        
   3100 ****       186.2500  18.7500  49.5000 Du        
   3101 ****       186.2500  18.7500  49.7500 Du        
   3102 ****       186.2500  18.7500  50.0000 Du        
   3103 ****       186.2500  18.7500  50.2500 Du        
   3104 ****       186.2500  18.7500  50.5000 Du        
   3105 ****       186.2500  19.0000  49.0000 Du        
   3106 ****       186.2500  19.0000  49.2500 Du        
   3107 ****       186.2500  19.0000  49.5000 Du        
   3108 ****       186.2500  19.0000  49.7500 Du        
   3109 ****       186.2500  19.0000  50.0000 Du        
   3110 ****       186.2500  19.0000  50.2500 Du        
   3111 ****       186.2500  19.0000  50.5000 Du        
   3112 ****       186.2500  19.2500  49.2500 Du        
   3113 ****       186.2500  19.2500  49.5000 Du        
   3114 ****       186.2500  19.2500  49.7500 Du        
   3115 ****       186.2500  19.2500  50.0000 Du        
   3116 ****       186.2500  19.2500  50.2500 Du        
   3117 ****       186.2500  19.2500  50.5000 Du        
   3118 ****       186.2500  19.5000  48.7500 Du        
   3119 ****       186.2500  19.5000  49.0000 Du        
   3120 ****       186.2500  19.5000  49.2500 Du        
   3121 ****       186.2500  19.5000  49.5000 Du        
   3122 ****       186.2500  19.5000  49.7500 Du        
   3123 ****       186.2500  19.5000  50.0000 Du        
   3124 ****       186.2500  19.5000  50.2500 Du        
   3125 ****       186.2500  19.5000  50.5000 Du        
   3126 ****       186.2500  19.5000  50.7500 Du        
   3127 ****       186.2500  19.7500  48.7500 Du        
   3128 ****       186.2500  19.7500  49.0000 Du        
   3129 ****       186.2500  19.7500  49.2500 Du        
   3130 ****       186.2500  19.7500  49.5000 Du        
   3131 ****       186.2500  19.7500  49.7500 Du        
   3132 ****       186.2500  19.7500  50.0000 Du        
   3133 ****       186.2500  19.7500  50.2500 Du        
   3134 ****       186.2500  19.7500  50.5000 Du        
   3135 ****       186.2500  19.7500  50.7500 Du        
   3136 ****       186.2500  20.0000  48.5000 Du        
   3137 ****       186.2500  20.0000  48.7500 Du        
   3138 ****       186.2500  20.0000  49.0000 Du        
   3139 ****       186.2500  20.0000  49.2500 Du        
   3140 ****       186.2500  20.0000  49.5000 Du        
   3141 ****       186.2500  20.0000  49.7500 Du        
   3142 ****       186.2500  20.0000  50.0000 Du        
   3143 ****       186.2500  20.0000  50.2500 Du        
   3144 ****       186.2500  20.0000  50.5000 Du        
   3145 ****       186.2500  20.0000  50.7500 Du        
   3146 ****       186.2500  20.0000  51.0000 Du        
   3147 ****       186.2500  20.2500  48.5000 Du        
   3148 ****       186.2500  20.2500  48.7500 Du        
   3149 ****       186.2500  20.2500  49.0000 Du        
   3150 ****       186.2500  20.2500  49.2500 Du        
   3151 ****       186.2500  20.2500  49.5000 Du        
   3152 ****       186.2500  20.2500  49.7500 Du        
   3153 ****       186.2500  20.2500  50.0000 Du        
   3154 ****       186.2500  20.2500  50.2500 Du        
   3155 ****       186.2500  20.2500  50.5000 Du        
   3156 ****       186.2500  20.2500  50.7500 Du        
   3157 ****       186.2500  20.2500  51.0000 Du        
   3158 ****       186.2500  20.5000  48.5000 Du        
   3159 ****       186.2500  20.5000  48.7500 Du        
   3160 ****       186.2500  20.5000  49.0000 Du        
   3161 ****       186.2500  20.5000  49.2500 Du        
   3162 ****       186.2500  20.5000  49.5000 Du        
   3163 ****       186.2500  20.5000  49.7500 Du        
   3164 ****       186.2500  20.5000  50.0000 Du        
   3165 ****       186.2500  20.5000  50.2500 Du        
   3166 ****       186.2500  20.5000  50.5000 Du        
   3167 ****       186.2500  20.5000  50.7500 Du        
   3168 ****       186.2500  20.5000  51.0000 Du        
   3169 ****       186.2500  20.7500  49.0000 Du        
   3170 ****       186.2500  20.7500  49.2500 Du        
   3171 ****       186.2500  20.7500  49.5000 Du        
   3172 ****       186.2500  20.7500  49.7500 Du        
   3173 ****       186.2500  20.7500  50.0000 Du        
   3174 ****       186.2500  22.7500  45.7500 Du        
   3175 ****       186.2500  22.7500  46.0000 Du        
   3176 ****       186.5000   6.2500  49.2500 Du        
   3177 ****       186.5000   6.2500  49.5000 Du        
   3178 ****       186.5000   6.2500  49.7500 Du        
   3179 ****       186.5000   6.5000  49.2500 Du        
   3180 ****       186.5000   6.5000  49.5000 Du        
   3181 ****       186.5000   6.5000  49.7500 Du        
   3182 ****       186.5000   6.5000  50.0000 Du        
   3183 ****       186.5000   6.5000  50.2500 Du        
   3184 ****       186.5000   6.7500  49.2500 Du        
   3185 ****       186.5000   6.7500  49.5000 Du        
   3186 ****       186.5000   6.7500  49.7500 Du        
   3187 ****       186.5000   6.7500  50.0000 Du        
   3188 ****       186.5000   6.7500  50.2500 Du        
   3189 ****       186.5000   7.0000  49.0000 Du        
   3190 ****       186.5000   7.0000  49.2500 Du        
   3191 ****       186.5000   7.0000  49.5000 Du        
   3192 ****       186.5000   7.0000  49.7500 Du        
   3193 ****       186.5000   7.0000  50.0000 Du        
   3194 ****       186.5000   7.0000  50.2500 Du        
   3195 ****       186.5000   7.2500  49.0000 Du        
   3196 ****       186.5000   7.2500  49.2500 Du        
   3197 ****       186.5000   7.2500  49.5000 Du        
   3198 ****       186.5000   7.2500  49.7500 Du        
   3199 ****       186.5000   7.2500  50.0000 Du        
   3200 ****       186.5000   7.2500  50.2500 Du        
   3201 ****       186.5000   7.5000  49.0000 Du        
   3202 ****       186.5000   7.5000  49.2500 Du        
   3203 ****       186.5000   7.5000  49.5000 Du        
   3204 ****       186.5000   7.5000  49.7500 Du        
   3205 ****       186.5000   7.5000  50.0000 Du        
   3206 ****       186.5000   7.5000  50.2500 Du        
   3207 ****       186.5000   7.7500  49.0000 Du        
   3208 ****       186.5000   7.7500  49.2500 Du        
   3209 ****       186.5000   7.7500  49.5000 Du        
   3210 ****       186.5000   7.7500  49.7500 Du        
   3211 ****       186.5000   7.7500  50.0000 Du        
   3212 ****       186.5000   7.7500  50.2500 Du        
   3213 ****       186.5000   8.0000  48.7500 Du        
   3214 ****       186.5000   8.0000  49.0000 Du        
   3215 ****       186.5000   8.0000  49.2500 Du        
   3216 ****       186.5000   8.0000  49.5000 Du        
   3217 ****       186.5000   8.0000  49.7500 Du        
   3218 ****       186.5000   8.0000  50.0000 Du        
   3219 ****       186.5000   8.0000  50.2500 Du        
   3220 ****       186.5000   8.2500  48.7500 Du        
   3221 ****       186.5000   8.2500  49.0000 Du        
   3222 ****       186.5000   8.2500  49.2500 Du        
   3223 ****       186.5000   8.2500  49.5000 Du        
   3224 ****       186.5000   8.2500  49.7500 Du        
   3225 ****       186.5000   8.2500  50.0000 Du        
   3226 ****       186.5000   8.2500  50.2500 Du        
   3227 ****       186.5000   8.5000  49.0000 Du        
   3228 ****       186.5000   8.5000  49.2500 Du        
   3229 ****       186.5000   8.5000  49.5000 Du        
   3230 ****       186.5000   8.5000  49.7500 Du        
   3231 ****       186.5000   8.5000  50.0000 Du        
   3232 ****       186.5000   8.5000  50.2500 Du        
   3233 ****       186.5000   8.7500  49.2500 Du        
   3234 ****       186.5000   8.7500  49.5000 Du        
   3235 ****       186.5000   8.7500  49.7500 Du        
   3236 ****       186.5000   8.7500  50.0000 Du        
   3237 ****       186.5000   8.7500  50.2500 Du        
   3238 ****       186.5000   8.7500  50.5000 Du        
   3239 ****       186.5000   9.0000  49.5000 Du        
   3240 ****       186.5000   9.0000  49.7500 Du        
   3241 ****       186.5000   9.0000  50.0000 Du        
   3242 ****       186.5000   9.0000  50.2500 Du        
   3243 ****       186.5000   9.0000  50.5000 Du        
   3244 ****       186.5000   9.2500  49.5000 Du        
   3245 ****       186.5000   9.2500  49.7500 Du        
   3246 ****       186.5000   9.2500  50.0000 Du        
   3247 ****       186.5000   9.2500  50.2500 Du        
   3248 ****       186.5000   9.2500  50.5000 Du        
   3249 ****       186.5000   9.2500  50.7500 Du        
   3250 ****       186.5000   9.5000  44.7500 Du        
   3251 ****       186.5000   9.5000  45.0000 Du        
   3252 ****       186.5000   9.5000  45.2500 Du        
   3253 ****       186.5000   9.5000  50.0000 Du        
   3254 ****       186.5000   9.5000  50.2500 Du        
   3255 ****       186.5000   9.5000  50.5000 Du        
   3256 ****       186.5000   9.5000  50.7500 Du        
   3257 ****       186.5000   9.5000  51.0000 Du        
   3258 ****       186.5000   9.7500  44.2500 Du        
   3259 ****       186.5000   9.7500  44.5000 Du        
   3260 ****       186.5000   9.7500  44.7500 Du        
   3261 ****       186.5000   9.7500  45.0000 Du        
   3262 ****       186.5000   9.7500  45.2500 Du        
   3263 ****       186.5000   9.7500  45.5000 Du        
   3264 ****       186.5000   9.7500  45.7500 Du        
   3265 ****       186.5000   9.7500  50.5000 Du        
   3266 ****       186.5000   9.7500  50.7500 Du        
   3267 ****       186.5000   9.7500  51.0000 Du        
   3268 ****       186.5000   9.7500  51.2500 Du        
   3269 ****       186.5000  10.0000  44.2500 Du        
   3270 ****       186.5000  10.0000  44.5000 Du        
   3271 ****       186.5000  10.0000  44.7500 Du        
   3272 ****       186.5000  10.0000  45.0000 Du        
   3273 ****       186.5000  10.0000  45.2500 Du        
   3274 ****       186.5000  10.0000  45.5000 Du        
   3275 ****       186.5000  10.0000  45.7500 Du        
   3276 ****       186.5000  10.0000  50.5000 Du        
   3277 ****       186.5000  10.0000  50.7500 Du        
   3278 ****       186.5000  10.0000  51.0000 Du        
   3279 ****       186.5000  10.0000  51.2500 Du        
   3280 ****       186.5000  10.0000  51.5000 Du        
   3281 ****       186.5000  10.2500  44.2500 Du        
   3282 ****       186.5000  10.2500  44.5000 Du        
   3283 ****       186.5000  10.2500  44.7500 Du        
   3284 ****       186.5000  10.2500  45.0000 Du        
   3285 ****       186.5000  10.2500  45.2500 Du        
   3286 ****       186.5000  10.2500  45.5000 Du        
   3287 ****       186.5000  10.2500  45.7500 Du        
   3288 ****       186.5000  10.2500  50.5000 Du        
   3289 ****       186.5000  10.2500  50.7500 Du        
   3290 ****       186.5000  10.2500  51.0000 Du        
   3291 ****       186.5000  10.2500  51.2500 Du        
   3292 ****       186.5000  10.2500  51.5000 Du        
   3293 ****       186.5000  10.2500  51.7500 Du        
   3294 ****       186.5000  10.5000  44.2500 Du        
   3295 ****       186.5000  10.5000  44.5000 Du        
   3296 ****       186.5000  10.5000  44.7500 Du        
   3297 ****       186.5000  10.5000  45.0000 Du        
   3298 ****       186.5000  10.5000  45.2500 Du        
   3299 ****       186.5000  10.5000  45.5000 Du        
   3300 ****       186.5000  10.5000  45.7500 Du        
   3301 ****       186.5000  10.5000  50.7500 Du        
   3302 ****       186.5000  10.5000  51.0000 Du        
   3303 ****       186.5000  10.5000  51.2500 Du        
   3304 ****       186.5000  10.5000  51.5000 Du        
   3305 ****       186.5000  10.5000  51.7500 Du        
   3306 ****       186.5000  10.5000  52.0000 Du        
   3307 ****       186.5000  10.7500  44.5000 Du        
   3308 ****       186.5000  10.7500  44.7500 Du        
   3309 ****       186.5000  10.7500  45.0000 Du        
   3310 ****       186.5000  10.7500  45.2500 Du        
   3311 ****       186.5000  10.7500  45.5000 Du        
   3312 ****       186.5000  10.7500  45.7500 Du        
   3313 ****       186.5000  10.7500  50.7500 Du        
   3314 ****       186.5000  10.7500  51.0000 Du        
   3315 ****       186.5000  10.7500  51.2500 Du        
   3316 ****       186.5000  10.7500  51.5000 Du        
   3317 ****       186.5000  10.7500  51.7500 Du        
   3318 ****       186.5000  10.7500  52.0000 Du        
   3319 ****       186.5000  10.7500  52.2500 Du        
   3320 ****       186.5000  11.0000  44.7500 Du        
   3321 ****       186.5000  11.0000  45.0000 Du        
   3322 ****       186.5000  11.0000  45.2500 Du        
   3323 ****       186.5000  11.0000  45.5000 Du        
   3324 ****       186.5000  11.0000  45.7500 Du        
   3325 ****       186.5000  11.0000  50.7500 Du        
   3326 ****       186.5000  11.0000  51.0000 Du        
   3327 ****       186.5000  11.0000  51.2500 Du        
   3328 ****       186.5000  11.0000  51.5000 Du        
   3329 ****       186.5000  11.0000  51.7500 Du        
   3330 ****       186.5000  11.0000  52.0000 Du        
   3331 ****       186.5000  11.0000  52.2500 Du        
   3332 ****       186.5000  11.0000  52.5000 Du        
   3333 ****       186.5000  11.2500  44.7500 Du        
   3334 ****       186.5000  11.2500  45.0000 Du        
   3335 ****       186.5000  11.2500  45.2500 Du        
   3336 ****       186.5000  11.2500  45.5000 Du        
   3337 ****       186.5000  11.2500  45.7500 Du        
   3338 ****       186.5000  11.2500  51.0000 Du        
   3339 ****       186.5000  11.2500  51.2500 Du        
   3340 ****       186.5000  11.2500  51.5000 Du        
   3341 ****       186.5000  11.2500  51.7500 Du        
   3342 ****       186.5000  11.2500  52.0000 Du        
   3343 ****       186.5000  11.2500  52.2500 Du        
   3344 ****       186.5000  11.2500  52.5000 Du        
   3345 ****       186.5000  11.2500  52.7500 Du        
   3346 ****       186.5000  11.5000  45.0000 Du        
   3347 ****       186.5000  11.5000  45.2500 Du        
   3348 ****       186.5000  11.5000  50.7500 Du        
   3349 ****       186.5000  11.5000  51.0000 Du        
   3350 ****       186.5000  11.5000  51.2500 Du        
   3351 ****       186.5000  11.5000  51.5000 Du        
   3352 ****       186.5000  11.5000  51.7500 Du        
   3353 ****       186.5000  11.5000  52.0000 Du        
   3354 ****       186.5000  11.5000  52.2500 Du        
   3355 ****       186.5000  11.5000  52.5000 Du        
   3356 ****       186.5000  11.5000  52.7500 Du        
   3357 ****       186.5000  11.5000  53.0000 Du        
   3358 ****       186.5000  11.7500  50.7500 Du        
   3359 ****       186.5000  11.7500  51.0000 Du        
   3360 ****       186.5000  11.7500  51.2500 Du        
   3361 ****       186.5000  11.7500  51.5000 Du        
   3362 ****       186.5000  11.7500  51.7500 Du        
   3363 ****       186.5000  11.7500  52.0000 Du        
   3364 ****       186.5000  11.7500  52.2500 Du        
   3365 ****       186.5000  11.7500  52.5000 Du        
   3366 ****       186.5000  11.7500  52.7500 Du        
   3367 ****       186.5000  11.7500  53.0000 Du        
   3368 ****       186.5000  12.0000  50.7500 Du        
   3369 ****       186.5000  12.0000  51.0000 Du        
   3370 ****       186.5000  12.0000  51.2500 Du        
   3371 ****       186.5000  12.0000  51.5000 Du        
   3372 ****       186.5000  12.0000  51.7500 Du        
   3373 ****       186.5000  12.0000  52.0000 Du        
   3374 ****       186.5000  12.0000  52.2500 Du        
   3375 ****       186.5000  12.0000  52.5000 Du        
   3376 ****       186.5000  12.0000  52.7500 Du        
   3377 ****       186.5000  12.0000  53.0000 Du        
   3378 ****       186.5000  12.2500  50.7500 Du        
   3379 ****       186.5000  12.2500  51.0000 Du        
   3380 ****       186.5000  12.2500  51.2500 Du        
   3381 ****       186.5000  12.2500  51.5000 Du        
   3382 ****       186.5000  12.2500  51.7500 Du        
   3383 ****       186.5000  12.2500  52.0000 Du        
   3384 ****       186.5000  12.2500  52.2500 Du        
   3385 ****       186.5000  12.2500  52.5000 Du        
   3386 ****       186.5000  12.2500  52.7500 Du        
   3387 ****       186.5000  12.2500  53.0000 Du        
   3388 ****       186.5000  12.5000  50.7500 Du        
   3389 ****       186.5000  12.5000  51.0000 Du        
   3390 ****       186.5000  12.5000  51.2500 Du        
   3391 ****       186.5000  12.5000  51.5000 Du        
   3392 ****       186.5000  12.5000  51.7500 Du        
   3393 ****       186.5000  12.5000  52.0000 Du        
   3394 ****       186.5000  12.5000  52.2500 Du        
   3395 ****       186.5000  12.5000  52.5000 Du        
   3396 ****       186.5000  12.5000  52.7500 Du        
   3397 ****       186.5000  12.7500  50.7500 Du        
   3398 ****       186.5000  12.7500  51.0000 Du        
   3399 ****       186.5000  12.7500  51.2500 Du        
   3400 ****       186.5000  12.7500  51.5000 Du        
   3401 ****       186.5000  12.7500  51.7500 Du        
   3402 ****       186.5000  12.7500  52.0000 Du        
   3403 ****       186.5000  12.7500  52.2500 Du        
   3404 ****       186.5000  12.7500  52.5000 Du        
   3405 ****       186.5000  12.7500  52.7500 Du        
   3406 ****       186.5000  13.0000  50.7500 Du        
   3407 ****       186.5000  13.0000  51.0000 Du        
   3408 ****       186.5000  13.0000  51.2500 Du        
   3409 ****       186.5000  13.0000  51.5000 Du        
   3410 ****       186.5000  13.0000  51.7500 Du        
   3411 ****       186.5000  13.0000  52.0000 Du        
   3412 ****       186.5000  13.0000  52.2500 Du        
   3413 ****       186.5000  13.0000  52.5000 Du        
   3414 ****       186.5000  13.2500  50.5000 Du        
   3415 ****       186.5000  13.2500  50.7500 Du        
   3416 ****       186.5000  13.2500  51.0000 Du        
   3417 ****       186.5000  13.2500  51.2500 Du        
   3418 ****       186.5000  13.2500  51.5000 Du        
   3419 ****       186.5000  13.2500  51.7500 Du        
   3420 ****       186.5000  13.2500  52.0000 Du        
   3421 ****       186.5000  13.2500  52.2500 Du        
   3422 ****       186.5000  13.5000  50.5000 Du        
   3423 ****       186.5000  13.5000  50.7500 Du        
   3424 ****       186.5000  13.5000  51.0000 Du        
   3425 ****       186.5000  13.5000  51.2500 Du        
   3426 ****       186.5000  13.5000  51.5000 Du        
   3427 ****       186.5000  13.5000  51.7500 Du        
   3428 ****       186.5000  13.5000  52.0000 Du        
   3429 ****       186.5000  13.5000  52.2500 Du        
   3430 ****       186.5000  13.7500  50.5000 Du        
   3431 ****       186.5000  13.7500  50.7500 Du        
   3432 ****       186.5000  13.7500  51.0000 Du        
   3433 ****       186.5000  13.7500  51.2500 Du        
   3434 ****       186.5000  13.7500  51.5000 Du        
   3435 ****       186.5000  13.7500  51.7500 Du        
   3436 ****       186.5000  13.7500  52.0000 Du        
   3437 ****       186.5000  14.0000  50.5000 Du        
   3438 ****       186.5000  14.0000  50.7500 Du        
   3439 ****       186.5000  14.0000  51.0000 Du        
   3440 ****       186.5000  14.0000  51.2500 Du        
   3441 ****       186.5000  14.0000  51.5000 Du        
   3442 ****       186.5000  14.0000  51.7500 Du        
   3443 ****       186.5000  14.0000  52.0000 Du        
   3444 ****       186.5000  14.2500  50.5000 Du        
   3445 ****       186.5000  14.2500  50.7500 Du        
   3446 ****       186.5000  14.2500  51.0000 Du        
   3447 ****       186.5000  14.2500  51.2500 Du        
   3448 ****       186.5000  14.2500  51.5000 Du        
   3449 ****       186.5000  14.2500  51.7500 Du        
   3450 ****       186.5000  14.5000  50.5000 Du        
   3451 ****       186.5000  14.5000  50.7500 Du        
   3452 ****       186.5000  14.5000  51.0000 Du        
   3453 ****       186.5000  14.5000  51.2500 Du        
   3454 ****       186.5000  14.5000  51.5000 Du        
   3455 ****       186.5000  14.5000  51.7500 Du        
   3456 ****       186.5000  14.7500  50.5000 Du        
   3457 ****       186.5000  14.7500  50.7500 Du        
   3458 ****       186.5000  14.7500  51.0000 Du        
   3459 ****       186.5000  14.7500  51.2500 Du        
   3460 ****       186.5000  14.7500  51.5000 Du        
   3461 ****       186.5000  14.7500  51.7500 Du        
   3462 ****       186.5000  15.0000  50.5000 Du        
   3463 ****       186.5000  15.0000  50.7500 Du        
   3464 ****       186.5000  15.0000  51.0000 Du        
   3465 ****       186.5000  15.0000  51.2500 Du        
   3466 ****       186.5000  15.0000  51.5000 Du        
   3467 ****       186.5000  15.2500  50.5000 Du        
   3468 ****       186.5000  15.2500  50.7500 Du        
   3469 ****       186.5000  15.2500  51.0000 Du        
   3470 ****       186.5000  15.2500  51.2500 Du        
   3471 ****       186.5000  15.2500  51.5000 Du        
   3472 ****       186.5000  15.5000  50.5000 Du        
   3473 ****       186.5000  15.5000  50.7500 Du        
   3474 ****       186.5000  15.5000  51.0000 Du        
   3475 ****       186.5000  15.5000  51.2500 Du        
   3476 ****       186.5000  15.5000  51.5000 Du        
   3477 ****       186.5000  15.7500  50.5000 Du        
   3478 ****       186.5000  15.7500  50.7500 Du        
   3479 ****       186.5000  15.7500  51.0000 Du        
   3480 ****       186.5000  15.7500  51.2500 Du        
   3481 ****       186.5000  16.0000  50.5000 Du        
   3482 ****       186.5000  16.0000  50.7500 Du        
   3483 ****       186.5000  16.0000  51.0000 Du        
   3484 ****       186.5000  16.2500  50.5000 Du        
   3485 ****       186.5000  16.2500  50.7500 Du        
   3486 ****       186.5000  16.5000  50.5000 Du        
   3487 ****       186.5000  16.7500  50.2500 Du        
   3488 ****       186.5000  16.7500  50.5000 Du        
   3489 ****       186.5000  17.0000  50.2500 Du        
   3490 ****       186.5000  18.0000  50.0000 Du        
   3491 ****       186.5000  18.2500  49.7500 Du        
   3492 ****       186.5000  18.2500  50.0000 Du        
   3493 ****       186.5000  18.5000  49.5000 Du        
   3494 ****       186.5000  18.5000  49.7500 Du        
   3495 ****       186.5000  18.5000  50.0000 Du        
   3496 ****       186.5000  18.7500  49.5000 Du        
   3497 ****       186.5000  18.7500  49.7500 Du        
   3498 ****       186.5000  18.7500  50.0000 Du        
   3499 ****       186.5000  18.7500  50.2500 Du        
   3500 ****       186.5000  19.0000  49.5000 Du        
   3501 ****       186.5000  19.0000  49.7500 Du        
   3502 ****       186.5000  19.0000  50.0000 Du        
   3503 ****       186.5000  19.0000  50.2500 Du        
   3504 ****       186.5000  19.2500  49.2500 Du        
   3505 ****       186.5000  19.2500  49.5000 Du        
   3506 ****       186.5000  19.2500  49.7500 Du        
   3507 ****       186.5000  19.2500  50.0000 Du        
   3508 ****       186.5000  19.2500  50.2500 Du        
   3509 ****       186.5000  19.2500  50.5000 Du        
   3510 ****       186.5000  19.5000  49.2500 Du        
   3511 ****       186.5000  19.5000  49.5000 Du        
   3512 ****       186.5000  19.5000  49.7500 Du        
   3513 ****       186.5000  19.5000  50.0000 Du        
   3514 ****       186.5000  19.5000  50.2500 Du        
   3515 ****       186.5000  19.5000  50.5000 Du        
   3516 ****       186.5000  19.7500  49.0000 Du        
   3517 ****       186.5000  19.7500  49.2500 Du        
   3518 ****       186.5000  19.7500  49.5000 Du        
   3519 ****       186.5000  19.7500  49.7500 Du        
   3520 ****       186.5000  19.7500  50.0000 Du        
   3521 ****       186.5000  19.7500  50.2500 Du        
   3522 ****       186.5000  19.7500  50.5000 Du        
   3523 ****       186.5000  19.7500  50.7500 Du        
   3524 ****       186.5000  20.0000  49.0000 Du        
   3525 ****       186.5000  20.0000  49.2500 Du        
   3526 ****       186.5000  20.0000  49.5000 Du        
   3527 ****       186.5000  20.0000  49.7500 Du        
   3528 ****       186.5000  20.0000  50.0000 Du        
   3529 ****       186.5000  20.0000  50.2500 Du        
   3530 ****       186.5000  20.0000  50.5000 Du        
   3531 ****       186.5000  20.0000  50.7500 Du        
   3532 ****       186.5000  20.0000  51.0000 Du        
   3533 ****       186.5000  20.2500  48.7500 Du        
   3534 ****       186.5000  20.2500  49.0000 Du        
   3535 ****       186.5000  20.2500  49.2500 Du        
   3536 ****       186.5000  20.2500  49.5000 Du        
   3537 ****       186.5000  20.2500  49.7500 Du        
   3538 ****       186.5000  20.2500  50.0000 Du        
   3539 ****       186.5000  20.2500  50.2500 Du        
   3540 ****       186.5000  20.2500  50.5000 Du        
   3541 ****       186.5000  20.2500  50.7500 Du        
   3542 ****       186.5000  20.2500  51.0000 Du        
   3543 ****       186.5000  20.5000  49.0000 Du        
   3544 ****       186.5000  20.5000  49.2500 Du        
   3545 ****       186.5000  20.5000  49.5000 Du        
   3546 ****       186.5000  20.5000  49.7500 Du        
   3547 ****       186.5000  20.5000  50.0000 Du        
   3548 ****       186.5000  20.5000  50.2500 Du        
   3549 ****       186.5000  20.5000  50.5000 Du        
   3550 ****       186.5000  20.5000  50.7500 Du        
   3551 ****       186.5000  20.5000  51.0000 Du        
   3552 ****       186.5000  20.5000  51.2500 Du        
   3553 ****       186.5000  20.7500  49.5000 Du        
   3554 ****       186.5000  20.7500  49.7500 Du        
   3555 ****       186.5000  20.7500  50.0000 Du        
   3556 ****       186.5000  20.7500  50.2500 Du        
   3557 ****       186.5000  20.7500  50.5000 Du        
   3558 ****       186.5000  20.7500  50.7500 Du        
   3559 ****       186.5000  20.7500  51.0000 Du        
   3560 ****       186.5000  20.7500  51.2500 Du        
   3561 ****       186.5000  20.7500  51.5000 Du        
   3562 ****       186.5000  21.0000  50.0000 Du        
   3563 ****       186.5000  21.0000  50.2500 Du        
   3564 ****       186.5000  21.0000  50.5000 Du        
   3565 ****       186.5000  21.0000  50.7500 Du        
   3566 ****       186.5000  21.0000  51.0000 Du        
   3567 ****       186.5000  21.0000  51.2500 Du        
   3568 ****       186.7500   6.0000  49.5000 Du        
   3569 ****       186.7500   6.0000  49.7500 Du        
   3570 ****       186.7500   6.2500  49.2500 Du        
   3571 ****       186.7500   6.2500  49.5000 Du        
   3572 ****       186.7500   6.2500  49.7500 Du        
   3573 ****       186.7500   6.2500  50.0000 Du        
   3574 ****       186.7500   6.2500  50.2500 Du        
   3575 ****       186.7500   6.5000  49.2500 Du        
   3576 ****       186.7500   6.5000  49.5000 Du        
   3577 ****       186.7500   6.5000  49.7500 Du        
   3578 ****       186.7500   6.5000  50.0000 Du        
   3579 ****       186.7500   6.5000  50.2500 Du        
   3580 ****       186.7500   6.7500  49.2500 Du        
   3581 ****       186.7500   6.7500  49.5000 Du        
   3582 ****       186.7500   6.7500  49.7500 Du        
   3583 ****       186.7500   6.7500  50.0000 Du        
   3584 ****       186.7500   6.7500  50.2500 Du        
   3585 ****       186.7500   7.0000  49.2500 Du        
   3586 ****       186.7500   7.0000  49.5000 Du        
   3587 ****       186.7500   7.0000  49.7500 Du        
   3588 ****       186.7500   7.0000  50.0000 Du        
   3589 ****       186.7500   7.0000  50.2500 Du        
   3590 ****       186.7500   7.2500  49.0000 Du        
   3591 ****       186.7500   7.2500  49.2500 Du        
   3592 ****       186.7500   7.2500  49.5000 Du        
   3593 ****       186.7500   7.2500  49.7500 Du        
   3594 ****       186.7500   7.2500  50.0000 Du        
   3595 ****       186.7500   7.2500  50.2500 Du        
   3596 ****       186.7500   7.5000  49.0000 Du        
   3597 ****       186.7500   7.5000  49.2500 Du        
   3598 ****       186.7500   7.5000  49.5000 Du        
   3599 ****       186.7500   7.5000  49.7500 Du        
   3600 ****       186.7500   7.5000  50.0000 Du        
   3601 ****       186.7500   7.5000  50.2500 Du        
   3602 ****       186.7500   7.7500  49.0000 Du        
   3603 ****       186.7500   7.7500  49.2500 Du        
   3604 ****       186.7500   7.7500  49.5000 Du        
   3605 ****       186.7500   7.7500  49.7500 Du        
   3606 ****       186.7500   7.7500  50.0000 Du        
   3607 ****       186.7500   7.7500  50.2500 Du        
   3608 ****       186.7500   8.0000  48.7500 Du        
   3609 ****       186.7500   8.0000  49.0000 Du        
   3610 ****       186.7500   8.0000  49.2500 Du        
   3611 ****       186.7500   8.0000  49.5000 Du        
   3612 ****       186.7500   8.0000  49.7500 Du        
   3613 ****       186.7500   8.0000  50.0000 Du        
   3614 ****       186.7500   8.0000  50.2500 Du        
   3615 ****       186.7500   8.2500  48.7500 Du        
   3616 ****       186.7500   8.2500  49.0000 Du        
   3617 ****       186.7500   8.2500  49.2500 Du        
   3618 ****       186.7500   8.2500  49.5000 Du        
   3619 ****       186.7500   8.2500  49.7500 Du        
   3620 ****       186.7500   8.2500  50.0000 Du        
   3621 ****       186.7500   8.2500  50.2500 Du        
   3622 ****       186.7500   8.5000  49.0000 Du        
   3623 ****       186.7500   8.5000  49.2500 Du        
   3624 ****       186.7500   8.5000  49.5000 Du        
   3625 ****       186.7500   8.5000  49.7500 Du        
   3626 ****       186.7500   8.5000  50.0000 Du        
   3627 ****       186.7500   8.5000  50.2500 Du        
   3628 ****       186.7500   8.7500  48.7500 Du        
   3629 ****       186.7500   8.7500  49.0000 Du        
   3630 ****       186.7500   8.7500  49.2500 Du        
   3631 ****       186.7500   8.7500  49.5000 Du        
   3632 ****       186.7500   8.7500  49.7500 Du        
   3633 ****       186.7500   8.7500  50.0000 Du        
   3634 ****       186.7500   8.7500  50.2500 Du        
   3635 ****       186.7500   9.0000  48.7500 Du        
   3636 ****       186.7500   9.0000  49.0000 Du        
   3637 ****       186.7500   9.0000  49.2500 Du        
   3638 ****       186.7500   9.0000  49.5000 Du        
   3639 ****       186.7500   9.0000  49.7500 Du        
   3640 ****       186.7500   9.0000  50.0000 Du        
   3641 ****       186.7500   9.0000  50.2500 Du        
   3642 ****       186.7500   9.0000  50.5000 Du        
   3643 ****       186.7500   9.2500  49.0000 Du        
   3644 ****       186.7500   9.2500  49.2500 Du        
   3645 ****       186.7500   9.2500  49.5000 Du        
   3646 ****       186.7500   9.2500  49.7500 Du        
   3647 ****       186.7500   9.2500  50.0000 Du        
   3648 ****       186.7500   9.2500  50.2500 Du        
   3649 ****       186.7500   9.2500  50.5000 Du        
   3650 ****       186.7500   9.5000  45.0000 Du        
   3651 ****       186.7500   9.5000  45.2500 Du        
   3652 ****       186.7500   9.5000  50.0000 Du        
   3653 ****       186.7500   9.5000  50.5000 Du        
   3654 ****       186.7500   9.5000  50.7500 Du        
   3655 ****       186.7500   9.7500  44.2500 Du        
   3656 ****       186.7500   9.7500  44.5000 Du        
   3657 ****       186.7500   9.7500  44.7500 Du        
   3658 ****       186.7500   9.7500  45.0000 Du        
   3659 ****       186.7500   9.7500  45.2500 Du        
   3660 ****       186.7500   9.7500  45.5000 Du        
   3661 ****       186.7500   9.7500  45.7500 Du        
   3662 ****       186.7500   9.7500  46.0000 Du        
   3663 ****       186.7500   9.7500  50.5000 Du        
   3664 ****       186.7500   9.7500  50.7500 Du        
   3665 ****       186.7500   9.7500  51.0000 Du        
   3666 ****       186.7500  10.0000  44.0000 Du        
   3667 ****       186.7500  10.0000  44.2500 Du        
   3668 ****       186.7500  10.0000  44.5000 Du        
   3669 ****       186.7500  10.0000  44.7500 Du        
   3670 ****       186.7500  10.0000  45.0000 Du        
   3671 ****       186.7500  10.0000  45.2500 Du        
   3672 ****       186.7500  10.0000  45.5000 Du        
   3673 ****       186.7500  10.0000  45.7500 Du        
   3674 ****       186.7500  10.0000  46.0000 Du        
   3675 ****       186.7500  10.0000  46.2500 Du        
   3676 ****       186.7500  10.0000  50.5000 Du        
   3677 ****       186.7500  10.0000  50.7500 Du        
   3678 ****       186.7500  10.0000  51.0000 Du        
   3679 ****       186.7500  10.0000  51.2500 Du        
   3680 ****       186.7500  10.2500  44.0000 Du        
   3681 ****       186.7500  10.2500  44.2500 Du        
   3682 ****       186.7500  10.2500  44.5000 Du        
   3683 ****       186.7500  10.2500  44.7500 Du        
   3684 ****       186.7500  10.2500  45.0000 Du        
   3685 ****       186.7500  10.2500  45.2500 Du        
   3686 ****       186.7500  10.2500  45.5000 Du        
   3687 ****       186.7500  10.2500  45.7500 Du        
   3688 ****       186.7500  10.2500  46.0000 Du        
   3689 ****       186.7500  10.2500  46.2500 Du        
   3690 ****       186.7500  10.2500  50.5000 Du        
   3691 ****       186.7500  10.2500  50.7500 Du        
   3692 ****       186.7500  10.2500  51.0000 Du        
   3693 ****       186.7500  10.2500  51.2500 Du        
   3694 ****       186.7500  10.2500  51.5000 Du        
   3695 ****       186.7500  10.2500  51.7500 Du        
   3696 ****       186.7500  10.5000  44.2500 Du        
   3697 ****       186.7500  10.5000  44.5000 Du        
   3698 ****       186.7500  10.5000  44.7500 Du        
   3699 ****       186.7500  10.5000  45.0000 Du        
   3700 ****       186.7500  10.5000  45.2500 Du        
   3701 ****       186.7500  10.5000  45.5000 Du        
   3702 ****       186.7500  10.5000  45.7500 Du        
   3703 ****       186.7500  10.5000  46.0000 Du        
   3704 ****       186.7500  10.5000  46.2500 Du        
   3705 ****       186.7500  10.5000  51.0000 Du        
   3706 ****       186.7500  10.5000  51.2500 Du        
   3707 ****       186.7500  10.5000  51.5000 Du        
   3708 ****       186.7500  10.5000  51.7500 Du        
   3709 ****       186.7500  10.5000  52.0000 Du        
   3710 ****       186.7500  10.7500  44.2500 Du        
   3711 ****       186.7500  10.7500  44.5000 Du        
   3712 ****       186.7500  10.7500  44.7500 Du        
   3713 ****       186.7500  10.7500  45.0000 Du        
   3714 ****       186.7500  10.7500  45.2500 Du        
   3715 ****       186.7500  10.7500  45.5000 Du        
   3716 ****       186.7500  10.7500  45.7500 Du        
   3717 ****       186.7500  10.7500  46.0000 Du        
   3718 ****       186.7500  10.7500  46.2500 Du        
   3719 ****       186.7500  10.7500  51.0000 Du        
   3720 ****       186.7500  10.7500  51.2500 Du        
   3721 ****       186.7500  10.7500  51.5000 Du        
   3722 ****       186.7500  10.7500  51.7500 Du        
   3723 ****       186.7500  10.7500  52.0000 Du        
   3724 ****       186.7500  10.7500  52.2500 Du        
   3725 ****       186.7500  11.0000  44.5000 Du        
   3726 ****       186.7500  11.0000  44.7500 Du        
   3727 ****       186.7500  11.0000  45.0000 Du        
   3728 ****       186.7500  11.0000  45.2500 Du        
   3729 ****       186.7500  11.0000  45.5000 Du        
   3730 ****       186.7500  11.0000  45.7500 Du        
   3731 ****       186.7500  11.0000  46.0000 Du        
   3732 ****       186.7500  11.0000  46.2500 Du        
   3733 ****       186.7500  11.0000  51.2500 Du        
   3734 ****       186.7500  11.0000  51.5000 Du        
   3735 ****       186.7500  11.0000  51.7500 Du        
   3736 ****       186.7500  11.0000  52.0000 Du        
   3737 ****       186.7500  11.0000  52.2500 Du        
   3738 ****       186.7500  11.0000  52.5000 Du        
   3739 ****       186.7500  11.2500  44.5000 Du        
   3740 ****       186.7500  11.2500  44.7500 Du        
   3741 ****       186.7500  11.2500  45.0000 Du        
   3742 ****       186.7500  11.2500  45.2500 Du        
   3743 ****       186.7500  11.2500  45.5000 Du        
   3744 ****       186.7500  11.2500  45.7500 Du        
   3745 ****       186.7500  11.2500  46.0000 Du        
   3746 ****       186.7500  11.2500  51.2500 Du        
   3747 ****       186.7500  11.2500  51.5000 Du        
   3748 ****       186.7500  11.2500  51.7500 Du        
   3749 ****       186.7500  11.2500  52.0000 Du        
   3750 ****       186.7500  11.2500  52.2500 Du        
   3751 ****       186.7500  11.2500  52.5000 Du        
   3752 ****       186.7500  11.2500  52.7500 Du        
   3753 ****       186.7500  11.5000  44.7500 Du        
   3754 ****       186.7500  11.5000  45.0000 Du        
   3755 ****       186.7500  11.5000  45.2500 Du        
   3756 ****       186.7500  11.5000  45.5000 Du        
   3757 ****       186.7500  11.5000  51.0000 Du        
   3758 ****       186.7500  11.5000  51.2500 Du        
   3759 ****       186.7500  11.5000  51.5000 Du        
   3760 ****       186.7500  11.5000  51.7500 Du        
   3761 ****       186.7500  11.5000  52.0000 Du        
   3762 ****       186.7500  11.5000  52.2500 Du        
   3763 ****       186.7500  11.5000  52.5000 Du        
   3764 ****       186.7500  11.5000  52.7500 Du        
   3765 ****       186.7500  11.5000  53.0000 Du        
   3766 ****       186.7500  11.7500  45.0000 Du        
   3767 ****       186.7500  11.7500  45.2500 Du        
   3768 ****       186.7500  11.7500  51.0000 Du        
   3769 ****       186.7500  11.7500  51.2500 Du        
   3770 ****       186.7500  11.7500  51.5000 Du        
   3771 ****       186.7500  11.7500  51.7500 Du        
   3772 ****       186.7500  11.7500  52.0000 Du        
   3773 ****       186.7500  11.7500  52.2500 Du        
   3774 ****       186.7500  11.7500  52.5000 Du        
   3775 ****       186.7500  11.7500  52.7500 Du        
   3776 ****       186.7500  11.7500  53.0000 Du        
   3777 ****       186.7500  11.7500  53.2500 Du        
   3778 ****       186.7500  12.0000  50.7500 Du        
   3779 ****       186.7500  12.0000  51.0000 Du        
   3780 ****       186.7500  12.0000  51.2500 Du        
   3781 ****       186.7500  12.0000  51.5000 Du        
   3782 ****       186.7500  12.0000  51.7500 Du        
   3783 ****       186.7500  12.0000  52.0000 Du        
   3784 ****       186.7500  12.0000  52.2500 Du        
   3785 ****       186.7500  12.0000  52.5000 Du        
   3786 ****       186.7500  12.0000  52.7500 Du        
   3787 ****       186.7500  12.0000  53.0000 Du        
   3788 ****       186.7500  12.0000  53.2500 Du        
   3789 ****       186.7500  12.2500  50.7500 Du        
   3790 ****       186.7500  12.2500  51.0000 Du        
   3791 ****       186.7500  12.2500  51.2500 Du        
   3792 ****       186.7500  12.2500  51.5000 Du        
   3793 ****       186.7500  12.2500  51.7500 Du        
   3794 ****       186.7500  12.2500  52.0000 Du        
   3795 ****       186.7500  12.2500  52.2500 Du        
   3796 ****       186.7500  12.2500  52.5000 Du        
   3797 ****       186.7500  12.2500  52.7500 Du        
   3798 ****       186.7500  12.2500  53.0000 Du        
   3799 ****       186.7500  12.5000  50.7500 Du        
   3800 ****       186.7500  12.5000  51.0000 Du        
   3801 ****       186.7500  12.5000  51.2500 Du        
   3802 ****       186.7500  12.5000  51.5000 Du        
   3803 ****       186.7500  12.5000  51.7500 Du        
   3804 ****       186.7500  12.5000  52.0000 Du        
   3805 ****       186.7500  12.5000  52.2500 Du        
   3806 ****       186.7500  12.5000  52.5000 Du        
   3807 ****       186.7500  12.5000  52.7500 Du        
   3808 ****       186.7500  12.5000  53.0000 Du        
   3809 ****       186.7500  12.7500  50.7500 Du        
   3810 ****       186.7500  12.7500  51.0000 Du        
   3811 ****       186.7500  12.7500  51.2500 Du        
   3812 ****       186.7500  12.7500  51.5000 Du        
   3813 ****       186.7500  12.7500  51.7500 Du        
   3814 ****       186.7500  12.7500  52.0000 Du        
   3815 ****       186.7500  12.7500  52.2500 Du        
   3816 ****       186.7500  12.7500  52.5000 Du        
   3817 ****       186.7500  12.7500  52.7500 Du        
   3818 ****       186.7500  13.0000  50.7500 Du        
   3819 ****       186.7500  13.0000  51.0000 Du        
   3820 ****       186.7500  13.0000  51.2500 Du        
   3821 ****       186.7500  13.0000  51.5000 Du        
   3822 ****       186.7500  13.0000  51.7500 Du        
   3823 ****       186.7500  13.0000  52.0000 Du        
   3824 ****       186.7500  13.0000  52.2500 Du        
   3825 ****       186.7500  13.0000  52.5000 Du        
   3826 ****       186.7500  13.2500  50.7500 Du        
   3827 ****       186.7500  13.2500  51.0000 Du        
   3828 ****       186.7500  13.2500  51.2500 Du        
   3829 ****       186.7500  13.2500  51.5000 Du        
   3830 ****       186.7500  13.2500  51.7500 Du        
   3831 ****       186.7500  13.2500  52.0000 Du        
   3832 ****       186.7500  13.2500  52.2500 Du        
   3833 ****       186.7500  13.2500  52.5000 Du        
   3834 ****       186.7500  13.5000  50.5000 Du        
   3835 ****       186.7500  13.5000  50.7500 Du        
   3836 ****       186.7500  13.5000  51.0000 Du        
   3837 ****       186.7500  13.5000  51.2500 Du        
   3838 ****       186.7500  13.5000  51.5000 Du        
   3839 ****       186.7500  13.5000  51.7500 Du        
   3840 ****       186.7500  13.5000  52.0000 Du        
   3841 ****       186.7500  13.5000  52.2500 Du        
   3842 ****       186.7500  13.7500  50.5000 Du        
   3843 ****       186.7500  13.7500  50.7500 Du        
   3844 ****       186.7500  13.7500  51.0000 Du        
   3845 ****       186.7500  13.7500  51.2500 Du        
   3846 ****       186.7500  13.7500  51.5000 Du        
   3847 ****       186.7500  13.7500  51.7500 Du        
   3848 ****       186.7500  13.7500  52.0000 Du        
   3849 ****       186.7500  14.0000  50.5000 Du        
   3850 ****       186.7500  14.0000  50.7500 Du        
   3851 ****       186.7500  14.0000  51.0000 Du        
   3852 ****       186.7500  14.0000  51.2500 Du        
   3853 ****       186.7500  14.0000  51.5000 Du        
   3854 ****       186.7500  14.0000  51.7500 Du        
   3855 ****       186.7500  14.0000  52.0000 Du        
   3856 ****       186.7500  14.2500  50.5000 Du        
   3857 ****       186.7500  14.2500  50.7500 Du        
   3858 ****       186.7500  14.2500  51.0000 Du        
   3859 ****       186.7500  14.2500  51.2500 Du        
   3860 ****       186.7500  14.2500  51.5000 Du        
   3861 ****       186.7500  14.2500  51.7500 Du        
   3862 ****       186.7500  14.2500  52.0000 Du        
   3863 ****       186.7500  14.5000  50.2500 Du        
   3864 ****       186.7500  14.5000  50.5000 Du        
   3865 ****       186.7500  14.5000  50.7500 Du        
   3866 ****       186.7500  14.5000  51.0000 Du        
   3867 ****       186.7500  14.5000  51.2500 Du        
   3868 ****       186.7500  14.5000  51.5000 Du        
   3869 ****       186.7500  14.5000  51.7500 Du        
   3870 ****       186.7500  14.7500  50.2500 Du        
   3871 ****       186.7500  14.7500  50.5000 Du        
   3872 ****       186.7500  14.7500  50.7500 Du        
   3873 ****       186.7500  14.7500  51.0000 Du        
   3874 ****       186.7500  14.7500  51.2500 Du        
   3875 ****       186.7500  14.7500  51.5000 Du        
   3876 ****       186.7500  14.7500  51.7500 Du        
   3877 ****       186.7500  15.0000  50.0000 Du        
   3878 ****       186.7500  15.0000  50.2500 Du        
   3879 ****       186.7500  15.0000  50.5000 Du        
   3880 ****       186.7500  15.0000  50.7500 Du        
   3881 ****       186.7500  15.0000  51.0000 Du        
   3882 ****       186.7500  15.0000  51.2500 Du        
   3883 ****       186.7500  15.0000  51.5000 Du        
   3884 ****       186.7500  15.0000  51.7500 Du        
   3885 ****       186.7500  15.2500  50.2500 Du        
   3886 ****       186.7500  15.2500  50.5000 Du        
   3887 ****       186.7500  15.2500  50.7500 Du        
   3888 ****       186.7500  15.2500  51.0000 Du        
   3889 ****       186.7500  15.2500  51.2500 Du        
   3890 ****       186.7500  15.2500  51.5000 Du        
   3891 ****       186.7500  15.5000  50.2500 Du        
   3892 ****       186.7500  15.5000  50.5000 Du        
   3893 ****       186.7500  15.5000  50.7500 Du        
   3894 ****       186.7500  15.5000  51.0000 Du        
   3895 ****       186.7500  15.5000  51.2500 Du        
   3896 ****       186.7500  15.5000  51.5000 Du        
   3897 ****       186.7500  15.7500  50.0000 Du        
   3898 ****       186.7500  15.7500  50.2500 Du        
   3899 ****       186.7500  15.7500  50.5000 Du        
   3900 ****       186.7500  15.7500  50.7500 Du        
   3901 ****       186.7500  15.7500  51.0000 Du        
   3902 ****       186.7500  15.7500  51.2500 Du        
   3903 ****       186.7500  16.0000  50.0000 Du        
   3904 ****       186.7500  16.0000  50.2500 Du        
   3905 ****       186.7500  16.0000  50.5000 Du        
   3906 ****       186.7500  16.0000  50.7500 Du        
   3907 ****       186.7500  16.0000  51.0000 Du        
   3908 ****       186.7500  16.2500  50.5000 Du        
   3909 ****       186.7500  16.2500  50.7500 Du        
   3910 ****       186.7500  18.2500  49.7500 Du        
   3911 ****       186.7500  18.5000  49.5000 Du        
   3912 ****       186.7500  18.5000  49.7500 Du        
   3913 ****       186.7500  18.7500  49.2500 Du        
   3914 ****       186.7500  18.7500  49.5000 Du        
   3915 ****       186.7500  18.7500  49.7500 Du        
   3916 ****       186.7500  18.7500  50.0000 Du        
   3917 ****       186.7500  19.0000  49.2500 Du        
   3918 ****       186.7500  19.0000  49.5000 Du        
   3919 ****       186.7500  19.0000  49.7500 Du        
   3920 ****       186.7500  19.0000  50.0000 Du        
   3921 ****       186.7500  19.0000  50.2500 Du        
   3922 ****       186.7500  19.2500  49.0000 Du        
   3923 ****       186.7500  19.2500  49.2500 Du        
   3924 ****       186.7500  19.2500  49.5000 Du        
   3925 ****       186.7500  19.2500  49.7500 Du        
   3926 ****       186.7500  19.2500  50.0000 Du        
   3927 ****       186.7500  19.2500  50.2500 Du        
   3928 ****       186.7500  19.2500  50.5000 Du        
   3929 ****       186.7500  19.5000  48.7500 Du        
   3930 ****       186.7500  19.5000  49.0000 Du        
   3931 ****       186.7500  19.5000  49.2500 Du        
   3932 ****       186.7500  19.5000  49.5000 Du        
   3933 ****       186.7500  19.5000  49.7500 Du        
   3934 ****       186.7500  19.5000  50.0000 Du        
   3935 ****       186.7500  19.5000  50.2500 Du        
   3936 ****       186.7500  19.5000  50.5000 Du        
   3937 ****       186.7500  19.7500  48.7500 Du        
   3938 ****       186.7500  19.7500  49.0000 Du        
   3939 ****       186.7500  19.7500  49.2500 Du        
   3940 ****       186.7500  19.7500  49.5000 Du        
   3941 ****       186.7500  19.7500  49.7500 Du        
   3942 ****       186.7500  19.7500  50.0000 Du        
   3943 ****       186.7500  19.7500  50.2500 Du        
   3944 ****       186.7500  19.7500  50.5000 Du        
   3945 ****       186.7500  19.7500  50.7500 Du        
   3946 ****       186.7500  20.0000  48.7500 Du        
   3947 ****       186.7500  20.0000  49.0000 Du        
   3948 ****       186.7500  20.0000  49.2500 Du        
   3949 ****       186.7500  20.0000  49.5000 Du        
   3950 ****       186.7500  20.0000  49.7500 Du        
   3951 ****       186.7500  20.0000  50.0000 Du        
   3952 ****       186.7500  20.0000  50.2500 Du        
   3953 ****       186.7500  20.0000  50.5000 Du        
   3954 ****       186.7500  20.0000  50.7500 Du        
   3955 ****       186.7500  20.0000  51.0000 Du        
   3956 ****       186.7500  20.2500  48.7500 Du        
   3957 ****       186.7500  20.2500  49.0000 Du        
   3958 ****       186.7500  20.2500  49.2500 Du        
   3959 ****       186.7500  20.2500  49.5000 Du        
   3960 ****       186.7500  20.2500  49.7500 Du        
   3961 ****       186.7500  20.2500  50.0000 Du        
   3962 ****       186.7500  20.2500  50.2500 Du        
   3963 ****       186.7500  20.2500  50.5000 Du        
   3964 ****       186.7500  20.2500  50.7500 Du        
   3965 ****       186.7500  20.2500  51.0000 Du        
   3966 ****       186.7500  20.2500  51.2500 Du        
   3967 ****       186.7500  20.5000  49.2500 Du        
   3968 ****       186.7500  20.5000  49.5000 Du        
   3969 ****       186.7500  20.5000  49.7500 Du        
   3970 ****       186.7500  20.5000  50.0000 Du        
   3971 ****       186.7500  20.5000  50.2500 Du        
   3972 ****       186.7500  20.5000  50.5000 Du        
   3973 ****       186.7500  20.5000  50.7500 Du        
   3974 ****       186.7500  20.5000  51.0000 Du        
   3975 ****       186.7500  20.5000  51.2500 Du        
   3976 ****       186.7500  20.5000  51.5000 Du        
   3977 ****       186.7500  20.7500  49.5000 Du        
   3978 ****       186.7500  20.7500  49.7500 Du        
   3979 ****       186.7500  20.7500  50.0000 Du        
   3980 ****       186.7500  20.7500  50.2500 Du        
   3981 ****       186.7500  20.7500  50.5000 Du        
   3982 ****       186.7500  20.7500  50.7500 Du        
   3983 ****       186.7500  20.7500  51.0000 Du        
   3984 ****       186.7500  20.7500  51.2500 Du        
   3985 ****       186.7500  20.7500  51.5000 Du        
   3986 ****       186.7500  21.0000  50.0000 Du        
   3987 ****       186.7500  21.0000  50.2500 Du        
   3988 ****       186.7500  21.0000  50.5000 Du        
   3989 ****       186.7500  21.0000  50.7500 Du        
   3990 ****       186.7500  21.0000  51.0000 Du        
   3991 ****       186.7500  21.0000  51.2500 Du        
   3992 ****       186.7500  21.0000  51.5000 Du        
   3993 ****       186.7500  21.2500  50.5000 Du        
   3994 ****       186.7500  21.2500  50.7500 Du        
   3995 ****       186.7500  21.2500  51.0000 Du        
   3996 ****       186.7500  21.2500  51.2500 Du        
   3997 ****       187.0000   5.7500  49.7500 Du        
   3998 ****       187.0000   5.7500  50.0000 Du        
   3999 ****       187.0000   6.0000  49.5000 Du        
   4000 ****       187.0000   6.0000  49.7500 Du        
   4001 ****       187.0000   6.0000  50.0000 Du        
   4002 ****       187.0000   6.0000  50.2500 Du        
   4003 ****       187.0000   6.0000  50.5000 Du        
   4004 ****       187.0000   6.2500  49.5000 Du        
   4005 ****       187.0000   6.2500  49.7500 Du        
   4006 ****       187.0000   6.2500  50.0000 Du        
   4007 ****       187.0000   6.2500  50.2500 Du        
   4008 ****       187.0000   6.2500  50.5000 Du        
   4009 ****       187.0000   6.5000  49.2500 Du        
   4010 ****       187.0000   6.5000  49.5000 Du        
   4011 ****       187.0000   6.5000  49.7500 Du        
   4012 ****       187.0000   6.5000  50.0000 Du        
   4013 ****       187.0000   6.5000  50.2500 Du        
   4014 ****       187.0000   6.7500  49.2500 Du        
   4015 ****       187.0000   6.7500  49.5000 Du        
   4016 ****       187.0000   6.7500  49.7500 Du        
   4017 ****       187.0000   6.7500  50.0000 Du        
   4018 ****       187.0000   6.7500  50.2500 Du        
   4019 ****       187.0000   7.0000  49.2500 Du        
   4020 ****       187.0000   7.0000  49.5000 Du        
   4021 ****       187.0000   7.0000  49.7500 Du        
   4022 ****       187.0000   7.0000  50.0000 Du        
   4023 ****       187.0000   7.0000  50.2500 Du        
   4024 ****       187.0000   7.2500  49.0000 Du        
   4025 ****       187.0000   7.2500  49.2500 Du        
   4026 ****       187.0000   7.2500  49.5000 Du        
   4027 ****       187.0000   7.2500  49.7500 Du        
   4028 ****       187.0000   7.2500  50.0000 Du        
   4029 ****       187.0000   7.2500  50.2500 Du        
   4030 ****       187.0000   7.5000  49.0000 Du        
   4031 ****       187.0000   7.5000  49.2500 Du        
   4032 ****       187.0000   7.5000  49.5000 Du        
   4033 ****       187.0000   7.5000  49.7500 Du        
   4034 ****       187.0000   7.5000  50.0000 Du        
   4035 ****       187.0000   7.5000  50.2500 Du        
   4036 ****       187.0000   7.7500  49.0000 Du        
   4037 ****       187.0000   7.7500  49.2500 Du        
   4038 ****       187.0000   7.7500  49.5000 Du        
   4039 ****       187.0000   7.7500  49.7500 Du        
   4040 ****       187.0000   7.7500  50.0000 Du        
   4041 ****       187.0000   7.7500  50.2500 Du        
   4042 ****       187.0000   8.0000  49.0000 Du        
   4043 ****       187.0000   8.0000  49.2500 Du        
   4044 ****       187.0000   8.0000  49.5000 Du        
   4045 ****       187.0000   8.0000  49.7500 Du        
   4046 ****       187.0000   8.0000  50.0000 Du        
   4047 ****       187.0000   8.0000  50.2500 Du        
   4048 ****       187.0000   8.2500  48.7500 Du        
   4049 ****       187.0000   8.2500  49.0000 Du        
   4050 ****       187.0000   8.2500  49.2500 Du        
   4051 ****       187.0000   8.2500  49.5000 Du        
   4052 ****       187.0000   8.2500  49.7500 Du        
   4053 ****       187.0000   8.2500  50.0000 Du        
   4054 ****       187.0000   8.2500  50.2500 Du        
   4055 ****       187.0000   8.5000  48.7500 Du        
   4056 ****       187.0000   8.5000  49.0000 Du        
   4057 ****       187.0000   8.5000  49.2500 Du        
   4058 ****       187.0000   8.5000  49.5000 Du        
   4059 ****       187.0000   8.5000  49.7500 Du        
   4060 ****       187.0000   8.5000  50.0000 Du        
   4061 ****       187.0000   8.7500  48.7500 Du        
   4062 ****       187.0000   8.7500  49.0000 Du        
   4063 ****       187.0000   8.7500  49.2500 Du        
   4064 ****       187.0000   8.7500  49.5000 Du        
   4065 ****       187.0000   8.7500  49.7500 Du        
   4066 ****       187.0000   8.7500  50.0000 Du        
   4067 ****       187.0000   8.7500  50.2500 Du        
   4068 ****       187.0000   9.0000  48.7500 Du        
   4069 ****       187.0000   9.0000  49.0000 Du        
   4070 ****       187.0000   9.0000  49.2500 Du        
   4071 ****       187.0000   9.0000  49.5000 Du        
   4072 ****       187.0000   9.0000  49.7500 Du        
   4073 ****       187.0000   9.0000  50.0000 Du        
   4074 ****       187.0000   9.0000  50.2500 Du        
   4075 ****       187.0000   9.2500  48.5000 Du        
   4076 ****       187.0000   9.2500  48.7500 Du        
   4077 ****       187.0000   9.2500  49.0000 Du        
   4078 ****       187.0000   9.2500  49.2500 Du        
   4079 ****       187.0000   9.2500  49.5000 Du        
   4080 ****       187.0000   9.2500  49.7500 Du        
   4081 ****       187.0000   9.2500  50.0000 Du        
   4082 ****       187.0000   9.2500  50.2500 Du        
   4083 ****       187.0000   9.2500  50.5000 Du        
   4084 ****       187.0000   9.7500  44.5000 Du        
   4085 ****       187.0000   9.7500  44.7500 Du        
   4086 ****       187.0000   9.7500  45.0000 Du        
   4087 ****       187.0000   9.7500  45.2500 Du        
   4088 ****       187.0000   9.7500  45.5000 Du        
   4089 ****       187.0000   9.7500  45.7500 Du        
   4090 ****       187.0000   9.7500  46.0000 Du        
   4091 ****       187.0000   9.7500  46.2500 Du        
   4092 ****       187.0000  10.0000  44.2500 Du        
   4093 ****       187.0000  10.0000  44.5000 Du        
   4094 ****       187.0000  10.0000  44.7500 Du        
   4095 ****       187.0000  10.0000  45.0000 Du        
   4096 ****       187.0000  10.0000  45.2500 Du        
   4097 ****       187.0000  10.0000  45.5000 Du        
   4098 ****       187.0000  10.0000  45.7500 Du        
   4099 ****       187.0000  10.0000  46.0000 Du        
   4100 ****       187.0000  10.0000  46.2500 Du        
   4101 ****       187.0000  10.0000  46.5000 Du        
   4102 ****       187.0000  10.2500  44.0000 Du        
   4103 ****       187.0000  10.2500  44.2500 Du        
   4104 ****       187.0000  10.2500  44.5000 Du        
   4105 ****       187.0000  10.2500  44.7500 Du        
   4106 ****       187.0000  10.2500  45.0000 Du        
   4107 ****       187.0000  10.2500  45.2500 Du        
   4108 ****       187.0000  10.2500  45.5000 Du        
   4109 ****       187.0000  10.2500  45.7500 Du        
   4110 ****       187.0000  10.2500  46.0000 Du        
   4111 ****       187.0000  10.2500  46.2500 Du        
   4112 ****       187.0000  10.2500  46.5000 Du        
   4113 ****       187.0000  10.2500  46.7500 Du        
   4114 ****       187.0000  10.5000  44.2500 Du        
   4115 ****       187.0000  10.5000  44.5000 Du        
   4116 ****       187.0000  10.5000  44.7500 Du        
   4117 ****       187.0000  10.5000  45.0000 Du        
   4118 ****       187.0000  10.5000  45.2500 Du        
   4119 ****       187.0000  10.5000  45.5000 Du        
   4120 ****       187.0000  10.5000  45.7500 Du        
   4121 ****       187.0000  10.5000  46.0000 Du        
   4122 ****       187.0000  10.5000  46.2500 Du        
   4123 ****       187.0000  10.5000  46.5000 Du        
   4124 ****       187.0000  10.7500  44.2500 Du        
   4125 ****       187.0000  10.7500  44.5000 Du        
   4126 ****       187.0000  10.7500  44.7500 Du        
   4127 ****       187.0000  10.7500  45.0000 Du        
   4128 ****       187.0000  10.7500  45.2500 Du        
   4129 ****       187.0000  10.7500  45.5000 Du        
   4130 ****       187.0000  10.7500  45.7500 Du        
   4131 ****       187.0000  10.7500  46.0000 Du        
   4132 ****       187.0000  10.7500  46.2500 Du        
   4133 ****       187.0000  10.7500  46.5000 Du        
   4134 ****       187.0000  10.7500  51.7500 Du        
   4135 ****       187.0000  10.7500  52.0000 Du        
   4136 ****       187.0000  11.0000  44.2500 Du        
   4137 ****       187.0000  11.0000  44.5000 Du        
   4138 ****       187.0000  11.0000  44.7500 Du        
   4139 ****       187.0000  11.0000  45.0000 Du        
   4140 ****       187.0000  11.0000  45.2500 Du        
   4141 ****       187.0000  11.0000  45.5000 Du        
   4142 ****       187.0000  11.0000  45.7500 Du        
   4143 ****       187.0000  11.0000  46.0000 Du        
   4144 ****       187.0000  11.0000  46.2500 Du        
   4145 ****       187.0000  11.0000  51.5000 Du        
   4146 ****       187.0000  11.0000  51.7500 Du        
   4147 ****       187.0000  11.0000  52.0000 Du        
   4148 ****       187.0000  11.0000  52.2500 Du        
   4149 ****       187.0000  11.0000  52.5000 Du        
   4150 ****       187.0000  11.2500  44.5000 Du        
   4151 ****       187.0000  11.2500  44.7500 Du        
   4152 ****       187.0000  11.2500  45.0000 Du        
   4153 ****       187.0000  11.2500  45.2500 Du        
   4154 ****       187.0000  11.2500  45.5000 Du        
   4155 ****       187.0000  11.2500  45.7500 Du        
   4156 ****       187.0000  11.2500  46.0000 Du        
   4157 ****       187.0000  11.2500  46.2500 Du        
   4158 ****       187.0000  11.2500  51.5000 Du        
   4159 ****       187.0000  11.2500  51.7500 Du        
   4160 ****       187.0000  11.2500  52.0000 Du        
   4161 ****       187.0000  11.2500  52.2500 Du        
   4162 ****       187.0000  11.2500  52.5000 Du        
   4163 ****       187.0000  11.2500  52.7500 Du        
   4164 ****       187.0000  11.5000  44.7500 Du        
   4165 ****       187.0000  11.5000  45.0000 Du        
   4166 ****       187.0000  11.5000  45.2500 Du        
   4167 ****       187.0000  11.5000  45.5000 Du        
   4168 ****       187.0000  11.5000  51.5000 Du        
   4169 ****       187.0000  11.5000  51.7500 Du        
   4170 ****       187.0000  11.5000  52.0000 Du        
   4171 ****       187.0000  11.5000  52.2500 Du        
   4172 ****       187.0000  11.5000  52.5000 Du        
   4173 ****       187.0000  11.5000  52.7500 Du        
   4174 ****       187.0000  11.5000  53.0000 Du        
   4175 ****       187.0000  11.7500  45.0000 Du        
   4176 ****       187.0000  11.7500  51.5000 Du        
   4177 ****       187.0000  11.7500  51.7500 Du        
   4178 ****       187.0000  11.7500  52.0000 Du        
   4179 ****       187.0000  11.7500  52.2500 Du        
   4180 ****       187.0000  11.7500  52.5000 Du        
   4181 ****       187.0000  11.7500  52.7500 Du        
   4182 ****       187.0000  11.7500  53.0000 Du        
   4183 ****       187.0000  11.7500  53.2500 Du        
   4184 ****       187.0000  12.0000  51.2500 Du        
   4185 ****       187.0000  12.0000  51.5000 Du        
   4186 ****       187.0000  12.0000  51.7500 Du        
   4187 ****       187.0000  12.0000  52.0000 Du        
   4188 ****       187.0000  12.0000  52.2500 Du        
   4189 ****       187.0000  12.0000  52.5000 Du        
   4190 ****       187.0000  12.0000  52.7500 Du        
   4191 ****       187.0000  12.0000  53.0000 Du        
   4192 ****       187.0000  12.0000  53.2500 Du        
   4193 ****       187.0000  12.2500  51.0000 Du        
   4194 ****       187.0000  12.2500  51.2500 Du        
   4195 ****       187.0000  12.2500  51.5000 Du        
   4196 ****       187.0000  12.2500  51.7500 Du        
   4197 ****       187.0000  12.2500  52.0000 Du        
   4198 ****       187.0000  12.2500  52.2500 Du        
   4199 ****       187.0000  12.2500  52.5000 Du        
   4200 ****       187.0000  12.2500  52.7500 Du        
   4201 ****       187.0000  12.2500  53.0000 Du        
   4202 ****       187.0000  12.2500  53.2500 Du        
   4203 ****       187.0000  12.5000  51.0000 Du        
   4204 ****       187.0000  12.5000  51.2500 Du        
   4205 ****       187.0000  12.5000  51.5000 Du        
   4206 ****       187.0000  12.5000  51.7500 Du        
   4207 ****       187.0000  12.5000  52.0000 Du        
   4208 ****       187.0000  12.5000  52.2500 Du        
   4209 ****       187.0000  12.5000  52.5000 Du        
   4210 ****       187.0000  12.5000  52.7500 Du        
   4211 ****       187.0000  12.5000  53.0000 Du        
   4212 ****       187.0000  12.7500  50.7500 Du        
   4213 ****       187.0000  12.7500  51.0000 Du        
   4214 ****       187.0000  12.7500  51.2500 Du        
   4215 ****       187.0000  12.7500  51.5000 Du        
   4216 ****       187.0000  12.7500  51.7500 Du        
   4217 ****       187.0000  12.7500  52.0000 Du        
   4218 ****       187.0000  12.7500  52.2500 Du        
   4219 ****       187.0000  12.7500  52.5000 Du        
   4220 ****       187.0000  12.7500  52.7500 Du        
   4221 ****       187.0000  13.0000  50.7500 Du        
   4222 ****       187.0000  13.0000  51.0000 Du        
   4223 ****       187.0000  13.0000  51.2500 Du        
   4224 ****       187.0000  13.0000  51.5000 Du        
   4225 ****       187.0000  13.0000  51.7500 Du        
   4226 ****       187.0000  13.0000  52.0000 Du        
   4227 ****       187.0000  13.0000  52.2500 Du        
   4228 ****       187.0000  13.0000  52.5000 Du        
   4229 ****       187.0000  13.2500  50.7500 Du        
   4230 ****       187.0000  13.2500  51.0000 Du        
   4231 ****       187.0000  13.2500  51.2500 Du        
   4232 ****       187.0000  13.2500  51.5000 Du        
   4233 ****       187.0000  13.2500  51.7500 Du        
   4234 ****       187.0000  13.2500  52.0000 Du        
   4235 ****       187.0000  13.2500  52.2500 Du        
   4236 ****       187.0000  13.2500  52.5000 Du        
   4237 ****       187.0000  13.5000  50.7500 Du        
   4238 ****       187.0000  13.5000  51.0000 Du        
   4239 ****       187.0000  13.5000  51.2500 Du        
   4240 ****       187.0000  13.5000  51.5000 Du        
   4241 ****       187.0000  13.5000  51.7500 Du        
   4242 ****       187.0000  13.5000  52.0000 Du        
   4243 ****       187.0000  13.5000  52.2500 Du        
   4244 ****       187.0000  13.7500  50.5000 Du        
   4245 ****       187.0000  13.7500  50.7500 Du        
   4246 ****       187.0000  13.7500  51.0000 Du        
   4247 ****       187.0000  13.7500  51.2500 Du        
   4248 ****       187.0000  13.7500  51.5000 Du        
   4249 ****       187.0000  13.7500  51.7500 Du        
   4250 ****       187.0000  13.7500  52.0000 Du        
   4251 ****       187.0000  13.7500  52.2500 Du        
   4252 ****       187.0000  14.0000  50.5000 Du        
   4253 ****       187.0000  14.0000  50.7500 Du        
   4254 ****       187.0000  14.0000  51.0000 Du        
   4255 ****       187.0000  14.0000  51.2500 Du        
   4256 ****       187.0000  14.0000  51.5000 Du        
   4257 ****       187.0000  14.0000  51.7500 Du        
   4258 ****       187.0000  14.0000  52.0000 Du        
   4259 ****       187.0000  14.2500  50.5000 Du        
   4260 ****       187.0000  14.2500  50.7500 Du        
   4261 ****       187.0000  14.2500  51.0000 Du        
   4262 ****       187.0000  14.2500  51.2500 Du        
   4263 ****       187.0000  14.2500  51.5000 Du        
   4264 ****       187.0000  14.2500  51.7500 Du        
   4265 ****       187.0000  14.2500  52.0000 Du        
   4266 ****       187.0000  14.5000  50.2500 Du        
   4267 ****       187.0000  14.5000  50.5000 Du        
   4268 ****       187.0000  14.5000  50.7500 Du        
   4269 ****       187.0000  14.5000  51.0000 Du        
   4270 ****       187.0000  14.5000  51.2500 Du        
   4271 ****       187.0000  14.5000  51.5000 Du        
   4272 ****       187.0000  14.5000  51.7500 Du        
   4273 ****       187.0000  14.7500  50.2500 Du        
   4274 ****       187.0000  14.7500  50.5000 Du        
   4275 ****       187.0000  14.7500  50.7500 Du        
   4276 ****       187.0000  14.7500  51.0000 Du        
   4277 ****       187.0000  14.7500  51.2500 Du        
   4278 ****       187.0000  14.7500  51.5000 Du        
   4279 ****       187.0000  14.7500  51.7500 Du        
   4280 ****       187.0000  15.0000  50.2500 Du        
   4281 ****       187.0000  15.0000  50.5000 Du        
   4282 ****       187.0000  15.0000  50.7500 Du        
   4283 ****       187.0000  15.0000  51.0000 Du        
   4284 ****       187.0000  15.0000  51.2500 Du        
   4285 ****       187.0000  15.0000  51.5000 Du        
   4286 ****       187.0000  15.0000  51.7500 Du        
   4287 ****       187.0000  15.2500  50.0000 Du        
   4288 ****       187.0000  15.2500  50.2500 Du        
   4289 ****       187.0000  15.2500  50.5000 Du        
   4290 ****       187.0000  15.2500  50.7500 Du        
   4291 ****       187.0000  15.2500  51.0000 Du        
   4292 ****       187.0000  15.2500  51.2500 Du        
   4293 ****       187.0000  15.2500  51.5000 Du        
   4294 ****       187.0000  15.5000  50.0000 Du        
   4295 ****       187.0000  15.5000  50.2500 Du        
   4296 ****       187.0000  15.5000  50.5000 Du        
   4297 ****       187.0000  15.5000  50.7500 Du        
   4298 ****       187.0000  15.5000  51.0000 Du        
   4299 ****       187.0000  15.5000  51.2500 Du        
   4300 ****       187.0000  15.7500  50.0000 Du        
   4301 ****       187.0000  15.7500  50.2500 Du        
   4302 ****       187.0000  15.7500  50.5000 Du        
   4303 ****       187.0000  15.7500  50.7500 Du        
   4304 ****       187.0000  15.7500  51.0000 Du        
   4305 ****       187.0000  16.0000  50.5000 Du        
   4306 ****       187.0000  16.0000  50.7500 Du        
   4307 ****       187.0000  18.5000  49.2500 Du        
   4308 ****       187.0000  18.5000  49.5000 Du        
   4309 ****       187.0000  18.5000  49.7500 Du        
   4310 ****       187.0000  18.7500  49.5000 Du        
   4311 ****       187.0000  18.7500  49.7500 Du        
   4312 ****       187.0000  18.7500  50.0000 Du        
   4313 ****       187.0000  19.0000  49.2500 Du        
   4314 ****       187.0000  19.0000  49.5000 Du        
   4315 ****       187.0000  19.0000  49.7500 Du        
   4316 ****       187.0000  19.0000  50.0000 Du        
   4317 ****       187.0000  19.0000  50.2500 Du        
   4318 ****       187.0000  19.2500  49.0000 Du        
   4319 ****       187.0000  19.2500  49.2500 Du        
   4320 ****       187.0000  19.2500  49.5000 Du        
   4321 ****       187.0000  19.2500  49.7500 Du        
   4322 ****       187.0000  19.2500  50.0000 Du        
   4323 ****       187.0000  19.2500  50.2500 Du        
   4324 ****       187.0000  19.5000  48.7500 Du        
   4325 ****       187.0000  19.5000  49.0000 Du        
   4326 ****       187.0000  19.5000  49.2500 Du        
   4327 ****       187.0000  19.5000  49.5000 Du        
   4328 ****       187.0000  19.5000  49.7500 Du        
   4329 ****       187.0000  19.5000  50.0000 Du        
   4330 ****       187.0000  19.5000  50.2500 Du        
   4331 ****       187.0000  19.5000  50.5000 Du        
   4332 ****       187.0000  19.7500  48.7500 Du        
   4333 ****       187.0000  19.7500  49.0000 Du        
   4334 ****       187.0000  19.7500  49.2500 Du        
   4335 ****       187.0000  19.7500  49.5000 Du        
   4336 ****       187.0000  19.7500  49.7500 Du        
   4337 ****       187.0000  19.7500  50.0000 Du        
   4338 ****       187.0000  19.7500  50.2500 Du        
   4339 ****       187.0000  19.7500  50.5000 Du        
   4340 ****       187.0000  19.7500  50.7500 Du        
   4341 ****       187.0000  20.0000  48.7500 Du        
   4342 ****       187.0000  20.0000  49.0000 Du        
   4343 ****       187.0000  20.0000  49.2500 Du        
   4344 ****       187.0000  20.0000  49.5000 Du        
   4345 ****       187.0000  20.0000  49.7500 Du        
   4346 ****       187.0000  20.0000  50.0000 Du        
   4347 ****       187.0000  20.0000  50.2500 Du        
   4348 ****       187.0000  20.0000  50.5000 Du        
   4349 ****       187.0000  20.0000  50.7500 Du        
   4350 ****       187.0000  20.0000  51.0000 Du        
   4351 ****       187.0000  20.2500  49.0000 Du        
   4352 ****       187.0000  20.2500  49.2500 Du        
   4353 ****       187.0000  20.2500  49.5000 Du        
   4354 ****       187.0000  20.2500  49.7500 Du        
   4355 ****       187.0000  20.2500  50.0000 Du        
   4356 ****       187.0000  20.2500  50.2500 Du        
   4357 ****       187.0000  20.2500  50.5000 Du        
   4358 ****       187.0000  20.2500  50.7500 Du        
   4359 ****       187.0000  20.2500  51.0000 Du        
   4360 ****       187.0000  20.2500  51.2500 Du        
   4361 ****       187.0000  20.5000  49.2500 Du        
   4362 ****       187.0000  20.5000  49.5000 Du        
   4363 ****       187.0000  20.5000  49.7500 Du        
   4364 ****       187.0000  20.5000  50.0000 Du        
   4365 ****       187.0000  20.5000  50.2500 Du        
   4366 ****       187.0000  20.5000  50.5000 Du        
   4367 ****       187.0000  20.5000  50.7500 Du        
   4368 ****       187.0000  20.5000  51.0000 Du        
   4369 ****       187.0000  20.5000  51.2500 Du        
   4370 ****       187.0000  20.7500  49.7500 Du        
   4371 ****       187.0000  20.7500  50.0000 Du        
   4372 ****       187.0000  20.7500  50.2500 Du        
   4373 ****       187.0000  20.7500  50.5000 Du        
   4374 ****       187.0000  20.7500  50.7500 Du        
   4375 ****       187.0000  20.7500  51.0000 Du        
   4376 ****       187.0000  20.7500  51.2500 Du        
   4377 ****       187.0000  20.7500  51.5000 Du        
   4378 ****       187.0000  21.0000  50.0000 Du        
   4379 ****       187.0000  21.0000  50.2500 Du        
   4380 ****       187.0000  21.0000  50.5000 Du        
   4381 ****       187.0000  21.0000  50.7500 Du        
   4382 ****       187.0000  21.0000  51.0000 Du        
   4383 ****       187.0000  21.0000  51.2500 Du        
   4384 ****       187.0000  21.0000  51.5000 Du        
   4385 ****       187.0000  21.2500  50.5000 Du        
   4386 ****       187.0000  21.2500  50.7500 Du        
   4387 ****       187.0000  21.2500  51.0000 Du        
   4388 ****       187.0000  21.2500  51.2500 Du        
   4389 ****       187.2500   3.7500  49.0000 Du        
   4390 ****       187.2500   3.7500  49.2500 Du        
   4391 ****       187.2500   3.7500  49.5000 Du        
   4392 ****       187.2500   3.7500  49.7500 Du        
   4393 ****       187.2500   3.7500  52.2500 Du        
   4394 ****       187.2500   3.7500  52.5000 Du        
   4395 ****       187.2500   4.0000  49.2500 Du        
   4396 ****       187.2500   4.0000  49.5000 Du        
   4397 ****       187.2500   4.0000  49.7500 Du        
   4398 ****       187.2500   4.0000  52.0000 Du        
   4399 ****       187.2500   4.0000  52.2500 Du        
   4400 ****       187.2500   4.0000  52.5000 Du        
   4401 ****       187.2500   4.0000  52.7500 Du        
   4402 ****       187.2500   4.2500  49.2500 Du        
   4403 ****       187.2500   4.2500  49.5000 Du        
   4404 ****       187.2500   4.2500  49.7500 Du        
   4405 ****       187.2500   4.2500  51.7500 Du        
   4406 ****       187.2500   4.2500  52.0000 Du        
   4407 ****       187.2500   4.2500  52.2500 Du        
   4408 ****       187.2500   4.2500  52.5000 Du        
   4409 ****       187.2500   4.2500  52.7500 Du        
   4410 ****       187.2500   4.5000  49.5000 Du        
   4411 ****       187.2500   4.5000  49.7500 Du        
   4412 ****       187.2500   4.5000  51.7500 Du        
   4413 ****       187.2500   4.5000  52.0000 Du        
   4414 ****       187.2500   4.5000  52.2500 Du        
   4415 ****       187.2500   4.5000  52.5000 Du        
   4416 ****       187.2500   4.5000  52.7500 Du        
   4417 ****       187.2500   4.7500  49.5000 Du        
   4418 ****       187.2500   4.7500  49.7500 Du        
   4419 ****       187.2500   4.7500  51.7500 Du        
   4420 ****       187.2500   4.7500  52.0000 Du        
   4421 ****       187.2500   4.7500  52.2500 Du        
   4422 ****       187.2500   5.0000  49.5000 Du        
   4423 ****       187.2500   5.0000  49.7500 Du        
   4424 ****       187.2500   5.0000  50.0000 Du        
   4425 ****       187.2500   5.0000  51.7500 Du        
   4426 ****       187.2500   5.2500  49.5000 Du        
   4427 ****       187.2500   5.2500  49.7500 Du        
   4428 ****       187.2500   5.2500  50.0000 Du        
   4429 ****       187.2500   5.2500  50.2500 Du        
   4430 ****       187.2500   5.5000  49.5000 Du        
   4431 ****       187.2500   5.5000  49.7500 Du        
   4432 ****       187.2500   5.5000  50.0000 Du        
   4433 ****       187.2500   5.5000  50.2500 Du        
   4434 ****       187.2500   5.5000  50.5000 Du        
   4435 ****       187.2500   5.7500  49.5000 Du        
   4436 ****       187.2500   5.7500  49.7500 Du        
   4437 ****       187.2500   5.7500  50.0000 Du        
   4438 ****       187.2500   5.7500  50.2500 Du        
   4439 ****       187.2500   5.7500  50.5000 Du        
   4440 ****       187.2500   5.7500  50.7500 Du        
   4441 ****       187.2500   6.0000  49.5000 Du        
   4442 ****       187.2500   6.0000  49.7500 Du        
   4443 ****       187.2500   6.0000  50.0000 Du        
   4444 ****       187.2500   6.0000  50.2500 Du        
   4445 ****       187.2500   6.0000  50.5000 Du        
   4446 ****       187.2500   6.0000  50.7500 Du        
   4447 ****       187.2500   6.2500  49.5000 Du        
   4448 ****       187.2500   6.2500  49.7500 Du        
   4449 ****       187.2500   6.2500  50.0000 Du        
   4450 ****       187.2500   6.2500  50.2500 Du        
   4451 ****       187.2500   6.2500  50.5000 Du        
   4452 ****       187.2500   6.5000  49.2500 Du        
   4453 ****       187.2500   6.5000  49.5000 Du        
   4454 ****       187.2500   6.5000  49.7500 Du        
   4455 ****       187.2500   6.5000  50.0000 Du        
   4456 ****       187.2500   6.5000  50.2500 Du        
   4457 ****       187.2500   6.7500  49.2500 Du        
   4458 ****       187.2500   6.7500  49.5000 Du        
   4459 ****       187.2500   6.7500  49.7500 Du        
   4460 ****       187.2500   6.7500  50.0000 Du        
   4461 ****       187.2500   6.7500  50.2500 Du        
   4462 ****       187.2500   7.0000  49.2500 Du        
   4463 ****       187.2500   7.0000  49.5000 Du        
   4464 ****       187.2500   7.0000  49.7500 Du        
   4465 ****       187.2500   7.0000  50.0000 Du        
   4466 ****       187.2500   7.0000  50.2500 Du        
   4467 ****       187.2500   7.2500  49.2500 Du        
   4468 ****       187.2500   7.2500  49.5000 Du        
   4469 ****       187.2500   7.2500  49.7500 Du        
   4470 ****       187.2500   7.2500  50.0000 Du        
   4471 ****       187.2500   7.2500  50.2500 Du        
   4472 ****       187.2500   7.5000  49.2500 Du        
   4473 ****       187.2500   7.5000  49.5000 Du        
   4474 ****       187.2500   7.5000  49.7500 Du        
   4475 ****       187.2500   7.5000  50.0000 Du        
   4476 ****       187.2500   7.5000  50.2500 Du        
   4477 ****       187.2500   7.7500  49.0000 Du        
   4478 ****       187.2500   7.7500  49.2500 Du        
   4479 ****       187.2500   7.7500  49.5000 Du        
   4480 ****       187.2500   7.7500  49.7500 Du        
   4481 ****       187.2500   7.7500  50.0000 Du        
   4482 ****       187.2500   8.0000  49.0000 Du        
   4483 ****       187.2500   8.0000  49.2500 Du        
   4484 ****       187.2500   8.0000  49.5000 Du        
   4485 ****       187.2500   8.0000  49.7500 Du        
   4486 ****       187.2500   8.0000  50.0000 Du        
   4487 ****       187.2500   8.2500  48.7500 Du        
   4488 ****       187.2500   8.2500  49.0000 Du        
   4489 ****       187.2500   8.2500  49.2500 Du        
   4490 ****       187.2500   8.2500  49.5000 Du        
   4491 ****       187.2500   8.2500  49.7500 Du        
   4492 ****       187.2500   8.2500  50.0000 Du        
   4493 ****       187.2500   8.5000  48.7500 Du        
   4494 ****       187.2500   8.5000  49.0000 Du        
   4495 ****       187.2500   8.5000  49.2500 Du        
   4496 ****       187.2500   8.5000  49.5000 Du        
   4497 ****       187.2500   8.5000  49.7500 Du        
   4498 ****       187.2500   8.5000  50.0000 Du        
   4499 ****       187.2500   8.7500  48.7500 Du        
   4500 ****       187.2500   8.7500  49.0000 Du        
   4501 ****       187.2500   8.7500  49.2500 Du        
   4502 ****       187.2500   8.7500  49.5000 Du        
   4503 ****       187.2500   8.7500  49.7500 Du        
   4504 ****       187.2500   8.7500  50.0000 Du        
   4505 ****       187.2500   9.0000  48.5000 Du        
   4506 ****       187.2500   9.0000  48.7500 Du        
   4507 ****       187.2500   9.0000  49.0000 Du        
   4508 ****       187.2500   9.0000  49.2500 Du        
   4509 ****       187.2500   9.0000  49.5000 Du        
   4510 ****       187.2500   9.0000  49.7500 Du        
   4511 ****       187.2500   9.0000  50.0000 Du        
   4512 ****       187.2500   9.2500  48.5000 Du        
   4513 ****       187.2500   9.2500  48.7500 Du        
   4514 ****       187.2500   9.2500  49.0000 Du        
   4515 ****       187.2500   9.2500  49.2500 Du        
   4516 ****       187.2500   9.2500  49.5000 Du        
   4517 ****       187.2500   9.2500  49.7500 Du        
   4518 ****       187.2500   9.7500  44.7500 Du        
   4519 ****       187.2500   9.7500  45.0000 Du        
   4520 ****       187.2500   9.7500  45.2500 Du        
   4521 ****       187.2500   9.7500  45.5000 Du        
   4522 ****       187.2500   9.7500  45.7500 Du        
   4523 ****       187.2500   9.7500  46.0000 Du        
   4524 ****       187.2500   9.7500  46.2500 Du        
   4525 ****       187.2500  10.0000  44.2500 Du        
   4526 ****       187.2500  10.0000  44.5000 Du        
   4527 ****       187.2500  10.0000  44.7500 Du        
   4528 ****       187.2500  10.0000  45.0000 Du        
   4529 ****       187.2500  10.0000  45.2500 Du        
   4530 ****       187.2500  10.0000  45.5000 Du        
   4531 ****       187.2500  10.0000  45.7500 Du        
   4532 ****       187.2500  10.0000  46.0000 Du        
   4533 ****       187.2500  10.0000  46.2500 Du        
   4534 ****       187.2500  10.0000  46.5000 Du        
   4535 ****       187.2500  10.0000  46.7500 Du        
   4536 ****       187.2500  10.0000  47.0000 Du        
   4537 ****       187.2500  10.2500  44.2500 Du        
   4538 ****       187.2500  10.2500  44.5000 Du        
   4539 ****       187.2500  10.2500  44.7500 Du        
   4540 ****       187.2500  10.2500  45.0000 Du        
   4541 ****       187.2500  10.2500  45.2500 Du        
   4542 ****       187.2500  10.2500  45.5000 Du        
   4543 ****       187.2500  10.2500  45.7500 Du        
   4544 ****       187.2500  10.2500  46.0000 Du        
   4545 ****       187.2500  10.2500  46.2500 Du        
   4546 ****       187.2500  10.2500  46.5000 Du        
   4547 ****       187.2500  10.2500  46.7500 Du        
   4548 ****       187.2500  10.2500  47.0000 Du        
   4549 ****       187.2500  10.5000  44.2500 Du        
   4550 ****       187.2500  10.5000  44.5000 Du        
   4551 ****       187.2500  10.5000  44.7500 Du        
   4552 ****       187.2500  10.5000  45.0000 Du        
   4553 ****       187.2500  10.5000  45.2500 Du        
   4554 ****       187.2500  10.5000  45.5000 Du        
   4555 ****       187.2500  10.5000  45.7500 Du        
   4556 ****       187.2500  10.5000  46.0000 Du        
   4557 ****       187.2500  10.5000  46.2500 Du        
   4558 ****       187.2500  10.5000  46.5000 Du        
   4559 ****       187.2500  10.5000  46.7500 Du        
   4560 ****       187.2500  10.5000  47.0000 Du        
   4561 ****       187.2500  10.7500  44.2500 Du        
   4562 ****       187.2500  10.7500  44.5000 Du        
   4563 ****       187.2500  10.7500  44.7500 Du        
   4564 ****       187.2500  10.7500  45.0000 Du        
   4565 ****       187.2500  10.7500  45.2500 Du        
   4566 ****       187.2500  10.7500  45.5000 Du        
   4567 ****       187.2500  10.7500  45.7500 Du        
   4568 ****       187.2500  10.7500  46.0000 Du        
   4569 ****       187.2500  10.7500  46.2500 Du        
   4570 ****       187.2500  10.7500  46.5000 Du        
   4571 ****       187.2500  10.7500  46.7500 Du        
   4572 ****       187.2500  11.0000  44.2500 Du        
   4573 ****       187.2500  11.0000  44.5000 Du        
   4574 ****       187.2500  11.0000  44.7500 Du        
   4575 ****       187.2500  11.0000  45.0000 Du        
   4576 ****       187.2500  11.0000  45.2500 Du        
   4577 ****       187.2500  11.0000  45.5000 Du        
   4578 ****       187.2500  11.0000  45.7500 Du        
   4579 ****       187.2500  11.0000  46.0000 Du        
   4580 ****       187.2500  11.0000  46.2500 Du        
   4581 ****       187.2500  11.2500  44.5000 Du        
   4582 ****       187.2500  11.2500  44.7500 Du        
   4583 ****       187.2500  11.2500  45.0000 Du        
   4584 ****       187.2500  11.2500  45.2500 Du        
   4585 ****       187.2500  11.2500  45.5000 Du        
   4586 ****       187.2500  11.2500  45.7500 Du        
   4587 ****       187.2500  11.2500  46.0000 Du        
   4588 ****       187.2500  11.2500  46.2500 Du        
   4589 ****       187.2500  11.2500  52.2500 Du        
   4590 ****       187.2500  11.2500  52.5000 Du        
   4591 ****       187.2500  11.5000  45.0000 Du        
   4592 ****       187.2500  11.5000  52.0000 Du        
   4593 ****       187.2500  11.5000  52.2500 Du        
   4594 ****       187.2500  11.5000  52.5000 Du        
   4595 ****       187.2500  11.5000  52.7500 Du        
   4596 ****       187.2500  11.5000  53.0000 Du        
   4597 ****       187.2500  11.7500  51.7500 Du        
   4598 ****       187.2500  11.7500  52.0000 Du        
   4599 ****       187.2500  11.7500  52.2500 Du        
   4600 ****       187.2500  11.7500  52.5000 Du        
   4601 ****       187.2500  11.7500  52.7500 Du        
   4602 ****       187.2500  11.7500  53.0000 Du        
   4603 ****       187.2500  11.7500  53.2500 Du        
   4604 ****       187.2500  12.0000  51.7500 Du        
   4605 ****       187.2500  12.0000  52.0000 Du        
   4606 ****       187.2500  12.0000  52.2500 Du        
   4607 ****       187.2500  12.0000  52.5000 Du        
   4608 ****       187.2500  12.0000  52.7500 Du        
   4609 ****       187.2500  12.0000  53.0000 Du        
   4610 ****       187.2500  12.0000  53.2500 Du        
   4611 ****       187.2500  12.2500  51.5000 Du        
   4612 ****       187.2500  12.2500  51.7500 Du        
   4613 ****       187.2500  12.2500  52.0000 Du        
   4614 ****       187.2500  12.2500  52.2500 Du        
   4615 ****       187.2500  12.2500  52.5000 Du        
   4616 ****       187.2500  12.2500  52.7500 Du        
   4617 ****       187.2500  12.2500  53.0000 Du        
   4618 ****       187.2500  12.2500  53.2500 Du        
   4619 ****       187.2500  12.5000  51.2500 Du        
   4620 ****       187.2500  12.5000  51.5000 Du        
   4621 ****       187.2500  12.5000  51.7500 Du        
   4622 ****       187.2500  12.5000  52.0000 Du        
   4623 ****       187.2500  12.5000  52.2500 Du        
   4624 ****       187.2500  12.5000  52.5000 Du        
   4625 ****       187.2500  12.5000  52.7500 Du        
   4626 ****       187.2500  12.5000  53.0000 Du        
   4627 ****       187.2500  12.7500  51.0000 Du        
   4628 ****       187.2500  12.7500  51.2500 Du        
   4629 ****       187.2500  12.7500  51.5000 Du        
   4630 ****       187.2500  12.7500  51.7500 Du        
   4631 ****       187.2500  12.7500  52.0000 Du        
   4632 ****       187.2500  12.7500  52.2500 Du        
   4633 ****       187.2500  12.7500  52.5000 Du        
   4634 ****       187.2500  12.7500  52.7500 Du        
   4635 ****       187.2500  13.0000  51.0000 Du        
   4636 ****       187.2500  13.0000  51.2500 Du        
   4637 ****       187.2500  13.0000  51.5000 Du        
   4638 ****       187.2500  13.0000  51.7500 Du        
   4639 ****       187.2500  13.0000  52.0000 Du        
   4640 ****       187.2500  13.0000  52.2500 Du        
   4641 ****       187.2500  13.0000  52.5000 Du        
   4642 ****       187.2500  13.0000  52.7500 Du        
   4643 ****       187.2500  13.2500  50.7500 Du        
   4644 ****       187.2500  13.2500  51.0000 Du        
   4645 ****       187.2500  13.2500  51.2500 Du        
   4646 ****       187.2500  13.2500  51.5000 Du        
   4647 ****       187.2500  13.2500  51.7500 Du        
   4648 ****       187.2500  13.2500  52.0000 Du        
   4649 ****       187.2500  13.2500  52.2500 Du        
   4650 ****       187.2500  13.2500  52.5000 Du        
   4651 ****       187.2500  13.5000  50.7500 Du        
   4652 ****       187.2500  13.5000  51.0000 Du        
   4653 ****       187.2500  13.5000  51.2500 Du        
   4654 ****       187.2500  13.5000  51.5000 Du        
   4655 ****       187.2500  13.5000  51.7500 Du        
   4656 ****       187.2500  13.5000  52.0000 Du        
   4657 ****       187.2500  13.5000  52.2500 Du        
   4658 ****       187.2500  13.7500  50.7500 Du        
   4659 ****       187.2500  13.7500  51.0000 Du        
   4660 ****       187.2500  13.7500  51.2500 Du        
   4661 ****       187.2500  13.7500  51.5000 Du        
   4662 ****       187.2500  13.7500  51.7500 Du        
   4663 ****       187.2500  13.7500  52.0000 Du        
   4664 ****       187.2500  13.7500  52.2500 Du        
   4665 ****       187.2500  14.0000  50.5000 Du        
   4666 ****       187.2500  14.0000  50.7500 Du        
   4667 ****       187.2500  14.0000  51.0000 Du        
   4668 ****       187.2500  14.0000  51.2500 Du        
   4669 ****       187.2500  14.0000  51.5000 Du        
   4670 ****       187.2500  14.0000  51.7500 Du        
   4671 ****       187.2500  14.0000  52.0000 Du        
   4672 ****       187.2500  14.2500  50.2500 Du        
   4673 ****       187.2500  14.2500  50.5000 Du        
   4674 ****       187.2500  14.2500  50.7500 Du        
   4675 ****       187.2500  14.2500  51.0000 Du        
   4676 ****       187.2500  14.2500  51.2500 Du        
   4677 ****       187.2500  14.2500  51.5000 Du        
   4678 ****       187.2500  14.2500  51.7500 Du        
   4679 ****       187.2500  14.2500  52.0000 Du        
   4680 ****       187.2500  14.5000  50.2500 Du        
   4681 ****       187.2500  14.5000  50.5000 Du        
   4682 ****       187.2500  14.5000  50.7500 Du        
   4683 ****       187.2500  14.5000  51.0000 Du        
   4684 ****       187.2500  14.5000  51.2500 Du        
   4685 ****       187.2500  14.5000  51.5000 Du        
   4686 ****       187.2500  14.5000  51.7500 Du        
   4687 ****       187.2500  14.7500  50.2500 Du        
   4688 ****       187.2500  14.7500  50.5000 Du        
   4689 ****       187.2500  14.7500  50.7500 Du        
   4690 ****       187.2500  14.7500  51.0000 Du        
   4691 ****       187.2500  14.7500  51.2500 Du        
   4692 ****       187.2500  14.7500  51.5000 Du        
   4693 ****       187.2500  14.7500  51.7500 Du        
   4694 ****       187.2500  15.0000  50.2500 Du        
   4695 ****       187.2500  15.0000  50.5000 Du        
   4696 ****       187.2500  15.0000  50.7500 Du        
   4697 ****       187.2500  15.0000  51.0000 Du        
   4698 ****       187.2500  15.0000  51.2500 Du        
   4699 ****       187.2500  15.0000  51.5000 Du        
   4700 ****       187.2500  15.2500  50.0000 Du        
   4701 ****       187.2500  15.2500  50.2500 Du        
   4702 ****       187.2500  15.2500  50.5000 Du        
   4703 ****       187.2500  15.2500  50.7500 Du        
   4704 ****       187.2500  15.2500  51.0000 Du        
   4705 ****       187.2500  15.2500  51.2500 Du        
   4706 ****       187.2500  15.5000  50.2500 Du        
   4707 ****       187.2500  15.5000  50.5000 Du        
   4708 ****       187.2500  15.5000  50.7500 Du        
   4709 ****       187.2500  15.5000  51.0000 Du        
   4710 ****       187.2500  15.7500  50.5000 Du        
   4711 ****       187.2500  18.5000  49.5000 Du        
   4712 ****       187.2500  18.7500  49.2500 Du        
   4713 ****       187.2500  18.7500  49.5000 Du        
   4714 ****       187.2500  18.7500  49.7500 Du        
   4715 ****       187.2500  19.0000  49.0000 Du        
   4716 ****       187.2500  19.0000  49.2500 Du        
   4717 ****       187.2500  19.0000  49.5000 Du        
   4718 ****       187.2500  19.0000  49.7500 Du        
   4719 ****       187.2500  19.0000  50.0000 Du        
   4720 ****       187.2500  19.2500  49.0000 Du        
   4721 ****       187.2500  19.2500  49.2500 Du        
   4722 ****       187.2500  19.2500  49.5000 Du        
   4723 ****       187.2500  19.2500  49.7500 Du        
   4724 ****       187.2500  19.2500  50.0000 Du        
   4725 ****       187.2500  19.2500  50.2500 Du        
   4726 ****       187.2500  19.5000  49.0000 Du        
   4727 ****       187.2500  19.5000  49.2500 Du        
   4728 ****       187.2500  19.5000  49.5000 Du        
   4729 ****       187.2500  19.5000  49.7500 Du        
   4730 ****       187.2500  19.5000  50.0000 Du        
   4731 ****       187.2500  19.5000  50.2500 Du        
   4732 ****       187.2500  19.5000  50.5000 Du        
   4733 ****       187.2500  19.7500  49.0000 Du        
   4734 ****       187.2500  19.7500  49.2500 Du        
   4735 ****       187.2500  19.7500  49.5000 Du        
   4736 ****       187.2500  19.7500  49.7500 Du        
   4737 ****       187.2500  19.7500  50.0000 Du        
   4738 ****       187.2500  19.7500  50.2500 Du        
   4739 ****       187.2500  19.7500  50.5000 Du        
   4740 ****       187.2500  20.0000  49.0000 Du        
   4741 ****       187.2500  20.0000  49.2500 Du        
   4742 ****       187.2500  20.0000  49.5000 Du        
   4743 ****       187.2500  20.0000  49.7500 Du        
   4744 ****       187.2500  20.0000  50.0000 Du        
   4745 ****       187.2500  20.0000  50.2500 Du        
   4746 ****       187.2500  20.0000  50.5000 Du        
   4747 ****       187.2500  20.0000  50.7500 Du        
   4748 ****       187.2500  20.2500  49.2500 Du        
   4749 ****       187.2500  20.2500  49.5000 Du        
   4750 ****       187.2500  20.2500  49.7500 Du        
   4751 ****       187.2500  20.2500  50.0000 Du        
   4752 ****       187.2500  20.2500  50.2500 Du        
   4753 ****       187.2500  20.2500  50.5000 Du        
   4754 ****       187.2500  20.2500  50.7500 Du        
   4755 ****       187.2500  20.2500  51.0000 Du        
   4756 ****       187.2500  20.5000  49.5000 Du        
   4757 ****       187.2500  20.5000  49.7500 Du        
   4758 ****       187.2500  20.5000  50.0000 Du        
   4759 ****       187.2500  20.5000  50.2500 Du        
   4760 ****       187.2500  20.5000  50.5000 Du        
   4761 ****       187.2500  20.5000  50.7500 Du        
   4762 ****       187.2500  20.5000  51.0000 Du        
   4763 ****       187.2500  20.5000  51.2500 Du        
   4764 ****       187.2500  20.7500  50.0000 Du        
   4765 ****       187.2500  20.7500  50.2500 Du        
   4766 ****       187.2500  20.7500  50.5000 Du        
   4767 ****       187.2500  20.7500  50.7500 Du        
   4768 ****       187.2500  20.7500  51.0000 Du        
   4769 ****       187.2500  20.7500  51.2500 Du        
   4770 ****       187.2500  21.0000  50.2500 Du        
   4771 ****       187.2500  21.0000  50.5000 Du        
   4772 ****       187.2500  21.0000  50.7500 Du        
   4773 ****       187.2500  21.0000  51.0000 Du        
   4774 ****       187.2500  21.0000  51.2500 Du        
   4775 ****       187.2500  21.2500  50.5000 Du        
   4776 ****       187.2500  21.2500  50.7500 Du        
   4777 ****       187.2500  21.2500  51.0000 Du        
   4778 ****       187.5000   3.0000  48.7500 Du        
   4779 ****       187.5000   3.0000  49.0000 Du        
   4780 ****       187.5000   3.0000  49.2500 Du        
   4781 ****       187.5000   3.0000  49.5000 Du        
   4782 ****       187.5000   3.0000  49.7500 Du        
   4783 ****       187.5000   3.0000  50.0000 Du        
   4784 ****       187.5000   3.0000  50.2500 Du        
   4785 ****       187.5000   3.0000  50.5000 Du        
   4786 ****       187.5000   3.0000  50.7500 Du        
   4787 ****       187.5000   3.0000  51.0000 Du        
   4788 ****       187.5000   3.0000  51.2500 Du        
   4789 ****       187.5000   3.2500  48.5000 Du        
   4790 ****       187.5000   3.2500  48.7500 Du        
   4791 ****       187.5000   3.2500  49.0000 Du        
   4792 ****       187.5000   3.2500  49.2500 Du        
   4793 ****       187.5000   3.2500  49.5000 Du        
   4794 ****       187.5000   3.2500  49.7500 Du        
   4795 ****       187.5000   3.2500  50.0000 Du        
   4796 ****       187.5000   3.2500  50.2500 Du        
   4797 ****       187.5000   3.2500  50.5000 Du        
   4798 ****       187.5000   3.2500  50.7500 Du        
   4799 ****       187.5000   3.2500  51.0000 Du        
   4800 ****       187.5000   3.2500  51.2500 Du        
   4801 ****       187.5000   3.2500  51.5000 Du        
   4802 ****       187.5000   3.2500  51.7500 Du        
   4803 ****       187.5000   3.2500  52.0000 Du        
   4804 ****       187.5000   3.5000  48.7500 Du        
   4805 ****       187.5000   3.5000  49.0000 Du        
   4806 ****       187.5000   3.5000  49.2500 Du        
   4807 ****       187.5000   3.5000  49.5000 Du        
   4808 ****       187.5000   3.5000  49.7500 Du        
   4809 ****       187.5000   3.5000  50.0000 Du        
   4810 ****       187.5000   3.5000  50.2500 Du        
   4811 ****       187.5000   3.5000  50.5000 Du        
   4812 ****       187.5000   3.5000  50.7500 Du        
   4813 ****       187.5000   3.5000  51.0000 Du        
   4814 ****       187.5000   3.5000  51.2500 Du        
   4815 ****       187.5000   3.5000  51.5000 Du        
   4816 ****       187.5000   3.5000  51.7500 Du        
   4817 ****       187.5000   3.5000  52.0000 Du        
   4818 ****       187.5000   3.5000  52.2500 Du        
   4819 ****       187.5000   3.7500  48.7500 Du        
   4820 ****       187.5000   3.7500  49.0000 Du        
   4821 ****       187.5000   3.7500  49.2500 Du        
   4822 ****       187.5000   3.7500  49.5000 Du        
   4823 ****       187.5000   3.7500  49.7500 Du        
   4824 ****       187.5000   3.7500  50.0000 Du        
   4825 ****       187.5000   3.7500  50.2500 Du        
   4826 ****       187.5000   3.7500  50.5000 Du        
   4827 ****       187.5000   3.7500  50.7500 Du        
   4828 ****       187.5000   3.7500  51.0000 Du        
   4829 ****       187.5000   3.7500  51.2500 Du        
   4830 ****       187.5000   3.7500  51.5000 Du        
   4831 ****       187.5000   3.7500  51.7500 Du        
   4832 ****       187.5000   3.7500  52.0000 Du        
   4833 ****       187.5000   3.7500  52.2500 Du        
   4834 ****       187.5000   3.7500  52.5000 Du        
   4835 ****       187.5000   3.7500  52.7500 Du        
   4836 ****       187.5000   4.0000  49.0000 Du        
   4837 ****       187.5000   4.0000  49.2500 Du        
   4838 ****       187.5000   4.0000  49.5000 Du        
   4839 ****       187.5000   4.0000  49.7500 Du        
   4840 ****       187.5000   4.0000  50.0000 Du        
   4841 ****       187.5000   4.0000  50.2500 Du        
   4842 ****       187.5000   4.0000  50.5000 Du        
   4843 ****       187.5000   4.0000  50.7500 Du        
   4844 ****       187.5000   4.0000  51.0000 Du        
   4845 ****       187.5000   4.0000  51.2500 Du        
   4846 ****       187.5000   4.0000  51.5000 Du        
   4847 ****       187.5000   4.0000  51.7500 Du        
   4848 ****       187.5000   4.0000  52.0000 Du        
   4849 ****       187.5000   4.0000  52.2500 Du        
   4850 ****       187.5000   4.0000  52.5000 Du        
   4851 ****       187.5000   4.0000  52.7500 Du        
   4852 ****       187.5000   4.2500  49.0000 Du        
   4853 ****       187.5000   4.2500  49.2500 Du        
   4854 ****       187.5000   4.2500  49.5000 Du        
   4855 ****       187.5000   4.2500  49.7500 Du        
   4856 ****       187.5000   4.2500  50.0000 Du        
   4857 ****       187.5000   4.2500  50.2500 Du        
   4858 ****       187.5000   4.2500  50.5000 Du        
   4859 ****       187.5000   4.2500  50.7500 Du        
   4860 ****       187.5000   4.2500  51.0000 Du        
   4861 ****       187.5000   4.2500  51.2500 Du        
   4862 ****       187.5000   4.2500  51.5000 Du        
   4863 ****       187.5000   4.2500  51.7500 Du        
   4864 ****       187.5000   4.2500  52.0000 Du        
   4865 ****       187.5000   4.2500  52.2500 Du        
   4866 ****       187.5000   4.2500  52.5000 Du        
   4867 ****       187.5000   4.2500  52.7500 Du        
   4868 ****       187.5000   4.2500  53.0000 Du        
   4869 ****       187.5000   4.5000  49.2500 Du        
   4870 ****       187.5000   4.5000  49.5000 Du        
   4871 ****       187.5000   4.5000  49.7500 Du        
   4872 ****       187.5000   4.5000  50.0000 Du        
   4873 ****       187.5000   4.5000  50.2500 Du        
   4874 ****       187.5000   4.5000  50.5000 Du        
   4875 ****       187.5000   4.5000  50.7500 Du        
   4876 ****       187.5000   4.5000  51.0000 Du        
   4877 ****       187.5000   4.5000  51.2500 Du        
   4878 ****       187.5000   4.5000  51.5000 Du        
   4879 ****       187.5000   4.5000  51.7500 Du        
   4880 ****       187.5000   4.5000  52.0000 Du        
   4881 ****       187.5000   4.5000  52.2500 Du        
   4882 ****       187.5000   4.5000  52.5000 Du        
   4883 ****       187.5000   4.5000  52.7500 Du        
   4884 ****       187.5000   4.7500  49.5000 Du        
   4885 ****       187.5000   4.7500  49.7500 Du        
   4886 ****       187.5000   4.7500  50.0000 Du        
   4887 ****       187.5000   4.7500  50.2500 Du        
   4888 ****       187.5000   4.7500  50.5000 Du        
   4889 ****       187.5000   4.7500  50.7500 Du        
   4890 ****       187.5000   4.7500  51.0000 Du        
   4891 ****       187.5000   4.7500  51.2500 Du        
   4892 ****       187.5000   4.7500  51.5000 Du        
   4893 ****       187.5000   4.7500  51.7500 Du        
   4894 ****       187.5000   4.7500  52.0000 Du        
   4895 ****       187.5000   4.7500  52.2500 Du        
   4896 ****       187.5000   4.7500  52.5000 Du        
   4897 ****       187.5000   5.0000  49.5000 Du        
   4898 ****       187.5000   5.0000  49.7500 Du        
   4899 ****       187.5000   5.0000  50.0000 Du        
   4900 ****       187.5000   5.0000  50.2500 Du        
   4901 ****       187.5000   5.0000  50.5000 Du        
   4902 ****       187.5000   5.0000  50.7500 Du        
   4903 ****       187.5000   5.0000  51.0000 Du        
   4904 ****       187.5000   5.0000  51.2500 Du        
   4905 ****       187.5000   5.0000  51.5000 Du        
   4906 ****       187.5000   5.0000  51.7500 Du        
   4907 ****       187.5000   5.0000  52.0000 Du        
   4908 ****       187.5000   5.2500  49.5000 Du        
   4909 ****       187.5000   5.2500  49.7500 Du        
   4910 ****       187.5000   5.2500  50.0000 Du        
   4911 ****       187.5000   5.2500  50.2500 Du        
   4912 ****       187.5000   5.2500  50.5000 Du        
   4913 ****       187.5000   5.2500  50.7500 Du        
   4914 ****       187.5000   5.2500  51.0000 Du        
   4915 ****       187.5000   5.2500  51.2500 Du        
   4916 ****       187.5000   5.2500  51.5000 Du        
   4917 ****       187.5000   5.5000  49.5000 Du        
   4918 ****       187.5000   5.5000  49.7500 Du        
   4919 ****       187.5000   5.5000  50.0000 Du        
   4920 ****       187.5000   5.5000  50.2500 Du        
   4921 ****       187.5000   5.5000  50.5000 Du        
   4922 ****       187.5000   5.5000  50.7500 Du        
   4923 ****       187.5000   5.5000  51.0000 Du        
   4924 ****       187.5000   5.7500  49.5000 Du        
   4925 ****       187.5000   5.7500  49.7500 Du        
   4926 ****       187.5000   5.7500  50.0000 Du        
   4927 ****       187.5000   5.7500  50.2500 Du        
   4928 ****       187.5000   5.7500  50.5000 Du        
   4929 ****       187.5000   5.7500  50.7500 Du        
   4930 ****       187.5000   6.0000  49.5000 Du        
   4931 ****       187.5000   6.0000  49.7500 Du        
   4932 ****       187.5000   6.0000  50.0000 Du        
   4933 ****       187.5000   6.0000  50.2500 Du        
   4934 ****       187.5000   6.0000  50.5000 Du        
   4935 ****       187.5000   6.0000  50.7500 Du        
   4936 ****       187.5000   6.2500  49.5000 Du        
   4937 ****       187.5000   6.2500  49.7500 Du        
   4938 ****       187.5000   6.2500  50.0000 Du        
   4939 ****       187.5000   6.2500  50.2500 Du        
   4940 ****       187.5000   6.2500  50.5000 Du        
   4941 ****       187.5000   6.5000  49.5000 Du        
   4942 ****       187.5000   6.5000  49.7500 Du        
   4943 ****       187.5000   6.5000  50.0000 Du        
   4944 ****       187.5000   6.5000  50.2500 Du        
   4945 ****       187.5000   6.7500  49.2500 Du        
   4946 ****       187.5000   6.7500  49.5000 Du        
   4947 ****       187.5000   6.7500  49.7500 Du        
   4948 ****       187.5000   6.7500  50.0000 Du        
   4949 ****       187.5000   6.7500  50.2500 Du        
   4950 ****       187.5000   7.0000  49.2500 Du        
   4951 ****       187.5000   7.0000  49.5000 Du        
   4952 ****       187.5000   7.0000  49.7500 Du        
   4953 ****       187.5000   7.0000  50.0000 Du        
   4954 ****       187.5000   7.0000  50.2500 Du        
   4955 ****       187.5000   7.2500  49.2500 Du        
   4956 ****       187.5000   7.2500  49.5000 Du        
   4957 ****       187.5000   7.2500  49.7500 Du        
   4958 ****       187.5000   7.2500  50.0000 Du        
   4959 ****       187.5000   7.2500  50.2500 Du        
   4960 ****       187.5000   7.5000  49.2500 Du        
   4961 ****       187.5000   7.5000  49.5000 Du        
   4962 ****       187.5000   7.5000  49.7500 Du        
   4963 ****       187.5000   7.5000  50.0000 Du        
   4964 ****       187.5000   7.7500  49.0000 Du        
   4965 ****       187.5000   7.7500  49.2500 Du        
   4966 ****       187.5000   7.7500  49.5000 Du        
   4967 ****       187.5000   7.7500  49.7500 Du        
   4968 ****       187.5000   7.7500  50.0000 Du        
   4969 ****       187.5000   8.0000  49.0000 Du        
   4970 ****       187.5000   8.0000  49.2500 Du        
   4971 ****       187.5000   8.0000  49.5000 Du        
   4972 ****       187.5000   8.0000  49.7500 Du        
   4973 ****       187.5000   8.0000  50.0000 Du        
   4974 ****       187.5000   8.2500  49.0000 Du        
   4975 ****       187.5000   8.2500  49.2500 Du        
   4976 ****       187.5000   8.2500  49.5000 Du        
   4977 ****       187.5000   8.2500  49.7500 Du        
   4978 ****       187.5000   8.2500  50.0000 Du        
   4979 ****       187.5000   8.5000  48.7500 Du        
   4980 ****       187.5000   8.5000  49.0000 Du        
   4981 ****       187.5000   8.5000  49.2500 Du        
   4982 ****       187.5000   8.5000  49.5000 Du        
   4983 ****       187.5000   8.5000  49.7500 Du        
   4984 ****       187.5000   8.7500  48.7500 Du        
   4985 ****       187.5000   8.7500  49.0000 Du        
   4986 ****       187.5000   8.7500  49.2500 Du        
   4987 ****       187.5000   8.7500  49.5000 Du        
   4988 ****       187.5000   8.7500  49.7500 Du        
   4989 ****       187.5000   9.0000  48.5000 Du        
   4990 ****       187.5000   9.0000  48.7500 Du        
   4991 ****       187.5000   9.0000  49.0000 Du        
   4992 ****       187.5000   9.0000  49.2500 Du        
   4993 ****       187.5000   9.0000  49.5000 Du        
   4994 ****       187.5000   9.0000  49.7500 Du        
   4995 ****       187.5000   9.2500  48.2500 Du        
   4996 ****       187.5000   9.2500  48.5000 Du        
   4997 ****       187.5000   9.2500  48.7500 Du        
   4998 ****       187.5000   9.2500  49.0000 Du        
   4999 ****       187.5000   9.2500  49.2500 Du        
   5000 ****       187.5000   9.2500  49.5000 Du        
   5001 ****       187.5000   9.5000  48.2500 Du        
   5002 ****       187.5000   9.5000  48.5000 Du        
   5003 ****       187.5000   9.5000  48.7500 Du        
   5004 ****       187.5000   9.5000  49.0000 Du        
   5005 ****       187.5000   9.7500  45.0000 Du        
   5006 ****       187.5000   9.7500  45.2500 Du        
   5007 ****       187.5000   9.7500  48.0000 Du        
   5008 ****       187.5000   9.7500  48.2500 Du        
   5009 ****       187.5000   9.7500  48.7500 Du        
   5010 ****       187.5000  10.0000  44.5000 Du        
   5011 ****       187.5000  10.0000  44.7500 Du        
   5012 ****       187.5000  10.0000  45.0000 Du        
   5013 ****       187.5000  10.0000  45.2500 Du        
   5014 ****       187.5000  10.0000  45.5000 Du        
   5015 ****       187.5000  10.0000  45.7500 Du        
   5016 ****       187.5000  10.0000  46.0000 Du        
   5017 ****       187.5000  10.0000  46.2500 Du        
   5018 ****       187.5000  10.0000  48.0000 Du        
   5019 ****       187.5000  10.0000  48.2500 Du        
   5020 ****       187.5000  10.2500  44.2500 Du        
   5021 ****       187.5000  10.2500  44.5000 Du        
   5022 ****       187.5000  10.2500  44.7500 Du        
   5023 ****       187.5000  10.2500  45.0000 Du        
   5024 ****       187.5000  10.2500  45.2500 Du        
   5025 ****       187.5000  10.2500  45.5000 Du        
   5026 ****       187.5000  10.2500  45.7500 Du        
   5027 ****       187.5000  10.2500  46.0000 Du        
   5028 ****       187.5000  10.2500  46.2500 Du        
   5029 ****       187.5000  10.2500  46.5000 Du        
   5030 ****       187.5000  10.5000  44.2500 Du        
   5031 ****       187.5000  10.5000  44.5000 Du        
   5032 ****       187.5000  10.5000  44.7500 Du        
   5033 ****       187.5000  10.5000  45.0000 Du        
   5034 ****       187.5000  10.5000  45.2500 Du        
   5035 ****       187.5000  10.5000  45.5000 Du        
   5036 ****       187.5000  10.5000  45.7500 Du        
   5037 ****       187.5000  10.5000  46.0000 Du        
   5038 ****       187.5000  10.5000  46.2500 Du        
   5039 ****       187.5000  10.7500  44.2500 Du        
   5040 ****       187.5000  10.7500  44.5000 Du        
   5041 ****       187.5000  10.7500  44.7500 Du        
   5042 ****       187.5000  10.7500  45.0000 Du        
   5043 ****       187.5000  10.7500  45.2500 Du        
   5044 ****       187.5000  10.7500  45.5000 Du        
   5045 ****       187.5000  10.7500  45.7500 Du        
   5046 ****       187.5000  10.7500  46.0000 Du        
   5047 ****       187.5000  10.7500  46.2500 Du        
   5048 ****       187.5000  11.0000  44.5000 Du        
   5049 ****       187.5000  11.0000  44.7500 Du        
   5050 ****       187.5000  11.0000  45.0000 Du        
   5051 ****       187.5000  11.0000  45.2500 Du        
   5052 ****       187.5000  11.0000  45.5000 Du        
   5053 ****       187.5000  11.0000  45.7500 Du        
   5054 ****       187.5000  11.0000  46.0000 Du        
   5055 ****       187.5000  11.0000  46.2500 Du        
   5056 ****       187.5000  11.2500  44.5000 Du        
   5057 ****       187.5000  11.2500  44.7500 Du        
   5058 ****       187.5000  11.2500  45.0000 Du        
   5059 ****       187.5000  11.2500  45.2500 Du        
   5060 ****       187.5000  11.2500  45.5000 Du        
   5061 ****       187.5000  11.5000  44.7500 Du        
   5062 ****       187.5000  11.5000  45.0000 Du        
   5063 ****       187.5000  11.5000  52.5000 Du        
   5064 ****       187.5000  11.5000  52.7500 Du        
   5065 ****       187.5000  11.7500  52.5000 Du        
   5066 ****       187.5000  11.7500  52.7500 Du        
   5067 ****       187.5000  11.7500  53.0000 Du        
   5068 ****       187.5000  11.7500  53.2500 Du        
   5069 ****       187.5000  12.0000  52.2500 Du        
   5070 ****       187.5000  12.0000  52.5000 Du        
   5071 ****       187.5000  12.0000  52.7500 Du        
   5072 ****       187.5000  12.0000  53.0000 Du        
   5073 ****       187.5000  12.0000  53.2500 Du        
   5074 ****       187.5000  12.2500  52.0000 Du        
   5075 ****       187.5000  12.2500  52.2500 Du        
   5076 ****       187.5000  12.2500  52.5000 Du        
   5077 ****       187.5000  12.2500  52.7500 Du        
   5078 ****       187.5000  12.2500  53.0000 Du        
   5079 ****       187.5000  12.2500  53.2500 Du        
   5080 ****       187.5000  12.5000  51.7500 Du        
   5081 ****       187.5000  12.5000  52.0000 Du        
   5082 ****       187.5000  12.5000  52.2500 Du        
   5083 ****       187.5000  12.5000  52.5000 Du        
   5084 ****       187.5000  12.5000  52.7500 Du        
   5085 ****       187.5000  12.5000  53.0000 Du        
   5086 ****       187.5000  12.7500  51.5000 Du        
   5087 ****       187.5000  12.7500  51.7500 Du        
   5088 ****       187.5000  12.7500  52.0000 Du        
   5089 ****       187.5000  12.7500  52.2500 Du        
   5090 ****       187.5000  12.7500  52.5000 Du        
   5091 ****       187.5000  12.7500  52.7500 Du        
   5092 ****       187.5000  13.0000  51.2500 Du        
   5093 ****       187.5000  13.0000  51.5000 Du        
   5094 ****       187.5000  13.0000  51.7500 Du        
   5095 ****       187.5000  13.0000  52.0000 Du        
   5096 ****       187.5000  13.0000  52.2500 Du        
   5097 ****       187.5000  13.0000  52.5000 Du        
   5098 ****       187.5000  13.2500  51.0000 Du        
   5099 ****       187.5000  13.2500  51.2500 Du        
   5100 ****       187.5000  13.2500  51.5000 Du        
   5101 ****       187.5000  13.2500  51.7500 Du        
   5102 ****       187.5000  13.2500  52.0000 Du        
   5103 ****       187.5000  13.2500  52.2500 Du        
   5104 ****       187.5000  13.2500  52.5000 Du        
   5105 ****       187.5000  13.5000  50.7500 Du        
   5106 ****       187.5000  13.5000  51.0000 Du        
   5107 ****       187.5000  13.5000  51.2500 Du        
   5108 ****       187.5000  13.5000  51.5000 Du        
   5109 ****       187.5000  13.5000  51.7500 Du        
   5110 ****       187.5000  13.5000  52.0000 Du        
   5111 ****       187.5000  13.5000  52.2500 Du        
   5112 ****       187.5000  13.7500  50.5000 Du        
   5113 ****       187.5000  13.7500  50.7500 Du        
   5114 ****       187.5000  13.7500  51.0000 Du        
   5115 ****       187.5000  13.7500  51.2500 Du        
   5116 ****       187.5000  13.7500  51.5000 Du        
   5117 ****       187.5000  13.7500  51.7500 Du        
   5118 ****       187.5000  13.7500  52.0000 Du        
   5119 ****       187.5000  13.7500  52.2500 Du        
   5120 ****       187.5000  14.0000  50.5000 Du        
   5121 ****       187.5000  14.0000  50.7500 Du        
   5122 ****       187.5000  14.0000  51.0000 Du        
   5123 ****       187.5000  14.0000  51.2500 Du        
   5124 ****       187.5000  14.0000  51.5000 Du        
   5125 ****       187.5000  14.0000  51.7500 Du        
   5126 ****       187.5000  14.0000  52.0000 Du        
   5127 ****       187.5000  14.2500  50.5000 Du        
   5128 ****       187.5000  14.2500  50.7500 Du        
   5129 ****       187.5000  14.2500  51.0000 Du        
   5130 ****       187.5000  14.2500  51.2500 Du        
   5131 ****       187.5000  14.2500  51.5000 Du        
   5132 ****       187.5000  14.2500  51.7500 Du        
   5133 ****       187.5000  14.5000  50.5000 Du        
   5134 ****       187.5000  14.5000  50.7500 Du        
   5135 ****       187.5000  14.5000  51.0000 Du        
   5136 ****       187.5000  14.5000  51.2500 Du        
   5137 ****       187.5000  14.5000  51.5000 Du        
   5138 ****       187.5000  14.5000  51.7500 Du        
   5139 ****       187.5000  14.7500  50.5000 Du        
   5140 ****       187.5000  14.7500  50.7500 Du        
   5141 ****       187.5000  14.7500  51.0000 Du        
   5142 ****       187.5000  14.7500  51.2500 Du        
   5143 ****       187.5000  14.7500  51.5000 Du        
   5144 ****       187.5000  15.0000  50.5000 Du        
   5145 ****       187.5000  15.0000  50.7500 Du        
   5146 ****       187.5000  15.0000  51.0000 Du        
   5147 ****       187.5000  15.0000  51.2500 Du        
   5148 ****       187.5000  15.2500  50.2500 Du        
   5149 ****       187.5000  15.2500  50.5000 Du        
   5150 ****       187.5000  15.2500  50.7500 Du        
   5151 ****       187.5000  15.2500  51.0000 Du        
   5152 ****       187.5000  15.5000  50.5000 Du        
   5153 ****       187.5000  18.5000  49.5000 Du        
   5154 ****       187.5000  18.7500  49.5000 Du        
   5155 ****       187.5000  19.0000  49.2500 Du        
   5156 ****       187.5000  19.0000  49.5000 Du        
   5157 ****       187.5000  19.0000  49.7500 Du        
   5158 ****       187.5000  19.0000  50.0000 Du        
   5159 ****       187.5000  19.2500  49.0000 Du        
   5160 ****       187.5000  19.2500  49.2500 Du        
   5161 ****       187.5000  19.2500  49.5000 Du        
   5162 ****       187.5000  19.2500  49.7500 Du        
   5163 ****       187.5000  19.2500  50.0000 Du        
   5164 ****       187.5000  19.2500  50.2500 Du        
   5165 ****       187.5000  19.5000  49.0000 Du        
   5166 ****       187.5000  19.5000  49.2500 Du        
   5167 ****       187.5000  19.5000  49.5000 Du        
   5168 ****       187.5000  19.5000  49.7500 Du        
   5169 ****       187.5000  19.5000  50.0000 Du        
   5170 ****       187.5000  19.5000  50.2500 Du        
   5171 ****       187.5000  19.7500  49.0000 Du        
   5172 ****       187.5000  19.7500  49.2500 Du        
   5173 ****       187.5000  19.7500  49.5000 Du        
   5174 ****       187.5000  19.7500  49.7500 Du        
   5175 ****       187.5000  19.7500  50.0000 Du        
   5176 ****       187.5000  19.7500  50.2500 Du        
   5177 ****       187.5000  19.7500  50.5000 Du        
   5178 ****       187.5000  20.0000  49.2500 Du        
   5179 ****       187.5000  20.0000  49.5000 Du        
   5180 ****       187.5000  20.0000  49.7500 Du        
   5181 ****       187.5000  20.0000  50.0000 Du        
   5182 ****       187.5000  20.0000  50.2500 Du        
   5183 ****       187.5000  20.0000  50.5000 Du        
   5184 ****       187.5000  20.0000  50.7500 Du        
   5185 ****       187.5000  20.2500  49.5000 Du        
   5186 ****       187.5000  20.2500  49.7500 Du        
   5187 ****       187.5000  20.2500  50.0000 Du        
   5188 ****       187.5000  20.2500  50.2500 Du        
   5189 ****       187.5000  20.2500  50.5000 Du        
   5190 ****       187.5000  20.2500  50.7500 Du        
   5191 ****       187.5000  20.2500  51.0000 Du        
   5192 ****       187.5000  20.5000  49.7500 Du        
   5193 ****       187.5000  20.5000  50.0000 Du        
   5194 ****       187.5000  20.5000  50.2500 Du        
   5195 ****       187.5000  20.5000  50.5000 Du        
   5196 ****       187.5000  20.5000  50.7500 Du        
   5197 ****       187.5000  20.5000  51.0000 Du        
   5198 ****       187.5000  20.7500  50.0000 Du        
   5199 ****       187.5000  20.7500  50.2500 Du        
   5200 ****       187.5000  20.7500  50.5000 Du        
   5201 ****       187.5000  20.7500  50.7500 Du        
   5202 ****       187.5000  20.7500  51.0000 Du        
   5203 ****       187.5000  21.0000  50.2500 Du        
   5204 ****       187.5000  21.0000  50.5000 Du        
   5205 ****       187.5000  21.0000  50.7500 Du        
   5206 ****       187.5000  21.0000  51.0000 Du        
   5207 ****       187.5000  21.2500  50.5000 Du        
   5208 ****       187.5000  21.2500  50.7500 Du        
   5209 ****       187.7500   2.5000  51.0000 Du        
   5210 ****       187.7500   2.5000  51.2500 Du        
   5211 ****       187.7500   2.5000  51.5000 Du        
   5212 ****       187.7500   2.7500  48.5000 Du        
   5213 ****       187.7500   2.7500  48.7500 Du        
   5214 ****       187.7500   2.7500  49.0000 Du        
   5215 ****       187.7500   2.7500  49.2500 Du        
   5216 ****       187.7500   2.7500  49.5000 Du        
   5217 ****       187.7500   2.7500  49.7500 Du        
   5218 ****       187.7500   2.7500  50.0000 Du        
   5219 ****       187.7500   2.7500  50.2500 Du        
   5220 ****       187.7500   2.7500  50.5000 Du        
   5221 ****       187.7500   2.7500  50.7500 Du        
   5222 ****       187.7500   2.7500  51.0000 Du        
   5223 ****       187.7500   2.7500  51.2500 Du        
   5224 ****       187.7500   2.7500  51.5000 Du        
   5225 ****       187.7500   2.7500  51.7500 Du        
   5226 ****       187.7500   2.7500  52.0000 Du        
   5227 ****       187.7500   3.0000  48.2500 Du        
   5228 ****       187.7500   3.0000  48.5000 Du        
   5229 ****       187.7500   3.0000  48.7500 Du        
   5230 ****       187.7500   3.0000  49.0000 Du        
   5231 ****       187.7500   3.0000  49.2500 Du        
   5232 ****       187.7500   3.0000  49.5000 Du        
   5233 ****       187.7500   3.0000  49.7500 Du        
   5234 ****       187.7500   3.0000  50.0000 Du        
   5235 ****       187.7500   3.0000  50.2500 Du        
   5236 ****       187.7500   3.0000  50.5000 Du        
   5237 ****       187.7500   3.0000  50.7500 Du        
   5238 ****       187.7500   3.0000  51.0000 Du        
   5239 ****       187.7500   3.0000  51.2500 Du        
   5240 ****       187.7500   3.0000  51.5000 Du        
   5241 ****       187.7500   3.0000  51.7500 Du        
   5242 ****       187.7500   3.0000  52.0000 Du        
   5243 ****       187.7500   3.2500  48.2500 Du        
   5244 ****       187.7500   3.2500  48.5000 Du        
   5245 ****       187.7500   3.2500  48.7500 Du        
   5246 ****       187.7500   3.2500  49.0000 Du        
   5247 ****       187.7500   3.2500  49.2500 Du        
   5248 ****       187.7500   3.2500  49.5000 Du        
   5249 ****       187.7500   3.2500  49.7500 Du        
   5250 ****       187.7500   3.2500  50.0000 Du        
   5251 ****       187.7500   3.2500  50.2500 Du        
   5252 ****       187.7500   3.2500  50.5000 Du        
   5253 ****       187.7500   3.2500  50.7500 Du        
   5254 ****       187.7500   3.2500  51.0000 Du        
   5255 ****       187.7500   3.2500  51.2500 Du        
   5256 ****       187.7500   3.2500  51.5000 Du        
   5257 ****       187.7500   3.2500  51.7500 Du        
   5258 ****       187.7500   3.2500  52.0000 Du        
   5259 ****       187.7500   3.2500  52.2500 Du        
   5260 ****       187.7500   3.5000  48.5000 Du        
   5261 ****       187.7500   3.5000  48.7500 Du        
   5262 ****       187.7500   3.5000  49.0000 Du        
   5263 ****       187.7500   3.5000  49.2500 Du        
   5264 ****       187.7500   3.5000  49.5000 Du        
   5265 ****       187.7500   3.5000  49.7500 Du        
   5266 ****       187.7500   3.5000  50.0000 Du        
   5267 ****       187.7500   3.5000  50.2500 Du        
   5268 ****       187.7500   3.5000  50.5000 Du        
   5269 ****       187.7500   3.5000  50.7500 Du        
   5270 ****       187.7500   3.5000  51.0000 Du        
   5271 ****       187.7500   3.5000  51.2500 Du        
   5272 ****       187.7500   3.5000  51.5000 Du        
   5273 ****       187.7500   3.5000  51.7500 Du        
   5274 ****       187.7500   3.5000  52.0000 Du        
   5275 ****       187.7500   3.5000  52.2500 Du        
   5276 ****       187.7500   3.5000  52.5000 Du        
   5277 ****       187.7500   3.7500  48.7500 Du        
   5278 ****       187.7500   3.7500  49.0000 Du        
   5279 ****       187.7500   3.7500  49.2500 Du        
   5280 ****       187.7500   3.7500  49.5000 Du        
   5281 ****       187.7500   3.7500  49.7500 Du        
   5282 ****       187.7500   3.7500  50.0000 Du        
   5283 ****       187.7500   3.7500  50.2500 Du        
   5284 ****       187.7500   3.7500  50.5000 Du        
   5285 ****       187.7500   3.7500  50.7500 Du        
   5286 ****       187.7500   3.7500  51.0000 Du        
   5287 ****       187.7500   3.7500  51.2500 Du        
   5288 ****       187.7500   3.7500  51.5000 Du        
   5289 ****       187.7500   3.7500  51.7500 Du        
   5290 ****       187.7500   3.7500  52.0000 Du        
   5291 ****       187.7500   3.7500  52.2500 Du        
   5292 ****       187.7500   3.7500  52.5000 Du        
   5293 ****       187.7500   3.7500  52.7500 Du        
   5294 ****       187.7500   4.0000  49.0000 Du        
   5295 ****       187.7500   4.0000  49.2500 Du        
   5296 ****       187.7500   4.0000  49.5000 Du        
   5297 ****       187.7500   4.0000  49.7500 Du        
   5298 ****       187.7500   4.0000  50.0000 Du        
   5299 ****       187.7500   4.0000  50.2500 Du        
   5300 ****       187.7500   4.0000  50.5000 Du        
   5301 ****       187.7500   4.0000  50.7500 Du        
   5302 ****       187.7500   4.0000  51.0000 Du        
   5303 ****       187.7500   4.0000  51.2500 Du        
   5304 ****       187.7500   4.0000  51.5000 Du        
   5305 ****       187.7500   4.0000  51.7500 Du        
   5306 ****       187.7500   4.0000  52.0000 Du        
   5307 ****       187.7500   4.0000  52.2500 Du        
   5308 ****       187.7500   4.0000  52.5000 Du        
   5309 ****       187.7500   4.0000  52.7500 Du        
   5310 ****       187.7500   4.0000  53.0000 Du        
   5311 ****       187.7500   4.2500  49.0000 Du        
   5312 ****       187.7500   4.2500  49.2500 Du        
   5313 ****       187.7500   4.2500  49.5000 Du        
   5314 ****       187.7500   4.2500  49.7500 Du        
   5315 ****       187.7500   4.2500  50.0000 Du        
   5316 ****       187.7500   4.2500  50.2500 Du        
   5317 ****       187.7500   4.2500  50.5000 Du        
   5318 ****       187.7500   4.2500  50.7500 Du        
   5319 ****       187.7500   4.2500  51.0000 Du        
   5320 ****       187.7500   4.2500  51.2500 Du        
   5321 ****       187.7500   4.2500  51.5000 Du        
   5322 ****       187.7500   4.2500  51.7500 Du        
   5323 ****       187.7500   4.2500  52.0000 Du        
   5324 ****       187.7500   4.2500  52.2500 Du        
   5325 ****       187.7500   4.2500  52.5000 Du        
   5326 ****       187.7500   4.2500  52.7500 Du        
   5327 ****       187.7500   4.2500  53.0000 Du        
   5328 ****       187.7500   4.5000  49.2500 Du        
   5329 ****       187.7500   4.5000  49.5000 Du        
   5330 ****       187.7500   4.5000  49.7500 Du        
   5331 ****       187.7500   4.5000  50.0000 Du        
   5332 ****       187.7500   4.5000  50.2500 Du        
   5333 ****       187.7500   4.5000  50.5000 Du        
   5334 ****       187.7500   4.5000  50.7500 Du        
   5335 ****       187.7500   4.5000  51.0000 Du        
   5336 ****       187.7500   4.5000  51.2500 Du        
   5337 ****       187.7500   4.5000  51.5000 Du        
   5338 ****       187.7500   4.5000  51.7500 Du        
   5339 ****       187.7500   4.5000  52.0000 Du        
   5340 ****       187.7500   4.5000  52.2500 Du        
   5341 ****       187.7500   4.5000  52.5000 Du        
   5342 ****       187.7500   4.5000  52.7500 Du        
   5343 ****       187.7500   4.7500  49.2500 Du        
   5344 ****       187.7500   4.7500  49.5000 Du        
   5345 ****       187.7500   4.7500  49.7500 Du        
   5346 ****       187.7500   4.7500  50.0000 Du        
   5347 ****       187.7500   4.7500  50.2500 Du        
   5348 ****       187.7500   4.7500  50.5000 Du        
   5349 ****       187.7500   4.7500  50.7500 Du        
   5350 ****       187.7500   4.7500  51.0000 Du        
   5351 ****       187.7500   4.7500  51.2500 Du        
   5352 ****       187.7500   4.7500  51.5000 Du        
   5353 ****       187.7500   4.7500  51.7500 Du        
   5354 ****       187.7500   4.7500  52.0000 Du        
   5355 ****       187.7500   4.7500  52.2500 Du        
   5356 ****       187.7500   4.7500  52.5000 Du        
   5357 ****       187.7500   5.0000  49.5000 Du        
   5358 ****       187.7500   5.0000  49.7500 Du        
   5359 ****       187.7500   5.0000  50.0000 Du        
   5360 ****       187.7500   5.0000  50.2500 Du        
   5361 ****       187.7500   5.0000  50.5000 Du        
   5362 ****       187.7500   5.0000  50.7500 Du        
   5363 ****       187.7500   5.0000  51.0000 Du        
   5364 ****       187.7500   5.0000  51.2500 Du        
   5365 ****       187.7500   5.0000  51.5000 Du        
   5366 ****       187.7500   5.0000  51.7500 Du        
   5367 ****       187.7500   5.0000  52.0000 Du        
   5368 ****       187.7500   5.2500  49.5000 Du        
   5369 ****       187.7500   5.2500  49.7500 Du        
   5370 ****       187.7500   5.2500  50.0000 Du        
   5371 ****       187.7500   5.2500  50.2500 Du        
   5372 ****       187.7500   5.2500  50.5000 Du        
   5373 ****       187.7500   5.2500  50.7500 Du        
   5374 ****       187.7500   5.2500  51.0000 Du        
   5375 ****       187.7500   5.2500  51.2500 Du        
   5376 ****       187.7500   5.2500  51.5000 Du        
   5377 ****       187.7500   5.2500  51.7500 Du        
   5378 ****       187.7500   5.5000  49.5000 Du        
   5379 ****       187.7500   5.5000  49.7500 Du        
   5380 ****       187.7500   5.5000  50.0000 Du        
   5381 ****       187.7500   5.5000  50.2500 Du        
   5382 ****       187.7500   5.5000  50.5000 Du        
   5383 ****       187.7500   5.5000  50.7500 Du        
   5384 ****       187.7500   5.5000  51.0000 Du        
   5385 ****       187.7500   5.5000  51.2500 Du        
   5386 ****       187.7500   5.7500  49.5000 Du        
   5387 ****       187.7500   5.7500  49.7500 Du        
   5388 ****       187.7500   5.7500  50.0000 Du        
   5389 ****       187.7500   5.7500  50.2500 Du        
   5390 ****       187.7500   5.7500  50.5000 Du        
   5391 ****       187.7500   5.7500  50.7500 Du        
   5392 ****       187.7500   5.7500  51.0000 Du        
   5393 ****       187.7500   6.0000  49.5000 Du        
   5394 ****       187.7500   6.0000  49.7500 Du        
   5395 ****       187.7500   6.0000  50.0000 Du        
   5396 ****       187.7500   6.0000  50.2500 Du        
   5397 ****       187.7500   6.0000  50.5000 Du        
   5398 ****       187.7500   6.0000  50.7500 Du        
   5399 ****       187.7500   6.2500  49.5000 Du        
   5400 ****       187.7500   6.2500  49.7500 Du        
   5401 ****       187.7500   6.2500  50.0000 Du        
   5402 ****       187.7500   6.2500  50.2500 Du        
   5403 ****       187.7500   6.2500  50.5000 Du        
   5404 ****       187.7500   6.5000  49.5000 Du        
   5405 ****       187.7500   6.5000  49.7500 Du        
   5406 ****       187.7500   6.5000  50.0000 Du        
   5407 ****       187.7500   6.5000  50.2500 Du        
   5408 ****       187.7500   6.5000  50.5000 Du        
   5409 ****       187.7500   6.7500  49.2500 Du        
   5410 ****       187.7500   6.7500  49.5000 Du        
   5411 ****       187.7500   6.7500  49.7500 Du        
   5412 ****       187.7500   6.7500  50.0000 Du        
   5413 ****       187.7500   6.7500  50.2500 Du        
   5414 ****       187.7500   7.0000  49.2500 Du        
   5415 ****       187.7500   7.0000  49.5000 Du        
   5416 ****       187.7500   7.0000  49.7500 Du        
   5417 ****       187.7500   7.0000  50.0000 Du        
   5418 ****       187.7500   7.0000  50.2500 Du        
   5419 ****       187.7500   7.2500  49.2500 Du        
   5420 ****       187.7500   7.2500  49.5000 Du        
   5421 ****       187.7500   7.2500  49.7500 Du        
   5422 ****       187.7500   7.2500  50.0000 Du        
   5423 ****       187.7500   7.2500  50.2500 Du        
   5424 ****       187.7500   7.5000  49.2500 Du        
   5425 ****       187.7500   7.5000  49.5000 Du        
   5426 ****       187.7500   7.5000  49.7500 Du        
   5427 ****       187.7500   7.5000  50.0000 Du        
   5428 ****       187.7500   7.7500  49.0000 Du        
   5429 ****       187.7500   7.7500  49.2500 Du        
   5430 ****       187.7500   7.7500  49.5000 Du        
   5431 ****       187.7500   7.7500  49.7500 Du        
   5432 ****       187.7500   7.7500  50.0000 Du        
   5433 ****       187.7500   8.0000  49.0000 Du        
   5434 ****       187.7500   8.0000  49.2500 Du        
   5435 ****       187.7500   8.0000  49.5000 Du        
   5436 ****       187.7500   8.0000  49.7500 Du        
   5437 ****       187.7500   8.2500  48.7500 Du        
   5438 ****       187.7500   8.2500  49.0000 Du        
   5439 ****       187.7500   8.2500  49.2500 Du        
   5440 ****       187.7500   8.2500  49.5000 Du        
   5441 ****       187.7500   8.2500  49.7500 Du        
   5442 ****       187.7500   8.5000  48.7500 Du        
   5443 ****       187.7500   8.5000  49.0000 Du        
   5444 ****       187.7500   8.5000  49.2500 Du        
   5445 ****       187.7500   8.5000  49.5000 Du        
   5446 ****       187.7500   8.5000  49.7500 Du        
   5447 ****       187.7500   8.7500  48.5000 Du        
   5448 ****       187.7500   8.7500  48.7500 Du        
   5449 ****       187.7500   8.7500  49.0000 Du        
   5450 ****       187.7500   8.7500  49.2500 Du        
   5451 ****       187.7500   8.7500  49.5000 Du        
   5452 ****       187.7500   9.0000  48.2500 Du        
   5453 ****       187.7500   9.0000  48.5000 Du        
   5454 ****       187.7500   9.0000  48.7500 Du        
   5455 ****       187.7500   9.0000  49.0000 Du        
   5456 ****       187.7500   9.0000  49.2500 Du        
   5457 ****       187.7500   9.2500  48.0000 Du        
   5458 ****       187.7500   9.2500  48.2500 Du        
   5459 ****       187.7500   9.2500  48.5000 Du        
   5460 ****       187.7500   9.2500  48.7500 Du        
   5461 ****       187.7500   9.2500  49.0000 Du        
   5462 ****       187.7500   9.2500  49.2500 Du        
   5463 ****       187.7500   9.5000  47.7500 Du        
   5464 ****       187.7500   9.5000  48.0000 Du        
   5465 ****       187.7500   9.5000  48.2500 Du        
   5466 ****       187.7500   9.5000  48.5000 Du        
   5467 ****       187.7500   9.5000  48.7500 Du        
   5468 ****       187.7500   9.5000  49.0000 Du        
   5469 ****       187.7500   9.7500  45.0000 Du        
   5470 ****       187.7500   9.7500  45.2500 Du        
   5471 ****       187.7500   9.7500  45.5000 Du        
   5472 ****       187.7500   9.7500  45.7500 Du        
   5473 ****       187.7500   9.7500  46.0000 Du        
   5474 ****       187.7500   9.7500  46.2500 Du        
   5475 ****       187.7500   9.7500  47.2500 Du        
   5476 ****       187.7500   9.7500  47.5000 Du        
   5477 ****       187.7500   9.7500  47.7500 Du        
   5478 ****       187.7500   9.7500  48.0000 Du        
   5479 ****       187.7500   9.7500  48.2500 Du        
   5480 ****       187.7500   9.7500  48.5000 Du        
   5481 ****       187.7500  10.0000  44.5000 Du        
   5482 ****       187.7500  10.0000  44.7500 Du        
   5483 ****       187.7500  10.0000  45.0000 Du        
   5484 ****       187.7500  10.0000  45.2500 Du        
   5485 ****       187.7500  10.0000  45.5000 Du        
   5486 ****       187.7500  10.0000  45.7500 Du        
   5487 ****       187.7500  10.0000  46.0000 Du        
   5488 ****       187.7500  10.0000  46.2500 Du        
   5489 ****       187.7500  10.0000  46.5000 Du        
   5490 ****       187.7500  10.0000  46.7500 Du        
   5491 ****       187.7500  10.0000  47.0000 Du        
   5492 ****       187.7500  10.0000  47.2500 Du        
   5493 ****       187.7500  10.0000  47.7500 Du        
   5494 ****       187.7500  10.0000  48.0000 Du        
   5495 ****       187.7500  10.2500  44.2500 Du        
   5496 ****       187.7500  10.2500  44.5000 Du        
   5497 ****       187.7500  10.2500  44.7500 Du        
   5498 ****       187.7500  10.2500  45.0000 Du        
   5499 ****       187.7500  10.2500  45.2500 Du        
   5500 ****       187.7500  10.2500  45.5000 Du        
   5501 ****       187.7500  10.2500  45.7500 Du        
   5502 ****       187.7500  10.2500  46.0000 Du        
   5503 ****       187.7500  10.2500  46.2500 Du        
   5504 ****       187.7500  10.2500  46.5000 Du        
   5505 ****       187.7500  10.2500  46.7500 Du        
   5506 ****       187.7500  10.2500  47.0000 Du        
   5507 ****       187.7500  10.2500  47.2500 Du        
   5508 ****       187.7500  10.2500  47.7500 Du        
   5509 ****       187.7500  10.5000  44.2500 Du        
   5510 ****       187.7500  10.5000  44.5000 Du        
   5511 ****       187.7500  10.5000  44.7500 Du        
   5512 ****       187.7500  10.5000  45.0000 Du        
   5513 ****       187.7500  10.5000  45.2500 Du        
   5514 ****       187.7500  10.5000  45.5000 Du        
   5515 ****       187.7500  10.5000  45.7500 Du        
   5516 ****       187.7500  10.5000  46.0000 Du        
   5517 ****       187.7500  10.5000  46.2500 Du        
   5518 ****       187.7500  10.7500  44.2500 Du        
   5519 ****       187.7500  10.7500  44.5000 Du        
   5520 ****       187.7500  10.7500  44.7500 Du        
   5521 ****       187.7500  10.7500  45.0000 Du        
   5522 ****       187.7500  10.7500  45.2500 Du        
   5523 ****       187.7500  10.7500  45.5000 Du        
   5524 ****       187.7500  10.7500  45.7500 Du        
   5525 ****       187.7500  10.7500  46.0000 Du        
   5526 ****       187.7500  10.7500  46.2500 Du        
   5527 ****       187.7500  11.0000  44.2500 Du        
   5528 ****       187.7500  11.0000  44.5000 Du        
   5529 ****       187.7500  11.0000  44.7500 Du        
   5530 ****       187.7500  11.0000  45.0000 Du        
   5531 ****       187.7500  11.0000  45.2500 Du        
   5532 ****       187.7500  11.0000  45.5000 Du        
   5533 ****       187.7500  11.0000  45.7500 Du        
   5534 ****       187.7500  11.0000  46.0000 Du        
   5535 ****       187.7500  11.0000  46.2500 Du        
   5536 ****       187.7500  11.2500  44.5000 Du        
   5537 ****       187.7500  11.2500  44.7500 Du        
   5538 ****       187.7500  11.2500  45.0000 Du        
   5539 ****       187.7500  11.2500  45.2500 Du        
   5540 ****       187.7500  11.2500  45.5000 Du        
   5541 ****       187.7500  11.2500  45.7500 Du        
   5542 ****       187.7500  11.2500  46.0000 Du        
   5543 ****       187.7500  11.2500  46.2500 Du        
   5544 ****       187.7500  11.5000  44.7500 Du        
   5545 ****       187.7500  11.5000  45.0000 Du        
   5546 ****       187.7500  11.7500  53.0000 Du        
   5547 ****       187.7500  12.0000  52.7500 Du        
   5548 ****       187.7500  12.0000  53.0000 Du        
   5549 ****       187.7500  12.0000  53.2500 Du        
   5550 ****       187.7500  12.2500  52.5000 Du        
   5551 ****       187.7500  12.2500  52.7500 Du        
   5552 ****       187.7500  12.2500  53.0000 Du        
   5553 ****       187.7500  12.5000  52.2500 Du        
   5554 ****       187.7500  12.5000  52.5000 Du        
   5555 ****       187.7500  12.5000  52.7500 Du        
   5556 ****       187.7500  12.5000  53.0000 Du        
   5557 ****       187.7500  12.7500  51.7500 Du        
   5558 ****       187.7500  12.7500  52.0000 Du        
   5559 ****       187.7500  12.7500  52.2500 Du        
   5560 ****       187.7500  12.7500  52.5000 Du        
   5561 ****       187.7500  12.7500  52.7500 Du        
   5562 ****       187.7500  13.0000  51.5000 Du        
   5563 ****       187.7500  13.0000  51.7500 Du        
   5564 ****       187.7500  13.0000  52.0000 Du        
   5565 ****       187.7500  13.0000  52.2500 Du        
   5566 ****       187.7500  13.0000  52.5000 Du        
   5567 ****       187.7500  13.2500  51.2500 Du        
   5568 ****       187.7500  13.2500  51.5000 Du        
   5569 ****       187.7500  13.2500  51.7500 Du        
   5570 ****       187.7500  13.2500  52.0000 Du        
   5571 ****       187.7500  13.2500  52.2500 Du        
   5572 ****       187.7500  13.2500  52.5000 Du        
   5573 ****       187.7500  13.5000  51.0000 Du        
   5574 ****       187.7500  13.5000  51.2500 Du        
   5575 ****       187.7500  13.5000  51.5000 Du        
   5576 ****       187.7500  13.5000  51.7500 Du        
   5577 ****       187.7500  13.5000  52.0000 Du        
   5578 ****       187.7500  13.5000  52.2500 Du        
   5579 ****       187.7500  13.7500  50.5000 Du        
   5580 ****       187.7500  13.7500  50.7500 Du        
   5581 ****       187.7500  13.7500  51.0000 Du        
   5582 ****       187.7500  13.7500  51.2500 Du        
   5583 ****       187.7500  13.7500  51.5000 Du        
   5584 ****       187.7500  13.7500  51.7500 Du        
   5585 ****       187.7500  13.7500  52.0000 Du        
   5586 ****       187.7500  13.7500  52.2500 Du        
   5587 ****       187.7500  14.0000  50.5000 Du        
   5588 ****       187.7500  14.0000  50.7500 Du        
   5589 ****       187.7500  14.0000  51.0000 Du        
   5590 ****       187.7500  14.0000  51.2500 Du        
   5591 ****       187.7500  14.0000  51.5000 Du        
   5592 ****       187.7500  14.0000  51.7500 Du        
   5593 ****       187.7500  14.0000  52.0000 Du        
   5594 ****       187.7500  14.2500  50.2500 Du        
   5595 ****       187.7500  14.2500  50.5000 Du        
   5596 ****       187.7500  14.2500  50.7500 Du        
   5597 ****       187.7500  14.2500  51.0000 Du        
   5598 ****       187.7500  14.2500  51.2500 Du        
   5599 ****       187.7500  14.2500  51.5000 Du        
   5600 ****       187.7500  14.2500  51.7500 Du        
   5601 ****       187.7500  14.5000  50.2500 Du        
   5602 ****       187.7500  14.5000  50.5000 Du        
   5603 ****       187.7500  14.5000  50.7500 Du        
   5604 ****       187.7500  14.5000  51.0000 Du        
   5605 ****       187.7500  14.5000  51.2500 Du        
   5606 ****       187.7500  14.5000  51.5000 Du        
   5607 ****       187.7500  14.7500  50.0000 Du        
   5608 ****       187.7500  14.7500  50.2500 Du        
   5609 ****       187.7500  14.7500  50.5000 Du        
   5610 ****       187.7500  14.7500  50.7500 Du        
   5611 ****       187.7500  14.7500  51.0000 Du        
   5612 ****       187.7500  14.7500  51.2500 Du        
   5613 ****       187.7500  15.0000  50.2500 Du        
   5614 ****       187.7500  15.0000  50.5000 Du        
   5615 ****       187.7500  15.0000  50.7500 Du        
   5616 ****       187.7500  15.0000  51.0000 Du        
   5617 ****       187.7500  15.2500  50.2500 Du        
   5618 ****       187.7500  15.2500  50.5000 Du        
   5619 ****       187.7500  15.2500  50.7500 Du        
   5620 ****       187.7500  18.7500  49.5000 Du        
   5621 ****       187.7500  19.0000  49.0000 Du        
   5622 ****       187.7500  19.0000  49.2500 Du        
   5623 ****       187.7500  19.0000  49.5000 Du        
   5624 ****       187.7500  19.0000  49.7500 Du        
   5625 ****       187.7500  19.2500  49.0000 Du        
   5626 ****       187.7500  19.2500  49.2500 Du        
   5627 ****       187.7500  19.2500  49.5000 Du        
   5628 ****       187.7500  19.2500  49.7500 Du        
   5629 ****       187.7500  19.2500  50.0000 Du        
   5630 ****       187.7500  19.5000  49.0000 Du        
   5631 ****       187.7500  19.5000  49.2500 Du        
   5632 ****       187.7500  19.5000  49.5000 Du        
   5633 ****       187.7500  19.5000  49.7500 Du        
   5634 ****       187.7500  19.5000  50.0000 Du        
   5635 ****       187.7500  19.5000  50.2500 Du        
   5636 ****       187.7500  19.7500  49.2500 Du        
   5637 ****       187.7500  19.7500  49.5000 Du        
   5638 ****       187.7500  19.7500  49.7500 Du        
   5639 ****       187.7500  19.7500  50.0000 Du        
   5640 ****       187.7500  19.7500  50.2500 Du        
   5641 ****       187.7500  19.7500  50.5000 Du        
   5642 ****       187.7500  20.0000  49.5000 Du        
   5643 ****       187.7500  20.0000  49.7500 Du        
   5644 ****       187.7500  20.0000  50.0000 Du        
   5645 ****       187.7500  20.0000  50.2500 Du        
   5646 ****       187.7500  20.0000  50.5000 Du        
   5647 ****       187.7500  20.0000  50.7500 Du        
   5648 ****       187.7500  20.2500  49.7500 Du        
   5649 ****       187.7500  20.2500  50.0000 Du        
   5650 ****       187.7500  20.2500  50.2500 Du        
   5651 ****       187.7500  20.2500  50.5000 Du        
   5652 ****       187.7500  20.2500  50.7500 Du        
   5653 ****       187.7500  20.2500  51.0000 Du        
   5654 ****       187.7500  20.5000  50.0000 Du        
   5655 ****       187.7500  20.5000  50.2500 Du        
   5656 ****       187.7500  20.5000  50.5000 Du        
   5657 ****       187.7500  20.5000  50.7500 Du        
   5658 ****       187.7500  20.5000  51.0000 Du        
   5659 ****       187.7500  20.7500  50.2500 Du        
   5660 ****       187.7500  20.7500  50.5000 Du        
   5661 ****       187.7500  20.7500  50.7500 Du        
   5662 ****       187.7500  20.7500  51.0000 Du        
   5663 ****       187.7500  21.0000  50.5000 Du        
   5664 ****       187.7500  21.0000  50.7500 Du        
   5665 ****       188.0000   2.5000  48.7500 Du        
   5666 ****       188.0000   2.5000  49.0000 Du        
   5667 ****       188.0000   2.5000  49.2500 Du        
   5668 ****       188.0000   2.5000  49.5000 Du        
   5669 ****       188.0000   2.5000  50.0000 Du        
   5670 ****       188.0000   2.5000  50.2500 Du        
   5671 ****       188.0000   2.5000  50.5000 Du        
   5672 ****       188.0000   2.5000  50.7500 Du        
   5673 ****       188.0000   2.5000  51.0000 Du        
   5674 ****       188.0000   2.5000  51.2500 Du        
   5675 ****       188.0000   2.5000  51.5000 Du        
   5676 ****       188.0000   2.5000  51.7500 Du        
   5677 ****       188.0000   2.7500  48.5000 Du        
   5678 ****       188.0000   2.7500  48.7500 Du        
   5679 ****       188.0000   2.7500  49.0000 Du        
   5680 ****       188.0000   2.7500  49.2500 Du        
   5681 ****       188.0000   2.7500  49.5000 Du        
   5682 ****       188.0000   2.7500  49.7500 Du        
   5683 ****       188.0000   2.7500  50.0000 Du        
   5684 ****       188.0000   2.7500  50.2500 Du        
   5685 ****       188.0000   2.7500  50.5000 Du        
   5686 ****       188.0000   2.7500  50.7500 Du        
   5687 ****       188.0000   2.7500  51.0000 Du        
   5688 ****       188.0000   2.7500  51.2500 Du        
   5689 ****       188.0000   2.7500  51.5000 Du        
   5690 ****       188.0000   2.7500  51.7500 Du        
   5691 ****       188.0000   2.7500  52.0000 Du        
   5692 ****       188.0000   3.0000  48.2500 Du        
   5693 ****       188.0000   3.0000  48.5000 Du        
   5694 ****       188.0000   3.0000  48.7500 Du        
   5695 ****       188.0000   3.0000  49.0000 Du        
   5696 ****       188.0000   3.0000  49.2500 Du        
   5697 ****       188.0000   3.0000  49.5000 Du        
   5698 ****       188.0000   3.0000  49.7500 Du        
   5699 ****       188.0000   3.0000  50.0000 Du        
   5700 ****       188.0000   3.0000  50.2500 Du        
   5701 ****       188.0000   3.0000  50.5000 Du        
   5702 ****       188.0000   3.0000  50.7500 Du        
   5703 ****       188.0000   3.0000  51.0000 Du        
   5704 ****       188.0000   3.0000  51.2500 Du        
   5705 ****       188.0000   3.0000  51.5000 Du        
   5706 ****       188.0000   3.0000  51.7500 Du        
   5707 ****       188.0000   3.0000  52.0000 Du        
   5708 ****       188.0000   3.0000  52.2500 Du        
   5709 ****       188.0000   3.2500  48.2500 Du        
   5710 ****       188.0000   3.2500  48.5000 Du        
   5711 ****       188.0000   3.2500  48.7500 Du        
   5712 ****       188.0000   3.2500  49.0000 Du        
   5713 ****       188.0000   3.2500  49.2500 Du        
   5714 ****       188.0000   3.2500  49.5000 Du        
   5715 ****       188.0000   3.2500  49.7500 Du        
   5716 ****       188.0000   3.2500  50.0000 Du        
   5717 ****       188.0000   3.2500  50.2500 Du        
   5718 ****       188.0000   3.2500  50.5000 Du        
   5719 ****       188.0000   3.2500  50.7500 Du        
   5720 ****       188.0000   3.2500  51.0000 Du        
   5721 ****       188.0000   3.2500  51.2500 Du        
   5722 ****       188.0000   3.2500  51.5000 Du        
   5723 ****       188.0000   3.2500  51.7500 Du        
   5724 ****       188.0000   3.2500  52.0000 Du        
   5725 ****       188.0000   3.2500  52.2500 Du        
   5726 ****       188.0000   3.2500  52.5000 Du        
   5727 ****       188.0000   3.5000  48.5000 Du        
   5728 ****       188.0000   3.5000  48.7500 Du        
   5729 ****       188.0000   3.5000  49.0000 Du        
   5730 ****       188.0000   3.5000  49.2500 Du        
   5731 ****       188.0000   3.5000  49.5000 Du        
   5732 ****       188.0000   3.5000  49.7500 Du        
   5733 ****       188.0000   3.5000  50.0000 Du        
   5734 ****       188.0000   3.5000  50.2500 Du        
   5735 ****       188.0000   3.5000  50.5000 Du        
   5736 ****       188.0000   3.5000  50.7500 Du        
   5737 ****       188.0000   3.5000  51.0000 Du        
   5738 ****       188.0000   3.5000  51.2500 Du        
   5739 ****       188.0000   3.5000  51.5000 Du        
   5740 ****       188.0000   3.5000  51.7500 Du        
   5741 ****       188.0000   3.5000  52.0000 Du        
   5742 ****       188.0000   3.5000  52.2500 Du        
   5743 ****       188.0000   3.5000  52.5000 Du        
   5744 ****       188.0000   3.7500  48.7500 Du        
   5745 ****       188.0000   3.7500  49.0000 Du        
   5746 ****       188.0000   3.7500  49.2500 Du        
   5747 ****       188.0000   3.7500  49.5000 Du        
   5748 ****       188.0000   3.7500  49.7500 Du        
   5749 ****       188.0000   3.7500  50.0000 Du        
   5750 ****       188.0000   3.7500  50.2500 Du        
   5751 ****       188.0000   3.7500  50.5000 Du        
   5752 ****       188.0000   3.7500  50.7500 Du        
   5753 ****       188.0000   3.7500  51.0000 Du        
   5754 ****       188.0000   3.7500  51.2500 Du        
   5755 ****       188.0000   3.7500  51.5000 Du        
   5756 ****       188.0000   3.7500  51.7500 Du        
   5757 ****       188.0000   3.7500  52.0000 Du        
   5758 ****       188.0000   3.7500  52.2500 Du        
   5759 ****       188.0000   3.7500  52.5000 Du        
   5760 ****       188.0000   3.7500  52.7500 Du        
   5761 ****       188.0000   4.0000  48.7500 Du        
   5762 ****       188.0000   4.0000  49.0000 Du        
   5763 ****       188.0000   4.0000  49.2500 Du        
   5764 ****       188.0000   4.0000  49.5000 Du        
   5765 ****       188.0000   4.0000  49.7500 Du        
   5766 ****       188.0000   4.0000  50.0000 Du        
   5767 ****       188.0000   4.0000  50.2500 Du        
   5768 ****       188.0000   4.0000  50.5000 Du        
   5769 ****       188.0000   4.0000  50.7500 Du        
   5770 ****       188.0000   4.0000  51.0000 Du        
   5771 ****       188.0000   4.0000  51.2500 Du        
   5772 ****       188.0000   4.0000  51.5000 Du        
   5773 ****       188.0000   4.0000  51.7500 Du        
   5774 ****       188.0000   4.0000  52.0000 Du        
   5775 ****       188.0000   4.0000  52.2500 Du        
   5776 ****       188.0000   4.0000  52.5000 Du        
   5777 ****       188.0000   4.0000  52.7500 Du        
   5778 ****       188.0000   4.0000  53.0000 Du        
   5779 ****       188.0000   4.2500  49.0000 Du        
   5780 ****       188.0000   4.2500  49.2500 Du        
   5781 ****       188.0000   4.2500  49.5000 Du        
   5782 ****       188.0000   4.2500  49.7500 Du        
   5783 ****       188.0000   4.2500  50.0000 Du        
   5784 ****       188.0000   4.2500  50.2500 Du        
   5785 ****       188.0000   4.2500  50.5000 Du        
   5786 ****       188.0000   4.2500  50.7500 Du        
   5787 ****       188.0000   4.2500  51.0000 Du        
   5788 ****       188.0000   4.2500  51.2500 Du        
   5789 ****       188.0000   4.2500  51.5000 Du        
   5790 ****       188.0000   4.2500  51.7500 Du        
   5791 ****       188.0000   4.2500  52.0000 Du        
   5792 ****       188.0000   4.2500  52.2500 Du        
   5793 ****       188.0000   4.2500  52.5000 Du        
   5794 ****       188.0000   4.2500  52.7500 Du        
   5795 ****       188.0000   4.2500  53.0000 Du        
   5796 ****       188.0000   4.5000  49.2500 Du        
   5797 ****       188.0000   4.5000  49.5000 Du        
   5798 ****       188.0000   4.5000  49.7500 Du        
   5799 ****       188.0000   4.5000  50.0000 Du        
   5800 ****       188.0000   4.5000  50.2500 Du        
   5801 ****       188.0000   4.5000  50.5000 Du        
   5802 ****       188.0000   4.5000  50.7500 Du        
   5803 ****       188.0000   4.5000  51.0000 Du        
   5804 ****       188.0000   4.5000  51.2500 Du        
   5805 ****       188.0000   4.5000  51.5000 Du        
   5806 ****       188.0000   4.5000  51.7500 Du        
   5807 ****       188.0000   4.5000  52.0000 Du        
   5808 ****       188.0000   4.5000  52.2500 Du        
   5809 ****       188.0000   4.5000  52.5000 Du        
   5810 ****       188.0000   4.5000  52.7500 Du        
   5811 ****       188.0000   4.7500  49.2500 Du        
   5812 ****       188.0000   4.7500  49.5000 Du        
   5813 ****       188.0000   4.7500  49.7500 Du        
   5814 ****       188.0000   4.7500  50.0000 Du        
   5815 ****       188.0000   4.7500  50.2500 Du        
   5816 ****       188.0000   4.7500  50.5000 Du        
   5817 ****       188.0000   4.7500  50.7500 Du        
   5818 ****       188.0000   4.7500  51.0000 Du        
   5819 ****       188.0000   4.7500  51.2500 Du        
   5820 ****       188.0000   4.7500  51.5000 Du        
   5821 ****       188.0000   4.7500  51.7500 Du        
   5822 ****       188.0000   4.7500  52.0000 Du        
   5823 ****       188.0000   4.7500  52.2500 Du        
   5824 ****       188.0000   4.7500  52.5000 Du        
   5825 ****       188.0000   5.0000  49.2500 Du        
   5826 ****       188.0000   5.0000  49.5000 Du        
   5827 ****       188.0000   5.0000  49.7500 Du        
   5828 ****       188.0000   5.0000  50.0000 Du        
   5829 ****       188.0000   5.0000  50.2500 Du        
   5830 ****       188.0000   5.0000  50.5000 Du        
   5831 ****       188.0000   5.0000  50.7500 Du        
   5832 ****       188.0000   5.0000  51.0000 Du        
   5833 ****       188.0000   5.0000  51.2500 Du        
   5834 ****       188.0000   5.0000  51.5000 Du        
   5835 ****       188.0000   5.0000  51.7500 Du        
   5836 ****       188.0000   5.0000  52.0000 Du        
   5837 ****       188.0000   5.0000  52.2500 Du        
   5838 ****       188.0000   5.2500  49.5000 Du        
   5839 ****       188.0000   5.2500  49.7500 Du        
   5840 ****       188.0000   5.2500  50.0000 Du        
   5841 ****       188.0000   5.2500  50.2500 Du        
   5842 ****       188.0000   5.2500  50.5000 Du        
   5843 ****       188.0000   5.2500  50.7500 Du        
   5844 ****       188.0000   5.2500  51.0000 Du        
   5845 ****       188.0000   5.2500  51.2500 Du        
   5846 ****       188.0000   5.2500  51.5000 Du        
   5847 ****       188.0000   5.2500  51.7500 Du        
   5848 ****       188.0000   5.5000  49.5000 Du        
   5849 ****       188.0000   5.5000  49.7500 Du        
   5850 ****       188.0000   5.5000  50.0000 Du        
   5851 ****       188.0000   5.5000  50.2500 Du        
   5852 ****       188.0000   5.5000  50.5000 Du        
   5853 ****       188.0000   5.5000  50.7500 Du        
   5854 ****       188.0000   5.5000  51.0000 Du        
   5855 ****       188.0000   5.5000  51.2500 Du        
   5856 ****       188.0000   5.7500  49.5000 Du        
   5857 ****       188.0000   5.7500  49.7500 Du        
   5858 ****       188.0000   5.7500  50.0000 Du        
   5859 ****       188.0000   5.7500  50.2500 Du        
   5860 ****       188.0000   5.7500  50.5000 Du        
   5861 ****       188.0000   5.7500  50.7500 Du        
   5862 ****       188.0000   5.7500  51.0000 Du        
   5863 ****       188.0000   6.0000  49.5000 Du        
   5864 ****       188.0000   6.0000  49.7500 Du        
   5865 ****       188.0000   6.0000  50.0000 Du        
   5866 ****       188.0000   6.0000  50.2500 Du        
   5867 ****       188.0000   6.0000  50.5000 Du        
   5868 ****       188.0000   6.0000  50.7500 Du        
   5869 ****       188.0000   6.2500  49.5000 Du        
   5870 ****       188.0000   6.2500  49.7500 Du        
   5871 ****       188.0000   6.2500  50.0000 Du        
   5872 ****       188.0000   6.2500  50.2500 Du        
   5873 ****       188.0000   6.2500  50.5000 Du        
   5874 ****       188.0000   6.2500  50.7500 Du        
   5875 ****       188.0000   6.5000  49.2500 Du        
   5876 ****       188.0000   6.5000  49.5000 Du        
   5877 ****       188.0000   6.5000  49.7500 Du        
   5878 ****       188.0000   6.5000  50.0000 Du        
   5879 ****       188.0000   6.5000  50.2500 Du        
   5880 ****       188.0000   6.5000  50.5000 Du        
   5881 ****       188.0000   6.7500  49.2500 Du        
   5882 ****       188.0000   6.7500  49.5000 Du        
   5883 ****       188.0000   6.7500  49.7500 Du        
   5884 ****       188.0000   6.7500  50.0000 Du        
   5885 ****       188.0000   6.7500  50.2500 Du        
   5886 ****       188.0000   7.0000  49.2500 Du        
   5887 ****       188.0000   7.0000  49.5000 Du        
   5888 ****       188.0000   7.0000  49.7500 Du        
   5889 ****       188.0000   7.0000  50.0000 Du        
   5890 ****       188.0000   7.0000  50.2500 Du        
   5891 ****       188.0000   7.2500  49.2500 Du        
   5892 ****       188.0000   7.2500  49.5000 Du        
   5893 ****       188.0000   7.2500  49.7500 Du        
   5894 ****       188.0000   7.2500  50.0000 Du        
   5895 ****       188.0000   7.5000  49.0000 Du        
   5896 ****       188.0000   7.5000  49.2500 Du        
   5897 ****       188.0000   7.5000  49.5000 Du        
   5898 ****       188.0000   7.5000  49.7500 Du        
   5899 ****       188.0000   7.5000  50.0000 Du        
   5900 ****       188.0000   7.7500  49.0000 Du        
   5901 ****       188.0000   7.7500  49.2500 Du        
   5902 ****       188.0000   7.7500  49.5000 Du        
   5903 ****       188.0000   7.7500  49.7500 Du        
   5904 ****       188.0000   8.0000  49.0000 Du        
   5905 ****       188.0000   8.0000  49.2500 Du        
   5906 ****       188.0000   8.0000  49.5000 Du        
   5907 ****       188.0000   8.0000  49.7500 Du        
   5908 ****       188.0000   8.2500  48.7500 Du        
   5909 ****       188.0000   8.2500  49.0000 Du        
   5910 ****       188.0000   8.2500  49.2500 Du        
   5911 ****       188.0000   8.2500  49.5000 Du        
   5912 ****       188.0000   8.5000  48.7500 Du        
   5913 ****       188.0000   8.5000  49.0000 Du        
   5914 ****       188.0000   8.5000  49.2500 Du        
   5915 ****       188.0000   8.7500  48.5000 Du        
   5916 ****       188.0000   8.7500  48.7500 Du        
   5917 ****       188.0000   8.7500  49.0000 Du        
   5918 ****       188.0000   8.7500  49.2500 Du        
   5919 ****       188.0000   9.0000  48.2500 Du        
   5920 ****       188.0000   9.0000  48.5000 Du        
   5921 ****       188.0000   9.0000  48.7500 Du        
   5922 ****       188.0000   9.0000  49.0000 Du        
   5923 ****       188.0000   9.2500  47.7500 Du        
   5924 ****       188.0000   9.2500  48.0000 Du        
   5925 ****       188.0000   9.2500  48.2500 Du        
   5926 ****       188.0000   9.2500  48.5000 Du        
   5927 ****       188.0000   9.2500  48.7500 Du        
   5928 ****       188.0000   9.2500  49.0000 Du        
   5929 ****       188.0000   9.5000  47.7500 Du        
   5930 ****       188.0000   9.5000  48.0000 Du        
   5931 ****       188.0000   9.5000  48.2500 Du        
   5932 ****       188.0000   9.5000  48.5000 Du        
   5933 ****       188.0000   9.7500  45.0000 Du        
   5934 ****       188.0000   9.7500  45.2500 Du        
   5935 ****       188.0000   9.7500  45.5000 Du        
   5936 ****       188.0000   9.7500  45.7500 Du        
   5937 ****       188.0000   9.7500  46.0000 Du        
   5938 ****       188.0000   9.7500  46.2500 Du        
   5939 ****       188.0000   9.7500  46.5000 Du        
   5940 ****       188.0000   9.7500  46.7500 Du        
   5941 ****       188.0000   9.7500  47.0000 Du        
   5942 ****       188.0000   9.7500  47.2500 Du        
   5943 ****       188.0000   9.7500  47.5000 Du        
   5944 ****       188.0000   9.7500  47.7500 Du        
   5945 ****       188.0000   9.7500  48.0000 Du        
   5946 ****       188.0000   9.7500  48.2500 Du        
   5947 ****       188.0000   9.7500  48.5000 Du        
   5948 ****       188.0000  10.0000  44.5000 Du        
   5949 ****       188.0000  10.0000  44.7500 Du        
   5950 ****       188.0000  10.0000  45.0000 Du        
   5951 ****       188.0000  10.0000  45.2500 Du        
   5952 ****       188.0000  10.0000  45.5000 Du        
   5953 ****       188.0000  10.0000  45.7500 Du        
   5954 ****       188.0000  10.0000  46.0000 Du        
   5955 ****       188.0000  10.0000  46.2500 Du        
   5956 ****       188.0000  10.0000  46.5000 Du        
   5957 ****       188.0000  10.0000  46.7500 Du        
   5958 ****       188.0000  10.0000  47.0000 Du        
   5959 ****       188.0000  10.0000  47.2500 Du        
   5960 ****       188.0000  10.0000  47.5000 Du        
   5961 ****       188.0000  10.0000  47.7500 Du        
   5962 ****       188.0000  10.0000  48.0000 Du        
   5963 ****       188.0000  10.2500  44.2500 Du        
   5964 ****       188.0000  10.2500  44.5000 Du        
   5965 ****       188.0000  10.2500  44.7500 Du        
   5966 ****       188.0000  10.2500  45.0000 Du        
   5967 ****       188.0000  10.2500  45.2500 Du        
   5968 ****       188.0000  10.2500  45.5000 Du        
   5969 ****       188.0000  10.2500  45.7500 Du        
   5970 ****       188.0000  10.2500  46.0000 Du        
   5971 ****       188.0000  10.2500  46.2500 Du        
   5972 ****       188.0000  10.2500  46.5000 Du        
   5973 ****       188.0000  10.2500  46.7500 Du        
   5974 ****       188.0000  10.2500  47.0000 Du        
   5975 ****       188.0000  10.2500  47.2500 Du        
   5976 ****       188.0000  10.2500  47.5000 Du        
   5977 ****       188.0000  10.2500  47.7500 Du        
   5978 ****       188.0000  10.5000  44.2500 Du        
   5979 ****       188.0000  10.5000  44.5000 Du        
   5980 ****       188.0000  10.5000  44.7500 Du        
   5981 ****       188.0000  10.5000  45.0000 Du        
   5982 ****       188.0000  10.5000  45.2500 Du        
   5983 ****       188.0000  10.5000  45.5000 Du        
   5984 ****       188.0000  10.5000  45.7500 Du        
   5985 ****       188.0000  10.5000  46.0000 Du        
   5986 ****       188.0000  10.5000  46.2500 Du        
   5987 ****       188.0000  10.7500  44.2500 Du        
   5988 ****       188.0000  10.7500  44.5000 Du        
   5989 ****       188.0000  10.7500  44.7500 Du        
   5990 ****       188.0000  10.7500  45.0000 Du        
   5991 ****       188.0000  10.7500  45.2500 Du        
   5992 ****       188.0000  10.7500  45.5000 Du        
   5993 ****       188.0000  10.7500  45.7500 Du        
   5994 ****       188.0000  10.7500  46.0000 Du        
   5995 ****       188.0000  10.7500  46.2500 Du        
   5996 ****       188.0000  11.0000  44.2500 Du        
   5997 ****       188.0000  11.0000  44.5000 Du        
   5998 ****       188.0000  11.0000  44.7500 Du        
   5999 ****       188.0000  11.0000  45.0000 Du        
   6000 ****       188.0000  11.0000  45.2500 Du        
   6001 ****       188.0000  11.0000  45.5000 Du        
   6002 ****       188.0000  11.0000  45.7500 Du        
   6003 ****       188.0000  11.0000  46.0000 Du        
   6004 ****       188.0000  11.0000  46.2500 Du        
   6005 ****       188.0000  11.2500  44.5000 Du        
   6006 ****       188.0000  11.2500  44.7500 Du        
   6007 ****       188.0000  11.2500  45.0000 Du        
   6008 ****       188.0000  11.2500  45.2500 Du        
   6009 ****       188.0000  11.2500  45.5000 Du        
   6010 ****       188.0000  11.2500  45.7500 Du        
   6011 ****       188.0000  11.2500  46.0000 Du        
   6012 ****       188.0000  11.2500  46.2500 Du        
   6013 ****       188.0000  11.5000  44.7500 Du        
   6014 ****       188.0000  11.5000  45.0000 Du        
   6015 ****       188.0000  11.5000  45.2500 Du        
   6016 ****       188.0000  11.7500  45.0000 Du        
   6017 ****       188.0000  12.7500  52.5000 Du        
   6018 ****       188.0000  13.0000  52.0000 Du        
   6019 ****       188.0000  13.0000  52.2500 Du        
   6020 ****       188.0000  13.0000  52.5000 Du        
   6021 ****       188.0000  13.2500  51.5000 Du        
   6022 ****       188.0000  13.2500  51.7500 Du        
   6023 ****       188.0000  13.2500  52.0000 Du        
   6024 ****       188.0000  13.2500  52.2500 Du        
   6025 ****       188.0000  13.2500  52.5000 Du        
   6026 ****       188.0000  13.5000  51.2500 Du        
   6027 ****       188.0000  13.5000  51.5000 Du        
   6028 ****       188.0000  13.5000  51.7500 Du        
   6029 ****       188.0000  13.5000  52.0000 Du        
   6030 ****       188.0000  13.5000  52.2500 Du        
   6031 ****       188.0000  13.7500  50.7500 Du        
   6032 ****       188.0000  13.7500  51.0000 Du        
   6033 ****       188.0000  13.7500  51.2500 Du        
   6034 ****       188.0000  13.7500  51.5000 Du        
   6035 ****       188.0000  13.7500  51.7500 Du        
   6036 ****       188.0000  13.7500  52.0000 Du        
   6037 ****       188.0000  14.0000  50.5000 Du        
   6038 ****       188.0000  14.0000  50.7500 Du        
   6039 ****       188.0000  14.0000  51.0000 Du        
   6040 ****       188.0000  14.0000  51.2500 Du        
   6041 ****       188.0000  14.0000  51.5000 Du        
   6042 ****       188.0000  14.0000  51.7500 Du        
   6043 ****       188.0000  14.2500  50.0000 Du        
   6044 ****       188.0000  14.2500  50.2500 Du        
   6045 ****       188.0000  14.2500  50.5000 Du        
   6046 ****       188.0000  14.2500  50.7500 Du        
   6047 ****       188.0000  14.2500  51.0000 Du        
   6048 ****       188.0000  14.2500  51.2500 Du        
   6049 ****       188.0000  14.2500  51.5000 Du        
   6050 ****       188.0000  14.5000  50.0000 Du        
   6051 ****       188.0000  14.5000  50.2500 Du        
   6052 ****       188.0000  14.5000  50.5000 Du        
   6053 ****       188.0000  14.5000  50.7500 Du        
   6054 ****       188.0000  14.5000  51.0000 Du        
   6055 ****       188.0000  14.5000  51.2500 Du        
   6056 ****       188.0000  14.7500  50.0000 Du        
   6057 ****       188.0000  14.7500  50.2500 Du        
   6058 ****       188.0000  14.7500  50.5000 Du        
   6059 ****       188.0000  14.7500  50.7500 Du        
   6060 ****       188.0000  14.7500  51.0000 Du        
   6061 ****       188.0000  15.0000  50.0000 Du        
   6062 ****       188.0000  15.0000  50.2500 Du        
   6063 ****       188.0000  15.0000  50.5000 Du        
   6064 ****       188.0000  15.0000  50.7500 Du        
   6065 ****       188.0000  15.2500  50.0000 Du        
   6066 ****       188.0000  18.7500  49.0000 Du        
   6067 ****       188.0000  18.7500  49.2500 Du        
   6068 ****       188.0000  18.7500  49.5000 Du        
   6069 ****       188.0000  19.0000  49.0000 Du        
   6070 ****       188.0000  19.0000  49.2500 Du        
   6071 ****       188.0000  19.0000  49.5000 Du        
   6072 ****       188.0000  19.0000  49.7500 Du        
   6073 ****       188.0000  19.2500  49.0000 Du        
   6074 ****       188.0000  19.2500  49.2500 Du        
   6075 ****       188.0000  19.2500  49.5000 Du        
   6076 ****       188.0000  19.2500  49.7500 Du        
   6077 ****       188.0000  19.2500  50.0000 Du        
   6078 ****       188.0000  19.5000  49.2500 Du        
   6079 ****       188.0000  19.5000  49.5000 Du        
   6080 ****       188.0000  19.5000  49.7500 Du        
   6081 ****       188.0000  19.5000  50.0000 Du        
   6082 ****       188.0000  19.5000  50.2500 Du        
   6083 ****       188.0000  19.7500  49.5000 Du        
   6084 ****       188.0000  19.7500  49.7500 Du        
   6085 ****       188.0000  19.7500  50.0000 Du        
   6086 ****       188.0000  19.7500  50.2500 Du        
   6087 ****       188.0000  19.7500  50.5000 Du        
   6088 ****       188.0000  20.0000  49.7500 Du        
   6089 ****       188.0000  20.0000  50.0000 Du        
   6090 ****       188.0000  20.0000  50.2500 Du        
   6091 ****       188.0000  20.0000  50.5000 Du        
   6092 ****       188.0000  20.0000  50.7500 Du        
   6093 ****       188.0000  20.2500  50.0000 Du        
   6094 ****       188.0000  20.2500  50.2500 Du        
   6095 ****       188.0000  20.2500  50.5000 Du        
   6096 ****       188.0000  20.2500  50.7500 Du        
   6097 ****       188.0000  20.5000  50.2500 Du        
   6098 ****       188.0000  20.5000  50.5000 Du        
   6099 ****       188.0000  20.5000  50.7500 Du        
   6100 ****       188.0000  20.7500  50.5000 Du        
   6101 ****       188.0000  20.7500  50.7500 Du        
   6102 ****       188.0000  21.0000  50.7500 Du        
   6103 ****       188.2500   2.2500  50.7500 Du        
   6104 ****       188.2500   2.2500  51.0000 Du        
   6105 ****       188.2500   2.2500  51.2500 Du        
   6106 ****       188.2500   2.5000  48.5000 Du        
   6107 ****       188.2500   2.5000  48.7500 Du        
   6108 ****       188.2500   2.5000  49.0000 Du        
   6109 ****       188.2500   2.5000  49.2500 Du        
   6110 ****       188.2500   2.5000  49.5000 Du        
   6111 ****       188.2500   2.5000  49.7500 Du        
   6112 ****       188.2500   2.5000  50.0000 Du        
   6113 ****       188.2500   2.5000  50.2500 Du        
   6114 ****       188.2500   2.5000  50.5000 Du        
   6115 ****       188.2500   2.5000  50.7500 Du        
   6116 ****       188.2500   2.5000  51.0000 Du        
   6117 ****       188.2500   2.5000  51.2500 Du        
   6118 ****       188.2500   2.5000  51.5000 Du        
   6119 ****       188.2500   2.5000  51.7500 Du        
   6120 ****       188.2500   2.7500  48.5000 Du        
   6121 ****       188.2500   2.7500  48.7500 Du        
   6122 ****       188.2500   2.7500  49.0000 Du        
   6123 ****       188.2500   2.7500  49.2500 Du        
   6124 ****       188.2500   2.7500  49.5000 Du        
   6125 ****       188.2500   2.7500  49.7500 Du        
   6126 ****       188.2500   2.7500  50.0000 Du        
   6127 ****       188.2500   2.7500  50.2500 Du        
   6128 ****       188.2500   2.7500  50.5000 Du        
   6129 ****       188.2500   2.7500  50.7500 Du        
   6130 ****       188.2500   2.7500  51.0000 Du        
   6131 ****       188.2500   2.7500  51.2500 Du        
   6132 ****       188.2500   2.7500  51.5000 Du        
   6133 ****       188.2500   2.7500  51.7500 Du        
   6134 ****       188.2500   2.7500  52.0000 Du        
   6135 ****       188.2500   3.0000  48.5000 Du        
   6136 ****       188.2500   3.0000  48.7500 Du        
   6137 ****       188.2500   3.0000  49.0000 Du        
   6138 ****       188.2500   3.0000  49.2500 Du        
   6139 ****       188.2500   3.0000  49.5000 Du        
   6140 ****       188.2500   3.0000  49.7500 Du        
   6141 ****       188.2500   3.0000  50.0000 Du        
   6142 ****       188.2500   3.0000  50.2500 Du        
   6143 ****       188.2500   3.0000  50.5000 Du        
   6144 ****       188.2500   3.0000  50.7500 Du        
   6145 ****       188.2500   3.0000  51.0000 Du        
   6146 ****       188.2500   3.0000  51.2500 Du        
   6147 ****       188.2500   3.0000  51.5000 Du        
   6148 ****       188.2500   3.0000  51.7500 Du        
   6149 ****       188.2500   3.0000  52.0000 Du        
   6150 ****       188.2500   3.0000  52.2500 Du        
   6151 ****       188.2500   3.2500  48.5000 Du        
   6152 ****       188.2500   3.2500  48.7500 Du        
   6153 ****       188.2500   3.2500  49.0000 Du        
   6154 ****       188.2500   3.2500  49.2500 Du        
   6155 ****       188.2500   3.2500  49.5000 Du        
   6156 ****       188.2500   3.2500  49.7500 Du        
   6157 ****       188.2500   3.2500  50.0000 Du        
   6158 ****       188.2500   3.2500  50.2500 Du        
   6159 ****       188.2500   3.2500  50.5000 Du        
   6160 ****       188.2500   3.2500  50.7500 Du        
   6161 ****       188.2500   3.2500  51.0000 Du        
   6162 ****       188.2500   3.2500  51.2500 Du        
   6163 ****       188.2500   3.2500  51.5000 Du        
   6164 ****       188.2500   3.2500  51.7500 Du        
   6165 ****       188.2500   3.2500  52.0000 Du        
   6166 ****       188.2500   3.2500  52.2500 Du        
   6167 ****       188.2500   3.2500  52.5000 Du        
   6168 ****       188.2500   3.5000  48.5000 Du        
   6169 ****       188.2500   3.5000  48.7500 Du        
   6170 ****       188.2500   3.5000  49.0000 Du        
   6171 ****       188.2500   3.5000  49.2500 Du        
   6172 ****       188.2500   3.5000  49.5000 Du        
   6173 ****       188.2500   3.5000  49.7500 Du        
   6174 ****       188.2500   3.5000  50.0000 Du        
   6175 ****       188.2500   3.5000  50.2500 Du        
   6176 ****       188.2500   3.5000  50.5000 Du        
   6177 ****       188.2500   3.5000  50.7500 Du        
   6178 ****       188.2500   3.5000  51.0000 Du        
   6179 ****       188.2500   3.5000  51.2500 Du        
   6180 ****       188.2500   3.5000  51.5000 Du        
   6181 ****       188.2500   3.5000  51.7500 Du        
   6182 ****       188.2500   3.5000  52.0000 Du        
   6183 ****       188.2500   3.5000  52.2500 Du        
   6184 ****       188.2500   3.5000  52.5000 Du        
   6185 ****       188.2500   3.7500  48.7500 Du        
   6186 ****       188.2500   3.7500  49.0000 Du        
   6187 ****       188.2500   3.7500  49.2500 Du        
   6188 ****       188.2500   3.7500  49.5000 Du        
   6189 ****       188.2500   3.7500  49.7500 Du        
   6190 ****       188.2500   3.7500  50.0000 Du        
   6191 ****       188.2500   3.7500  50.2500 Du        
   6192 ****       188.2500   3.7500  50.5000 Du        
   6193 ****       188.2500   3.7500  50.7500 Du        
   6194 ****       188.2500   3.7500  51.0000 Du        
   6195 ****       188.2500   3.7500  51.2500 Du        
   6196 ****       188.2500   3.7500  51.5000 Du        
   6197 ****       188.2500   3.7500  51.7500 Du        
   6198 ****       188.2500   3.7500  52.0000 Du        
   6199 ****       188.2500   3.7500  52.2500 Du        
   6200 ****       188.2500   3.7500  52.5000 Du        
   6201 ****       188.2500   3.7500  52.7500 Du        
   6202 ****       188.2500   4.0000  48.7500 Du        
   6203 ****       188.2500   4.0000  49.0000 Du        
   6204 ****       188.2500   4.0000  49.2500 Du        
   6205 ****       188.2500   4.0000  49.5000 Du        
   6206 ****       188.2500   4.0000  49.7500 Du        
   6207 ****       188.2500   4.0000  50.0000 Du        
   6208 ****       188.2500   4.0000  50.2500 Du        
   6209 ****       188.2500   4.0000  50.5000 Du        
   6210 ****       188.2500   4.0000  50.7500 Du        
   6211 ****       188.2500   4.0000  51.0000 Du        
   6212 ****       188.2500   4.0000  51.2500 Du        
   6213 ****       188.2500   4.0000  51.5000 Du        
   6214 ****       188.2500   4.0000  51.7500 Du        
   6215 ****       188.2500   4.0000  52.0000 Du        
   6216 ****       188.2500   4.0000  52.2500 Du        
   6217 ****       188.2500   4.0000  52.5000 Du        
   6218 ****       188.2500   4.0000  52.7500 Du        
   6219 ****       188.2500   4.0000  53.0000 Du        
   6220 ****       188.2500   4.2500  49.0000 Du        
   6221 ****       188.2500   4.2500  49.2500 Du        
   6222 ****       188.2500   4.2500  49.5000 Du        
   6223 ****       188.2500   4.2500  49.7500 Du        
   6224 ****       188.2500   4.2500  50.0000 Du        
   6225 ****       188.2500   4.2500  50.2500 Du        
   6226 ****       188.2500   4.2500  50.5000 Du        
   6227 ****       188.2500   4.2500  50.7500 Du        
   6228 ****       188.2500   4.2500  51.0000 Du        
   6229 ****       188.2500   4.2500  51.2500 Du        
   6230 ****       188.2500   4.2500  51.5000 Du        
   6231 ****       188.2500   4.2500  51.7500 Du        
   6232 ****       188.2500   4.2500  52.0000 Du        
   6233 ****       188.2500   4.2500  52.2500 Du        
   6234 ****       188.2500   4.2500  52.5000 Du        
   6235 ****       188.2500   4.2500  52.7500 Du        
   6236 ****       188.2500   4.2500  53.0000 Du        
   6237 ****       188.2500   4.5000  49.0000 Du        
   6238 ****       188.2500   4.5000  49.2500 Du        
   6239 ****       188.2500   4.5000  49.5000 Du        
   6240 ****       188.2500   4.5000  49.7500 Du        
   6241 ****       188.2500   4.5000  50.0000 Du        
   6242 ****       188.2500   4.5000  50.2500 Du        
   6243 ****       188.2500   4.5000  50.5000 Du        
   6244 ****       188.2500   4.5000  50.7500 Du        
   6245 ****       188.2500   4.5000  51.0000 Du        
   6246 ****       188.2500   4.5000  51.2500 Du        
   6247 ****       188.2500   4.5000  51.5000 Du        
   6248 ****       188.2500   4.5000  51.7500 Du        
   6249 ****       188.2500   4.5000  52.0000 Du        
   6250 ****       188.2500   4.5000  52.2500 Du        
   6251 ****       188.2500   4.5000  52.5000 Du        
   6252 ****       188.2500   4.5000  52.7500 Du        
   6253 ****       188.2500   4.7500  49.2500 Du        
   6254 ****       188.2500   4.7500  49.5000 Du        
   6255 ****       188.2500   4.7500  49.7500 Du        
   6256 ****       188.2500   4.7500  50.0000 Du        
   6257 ****       188.2500   4.7500  50.2500 Du        
   6258 ****       188.2500   4.7500  50.5000 Du        
   6259 ****       188.2500   4.7500  50.7500 Du        
   6260 ****       188.2500   4.7500  51.0000 Du        
   6261 ****       188.2500   4.7500  51.2500 Du        
   6262 ****       188.2500   4.7500  51.5000 Du        
   6263 ****       188.2500   4.7500  51.7500 Du        
   6264 ****       188.2500   4.7500  52.0000 Du        
   6265 ****       188.2500   4.7500  52.2500 Du        
   6266 ****       188.2500   4.7500  52.5000 Du        
   6267 ****       188.2500   5.0000  49.2500 Du        
   6268 ****       188.2500   5.0000  49.5000 Du        
   6269 ****       188.2500   5.0000  49.7500 Du        
   6270 ****       188.2500   5.0000  50.0000 Du        
   6271 ****       188.2500   5.0000  50.2500 Du        
   6272 ****       188.2500   5.0000  50.5000 Du        
   6273 ****       188.2500   5.0000  50.7500 Du        
   6274 ****       188.2500   5.0000  51.0000 Du        
   6275 ****       188.2500   5.0000  51.2500 Du        
   6276 ****       188.2500   5.0000  51.5000 Du        
   6277 ****       188.2500   5.0000  51.7500 Du        
   6278 ****       188.2500   5.0000  52.0000 Du        
   6279 ****       188.2500   5.0000  52.2500 Du        
   6280 ****       188.2500   5.2500  49.2500 Du        
   6281 ****       188.2500   5.2500  49.5000 Du        
   6282 ****       188.2500   5.2500  49.7500 Du        
   6283 ****       188.2500   5.2500  50.0000 Du        
   6284 ****       188.2500   5.2500  50.2500 Du        
   6285 ****       188.2500   5.2500  50.5000 Du        
   6286 ****       188.2500   5.2500  50.7500 Du        
   6287 ****       188.2500   5.2500  51.0000 Du        
   6288 ****       188.2500   5.2500  51.2500 Du        
   6289 ****       188.2500   5.2500  51.5000 Du        
   6290 ****       188.2500   5.2500  51.7500 Du        
   6291 ****       188.2500   5.5000  49.5000 Du        
   6292 ****       188.2500   5.5000  49.7500 Du        
   6293 ****       188.2500   5.5000  50.0000 Du        
   6294 ****       188.2500   5.5000  50.2500 Du        
   6295 ****       188.2500   5.5000  50.5000 Du        
   6296 ****       188.2500   5.5000  50.7500 Du        
   6297 ****       188.2500   5.5000  51.0000 Du        
   6298 ****       188.2500   5.5000  51.2500 Du        
   6299 ****       188.2500   5.5000  51.5000 Du        
   6300 ****       188.2500   5.7500  49.2500 Du        
   6301 ****       188.2500   5.7500  49.5000 Du        
   6302 ****       188.2500   5.7500  49.7500 Du        
   6303 ****       188.2500   5.7500  50.0000 Du        
   6304 ****       188.2500   5.7500  50.2500 Du        
   6305 ****       188.2500   5.7500  50.5000 Du        
   6306 ****       188.2500   5.7500  50.7500 Du        
   6307 ****       188.2500   5.7500  51.0000 Du        
   6308 ****       188.2500   5.7500  51.2500 Du        
   6309 ****       188.2500   6.0000  49.2500 Du        
   6310 ****       188.2500   6.0000  49.5000 Du        
   6311 ****       188.2500   6.0000  49.7500 Du        
   6312 ****       188.2500   6.0000  50.0000 Du        
   6313 ****       188.2500   6.0000  50.2500 Du        
   6314 ****       188.2500   6.0000  50.5000 Du        
   6315 ****       188.2500   6.0000  50.7500 Du        
   6316 ****       188.2500   6.0000  51.0000 Du        
   6317 ****       188.2500   6.2500  49.2500 Du        
   6318 ****       188.2500   6.2500  49.5000 Du        
   6319 ****       188.2500   6.2500  49.7500 Du        
   6320 ****       188.2500   6.2500  50.0000 Du        
   6321 ****       188.2500   6.2500  50.2500 Du        
   6322 ****       188.2500   6.2500  50.5000 Du        
   6323 ****       188.2500   6.2500  50.7500 Du        
   6324 ****       188.2500   6.5000  49.2500 Du        
   6325 ****       188.2500   6.5000  49.5000 Du        
   6326 ****       188.2500   6.5000  49.7500 Du        
   6327 ****       188.2500   6.5000  50.0000 Du        
   6328 ****       188.2500   6.5000  50.2500 Du        
   6329 ****       188.2500   6.5000  50.5000 Du        
   6330 ****       188.2500   6.7500  49.2500 Du        
   6331 ****       188.2500   6.7500  49.5000 Du        
   6332 ****       188.2500   6.7500  49.7500 Du        
   6333 ****       188.2500   6.7500  50.0000 Du        
   6334 ****       188.2500   6.7500  50.2500 Du        
   6335 ****       188.2500   7.0000  49.2500 Du        
   6336 ****       188.2500   7.0000  49.5000 Du        
   6337 ****       188.2500   7.0000  49.7500 Du        
   6338 ****       188.2500   7.0000  50.0000 Du        
   6339 ****       188.2500   7.0000  50.2500 Du        
   6340 ****       188.2500   7.2500  49.2500 Du        
   6341 ****       188.2500   7.2500  49.5000 Du        
   6342 ****       188.2500   7.2500  49.7500 Du        
   6343 ****       188.2500   7.2500  50.0000 Du        
   6344 ****       188.2500   7.5000  49.0000 Du        
   6345 ****       188.2500   7.5000  49.2500 Du        
   6346 ****       188.2500   7.5000  49.5000 Du        
   6347 ****       188.2500   7.5000  49.7500 Du        
   6348 ****       188.2500   7.7500  49.0000 Du        
   6349 ****       188.2500   7.7500  49.2500 Du        
   6350 ****       188.2500   7.7500  49.5000 Du        
   6351 ****       188.2500   8.0000  48.7500 Du        
   6352 ****       188.2500   8.0000  49.0000 Du        
   6353 ****       188.2500   8.0000  49.2500 Du        
   6354 ****       188.2500   8.2500  48.7500 Du        
   6355 ****       188.2500   8.2500  49.0000 Du        
   6356 ****       188.2500   8.2500  49.2500 Du        
   6357 ****       188.2500   8.5000  48.5000 Du        
   6358 ****       188.2500   8.5000  48.7500 Du        
   6359 ****       188.2500   8.5000  49.0000 Du        
   6360 ****       188.2500   8.7500  48.2500 Du        
   6361 ****       188.2500   8.7500  48.5000 Du        
   6362 ****       188.2500   8.7500  48.7500 Du        
   6363 ****       188.2500   8.7500  49.0000 Du        
   6364 ****       188.2500   9.0000  48.0000 Du        
   6365 ****       188.2500   9.0000  48.2500 Du        
   6366 ****       188.2500   9.0000  48.5000 Du        
   6367 ****       188.2500   9.0000  48.7500 Du        
   6368 ****       188.2500   9.2500  47.7500 Du        
   6369 ****       188.2500   9.2500  48.0000 Du        
   6370 ****       188.2500   9.2500  48.2500 Du        
   6371 ****       188.2500   9.2500  48.5000 Du        
   6372 ****       188.2500   9.2500  48.7500 Du        
   6373 ****       188.2500   9.5000  47.5000 Du        
   6374 ****       188.2500   9.5000  47.7500 Du        
   6375 ****       188.2500   9.5000  48.0000 Du        
   6376 ****       188.2500   9.5000  48.2500 Du        
   6377 ****       188.2500   9.7500  45.0000 Du        
   6378 ****       188.2500   9.7500  45.2500 Du        
   6379 ****       188.2500   9.7500  45.5000 Du        
   6380 ****       188.2500   9.7500  45.7500 Du        
   6381 ****       188.2500   9.7500  46.0000 Du        
   6382 ****       188.2500   9.7500  46.2500 Du        
   6383 ****       188.2500   9.7500  46.5000 Du        
   6384 ****       188.2500   9.7500  46.7500 Du        
   6385 ****       188.2500   9.7500  47.0000 Du        
   6386 ****       188.2500   9.7500  47.2500 Du        
   6387 ****       188.2500   9.7500  47.5000 Du        
   6388 ****       188.2500   9.7500  47.7500 Du        
   6389 ****       188.2500   9.7500  48.0000 Du        
   6390 ****       188.2500  10.0000  44.5000 Du        
   6391 ****       188.2500  10.0000  44.7500 Du        
   6392 ****       188.2500  10.0000  45.0000 Du        
   6393 ****       188.2500  10.0000  45.2500 Du        
   6394 ****       188.2500  10.0000  45.5000 Du        
   6395 ****       188.2500  10.0000  45.7500 Du        
   6396 ****       188.2500  10.0000  46.0000 Du        
   6397 ****       188.2500  10.0000  46.2500 Du        
   6398 ****       188.2500  10.0000  46.5000 Du        
   6399 ****       188.2500  10.0000  46.7500 Du        
   6400 ****       188.2500  10.0000  47.0000 Du        
   6401 ****       188.2500  10.0000  47.2500 Du        
   6402 ****       188.2500  10.0000  47.5000 Du        
   6403 ****       188.2500  10.0000  47.7500 Du        
   6404 ****       188.2500  10.2500  44.2500 Du        
   6405 ****       188.2500  10.2500  44.5000 Du        
   6406 ****       188.2500  10.2500  44.7500 Du        
   6407 ****       188.2500  10.2500  45.0000 Du        
   6408 ****       188.2500  10.2500  45.2500 Du        
   6409 ****       188.2500  10.2500  45.5000 Du        
   6410 ****       188.2500  10.2500  45.7500 Du        
   6411 ****       188.2500  10.2500  46.0000 Du        
   6412 ****       188.2500  10.2500  46.2500 Du        
   6413 ****       188.2500  10.2500  46.5000 Du        
   6414 ****       188.2500  10.2500  46.7500 Du        
   6415 ****       188.2500  10.2500  47.0000 Du        
   6416 ****       188.2500  10.2500  47.2500 Du        
   6417 ****       188.2500  10.2500  47.5000 Du        
   6418 ****       188.2500  10.2500  47.7500 Du        
   6419 ****       188.2500  10.5000  44.2500 Du        
   6420 ****       188.2500  10.5000  44.5000 Du        
   6421 ****       188.2500  10.5000  44.7500 Du        
   6422 ****       188.2500  10.5000  45.0000 Du        
   6423 ****       188.2500  10.5000  45.2500 Du        
   6424 ****       188.2500  10.5000  45.5000 Du        
   6425 ****       188.2500  10.5000  45.7500 Du        
   6426 ****       188.2500  10.5000  46.0000 Du        
   6427 ****       188.2500  10.5000  46.2500 Du        
   6428 ****       188.2500  10.7500  44.2500 Du        
   6429 ****       188.2500  10.7500  44.5000 Du        
   6430 ****       188.2500  10.7500  44.7500 Du        
   6431 ****       188.2500  10.7500  45.0000 Du        
   6432 ****       188.2500  10.7500  45.2500 Du        
   6433 ****       188.2500  10.7500  45.5000 Du        
   6434 ****       188.2500  10.7500  45.7500 Du        
   6435 ****       188.2500  10.7500  46.0000 Du        
   6436 ****       188.2500  10.7500  46.2500 Du        
   6437 ****       188.2500  11.0000  44.2500 Du        
   6438 ****       188.2500  11.0000  44.5000 Du        
   6439 ****       188.2500  11.0000  44.7500 Du        
   6440 ****       188.2500  11.0000  45.0000 Du        
   6441 ****       188.2500  11.0000  45.2500 Du        
   6442 ****       188.2500  11.0000  45.5000 Du        
   6443 ****       188.2500  11.0000  45.7500 Du        
   6444 ****       188.2500  11.0000  46.0000 Du        
   6445 ****       188.2500  11.0000  46.2500 Du        
   6446 ****       188.2500  11.2500  44.5000 Du        
   6447 ****       188.2500  11.2500  44.7500 Du        
   6448 ****       188.2500  11.2500  45.0000 Du        
   6449 ****       188.2500  11.2500  45.2500 Du        
   6450 ****       188.2500  11.2500  45.5000 Du        
   6451 ****       188.2500  11.2500  45.7500 Du        
   6452 ****       188.2500  11.2500  46.0000 Du        
   6453 ****       188.2500  11.2500  46.2500 Du        
   6454 ****       188.2500  13.5000  51.7500 Du        
   6455 ****       188.2500  13.5000  52.0000 Du        
   6456 ****       188.2500  13.7500  51.2500 Du        
   6457 ****       188.2500  13.7500  51.5000 Du        
   6458 ****       188.2500  13.7500  51.7500 Du        
   6459 ****       188.2500  13.7500  52.0000 Du        
   6460 ****       188.2500  14.0000  50.7500 Du        
   6461 ****       188.2500  14.0000  51.0000 Du        
   6462 ****       188.2500  14.0000  51.2500 Du        
   6463 ****       188.2500  14.0000  51.5000 Du        
   6464 ****       188.2500  14.2500  50.5000 Du        
   6465 ****       188.2500  14.2500  50.7500 Du        
   6466 ****       188.2500  14.2500  51.0000 Du        
   6467 ****       188.2500  14.2500  51.2500 Du        
   6468 ****       188.2500  14.5000  50.2500 Du        
   6469 ****       188.2500  14.7500  50.0000 Du        
   6470 ****       188.2500  18.5000  48.7500 Du        
   6471 ****       188.2500  18.5000  49.0000 Du        
   6472 ****       188.2500  18.5000  49.2500 Du        
   6473 ****       188.2500  18.7500  48.7500 Du        
   6474 ****       188.2500  18.7500  49.0000 Du        
   6475 ****       188.2500  18.7500  49.2500 Du        
   6476 ****       188.2500  18.7500  49.5000 Du        
   6477 ****       188.2500  19.0000  48.7500 Du        
   6478 ****       188.2500  19.0000  49.0000 Du        
   6479 ****       188.2500  19.0000  49.2500 Du        
   6480 ****       188.2500  19.0000  49.5000 Du        
   6481 ****       188.2500  19.0000  49.7500 Du        
   6482 ****       188.2500  19.2500  49.0000 Du        
   6483 ****       188.2500  19.2500  49.2500 Du        
   6484 ****       188.2500  19.2500  49.5000 Du        
   6485 ****       188.2500  19.2500  49.7500 Du        
   6486 ****       188.2500  19.2500  50.0000 Du        
   6487 ****       188.2500  19.5000  49.2500 Du        
   6488 ****       188.2500  19.5000  49.5000 Du        
   6489 ****       188.2500  19.5000  49.7500 Du        
   6490 ****       188.2500  19.5000  50.0000 Du        
   6491 ****       188.2500  19.5000  50.2500 Du        
   6492 ****       188.2500  19.7500  49.5000 Du        
   6493 ****       188.2500  19.7500  49.7500 Du        
   6494 ****       188.2500  19.7500  50.0000 Du        
   6495 ****       188.2500  19.7500  50.2500 Du        
   6496 ****       188.2500  19.7500  50.5000 Du        
   6497 ****       188.2500  20.0000  49.7500 Du        
   6498 ****       188.2500  20.0000  50.0000 Du        
   6499 ****       188.2500  20.0000  50.2500 Du        
   6500 ****       188.2500  20.0000  50.5000 Du        
   6501 ****       188.2500  20.2500  50.0000 Du        
   6502 ****       188.2500  20.2500  50.2500 Du        
   6503 ****       188.2500  20.2500  50.5000 Du        
   6504 ****       188.2500  20.2500  50.7500 Du        
   6505 ****       188.2500  20.5000  50.5000 Du        
   6506 ****       188.5000   2.2500  48.7500 Du        
   6507 ****       188.5000   2.2500  49.0000 Du        
   6508 ****       188.5000   2.2500  49.2500 Du        
   6509 ****       188.5000   2.2500  49.5000 Du        
   6510 ****       188.5000   2.2500  49.7500 Du        
   6511 ****       188.5000   2.2500  50.0000 Du        
   6512 ****       188.5000   2.2500  50.2500 Du        
   6513 ****       188.5000   2.5000  48.7500 Du        
   6514 ****       188.5000   2.5000  49.0000 Du        
   6515 ****       188.5000   2.5000  49.2500 Du        
   6516 ****       188.5000   2.5000  49.5000 Du        
   6517 ****       188.5000   2.5000  49.7500 Du        
   6518 ****       188.5000   2.5000  50.0000 Du        
   6519 ****       188.5000   2.5000  50.2500 Du        
   6520 ****       188.5000   2.5000  50.5000 Du        
   6521 ****       188.5000   2.5000  50.7500 Du        
   6522 ****       188.5000   2.5000  51.0000 Du        
   6523 ****       188.5000   2.5000  51.2500 Du        
   6524 ****       188.5000   2.7500  48.5000 Du        
   6525 ****       188.5000   2.7500  48.7500 Du        
   6526 ****       188.5000   2.7500  49.0000 Du        
   6527 ****       188.5000   2.7500  49.2500 Du        
   6528 ****       188.5000   2.7500  49.5000 Du        
   6529 ****       188.5000   2.7500  49.7500 Du        
   6530 ****       188.5000   2.7500  50.0000 Du        
   6531 ****       188.5000   2.7500  50.2500 Du        
   6532 ****       188.5000   2.7500  50.5000 Du        
   6533 ****       188.5000   2.7500  50.7500 Du        
   6534 ****       188.5000   2.7500  51.0000 Du        
   6535 ****       188.5000   2.7500  51.2500 Du        
   6536 ****       188.5000   2.7500  51.5000 Du        
   6537 ****       188.5000   2.7500  51.7500 Du        
   6538 ****       188.5000   3.0000  48.5000 Du        
   6539 ****       188.5000   3.0000  48.7500 Du        
   6540 ****       188.5000   3.0000  49.0000 Du        
   6541 ****       188.5000   3.0000  49.2500 Du        
   6542 ****       188.5000   3.0000  49.5000 Du        
   6543 ****       188.5000   3.0000  49.7500 Du        
   6544 ****       188.5000   3.0000  50.0000 Du        
   6545 ****       188.5000   3.0000  50.2500 Du        
   6546 ****       188.5000   3.0000  50.5000 Du        
   6547 ****       188.5000   3.0000  50.7500 Du        
   6548 ****       188.5000   3.0000  51.0000 Du        
   6549 ****       188.5000   3.0000  51.2500 Du        
   6550 ****       188.5000   3.0000  51.5000 Du        
   6551 ****       188.5000   3.0000  51.7500 Du        
   6552 ****       188.5000   3.0000  52.0000 Du        
   6553 ****       188.5000   3.2500  48.7500 Du        
   6554 ****       188.5000   3.2500  49.0000 Du        
   6555 ****       188.5000   3.2500  49.2500 Du        
   6556 ****       188.5000   3.2500  49.5000 Du        
   6557 ****       188.5000   3.2500  49.7500 Du        
   6558 ****       188.5000   3.2500  50.0000 Du        
   6559 ****       188.5000   3.2500  50.2500 Du        
   6560 ****       188.5000   3.2500  50.5000 Du        
   6561 ****       188.5000   3.2500  50.7500 Du        
   6562 ****       188.5000   3.2500  51.0000 Du        
   6563 ****       188.5000   3.2500  51.2500 Du        
   6564 ****       188.5000   3.2500  51.5000 Du        
   6565 ****       188.5000   3.2500  51.7500 Du        
   6566 ****       188.5000   3.2500  52.0000 Du        
   6567 ****       188.5000   3.2500  52.2500 Du        
   6568 ****       188.5000   3.5000  48.7500 Du        
   6569 ****       188.5000   3.5000  49.0000 Du        
   6570 ****       188.5000   3.5000  49.2500 Du        
   6571 ****       188.5000   3.5000  49.5000 Du        
   6572 ****       188.5000   3.5000  49.7500 Du        
   6573 ****       188.5000   3.5000  50.0000 Du        
   6574 ****       188.5000   3.5000  50.2500 Du        
   6575 ****       188.5000   3.5000  50.5000 Du        
   6576 ****       188.5000   3.5000  50.7500 Du        
   6577 ****       188.5000   3.5000  51.0000 Du        
   6578 ****       188.5000   3.5000  51.2500 Du        
   6579 ****       188.5000   3.5000  51.5000 Du        
   6580 ****       188.5000   3.5000  51.7500 Du        
   6581 ****       188.5000   3.5000  52.0000 Du        
   6582 ****       188.5000   3.5000  52.2500 Du        
   6583 ****       188.5000   3.5000  52.5000 Du        
   6584 ****       188.5000   3.7500  48.7500 Du        
   6585 ****       188.5000   3.7500  49.0000 Du        
   6586 ****       188.5000   3.7500  49.2500 Du        
   6587 ****       188.5000   3.7500  49.5000 Du        
   6588 ****       188.5000   3.7500  49.7500 Du        
   6589 ****       188.5000   3.7500  50.0000 Du        
   6590 ****       188.5000   3.7500  50.2500 Du        
   6591 ****       188.5000   3.7500  50.5000 Du        
   6592 ****       188.5000   3.7500  50.7500 Du        
   6593 ****       188.5000   3.7500  51.0000 Du        
   6594 ****       188.5000   3.7500  51.2500 Du        
   6595 ****       188.5000   3.7500  51.5000 Du        
   6596 ****       188.5000   3.7500  51.7500 Du        
   6597 ****       188.5000   3.7500  52.0000 Du        
   6598 ****       188.5000   3.7500  52.2500 Du        
   6599 ****       188.5000   3.7500  52.5000 Du        
   6600 ****       188.5000   3.7500  52.7500 Du        
   6601 ****       188.5000   4.0000  48.7500 Du        
   6602 ****       188.5000   4.0000  49.0000 Du        
   6603 ****       188.5000   4.0000  49.2500 Du        
   6604 ****       188.5000   4.0000  49.5000 Du        
   6605 ****       188.5000   4.0000  49.7500 Du        
   6606 ****       188.5000   4.0000  50.0000 Du        
   6607 ****       188.5000   4.0000  50.2500 Du        
   6608 ****       188.5000   4.0000  50.5000 Du        
   6609 ****       188.5000   4.0000  50.7500 Du        
   6610 ****       188.5000   4.0000  51.0000 Du        
   6611 ****       188.5000   4.0000  51.2500 Du        
   6612 ****       188.5000   4.0000  51.5000 Du        
   6613 ****       188.5000   4.0000  51.7500 Du        
   6614 ****       188.5000   4.0000  52.0000 Du        
   6615 ****       188.5000   4.0000  52.2500 Du        
   6616 ****       188.5000   4.0000  52.5000 Du        
   6617 ****       188.5000   4.0000  52.7500 Du        
   6618 ****       188.5000   4.2500  49.0000 Du        
   6619 ****       188.5000   4.2500  49.2500 Du        
   6620 ****       188.5000   4.2500  49.5000 Du        
   6621 ****       188.5000   4.2500  49.7500 Du        
   6622 ****       188.5000   4.2500  50.0000 Du        
   6623 ****       188.5000   4.2500  50.2500 Du        
   6624 ****       188.5000   4.2500  50.5000 Du        
   6625 ****       188.5000   4.2500  50.7500 Du        
   6626 ****       188.5000   4.2500  51.0000 Du        
   6627 ****       188.5000   4.2500  51.2500 Du        
   6628 ****       188.5000   4.2500  51.5000 Du        
   6629 ****       188.5000   4.2500  51.7500 Du        
   6630 ****       188.5000   4.2500  52.0000 Du        
   6631 ****       188.5000   4.2500  52.2500 Du        
   6632 ****       188.5000   4.2500  52.5000 Du        
   6633 ****       188.5000   4.2500  52.7500 Du        
   6634 ****       188.5000   4.5000  49.0000 Du        
   6635 ****       188.5000   4.5000  49.2500 Du        
   6636 ****       188.5000   4.5000  49.5000 Du        
   6637 ****       188.5000   4.5000  49.7500 Du        
   6638 ****       188.5000   4.5000  50.0000 Du        
   6639 ****       188.5000   4.5000  50.2500 Du        
   6640 ****       188.5000   4.5000  50.5000 Du        
   6641 ****       188.5000   4.5000  50.7500 Du        
   6642 ****       188.5000   4.5000  51.0000 Du        
   6643 ****       188.5000   4.5000  51.2500 Du        
   6644 ****       188.5000   4.5000  51.5000 Du        
   6645 ****       188.5000   4.5000  51.7500 Du        
   6646 ****       188.5000   4.5000  52.0000 Du        
   6647 ****       188.5000   4.5000  52.2500 Du        
   6648 ****       188.5000   4.5000  52.5000 Du        
   6649 ****       188.5000   4.5000  52.7500 Du        
   6650 ****       188.5000   4.7500  49.0000 Du        
   6651 ****       188.5000   4.7500  49.2500 Du        
   6652 ****       188.5000   4.7500  49.5000 Du        
   6653 ****       188.5000   4.7500  49.7500 Du        
   6654 ****       188.5000   4.7500  50.0000 Du        
   6655 ****       188.5000   4.7500  50.2500 Du        
   6656 ****       188.5000   4.7500  50.5000 Du        
   6657 ****       188.5000   4.7500  50.7500 Du        
   6658 ****       188.5000   4.7500  51.0000 Du        
   6659 ****       188.5000   4.7500  51.2500 Du        
   6660 ****       188.5000   4.7500  51.5000 Du        
   6661 ****       188.5000   4.7500  51.7500 Du        
   6662 ****       188.5000   4.7500  52.0000 Du        
   6663 ****       188.5000   4.7500  52.2500 Du        
   6664 ****       188.5000   4.7500  52.5000 Du        
   6665 ****       188.5000   5.0000  49.2500 Du        
   6666 ****       188.5000   5.0000  49.5000 Du        
   6667 ****       188.5000   5.0000  49.7500 Du        
   6668 ****       188.5000   5.0000  50.0000 Du        
   6669 ****       188.5000   5.0000  50.2500 Du        
   6670 ****       188.5000   5.0000  50.5000 Du        
   6671 ****       188.5000   5.0000  50.7500 Du        
   6672 ****       188.5000   5.0000  51.0000 Du        
   6673 ****       188.5000   5.0000  51.2500 Du        
   6674 ****       188.5000   5.0000  51.5000 Du        
   6675 ****       188.5000   5.0000  51.7500 Du        
   6676 ****       188.5000   5.0000  52.0000 Du        
   6677 ****       188.5000   5.0000  52.2500 Du        
   6678 ****       188.5000   5.2500  49.2500 Du        
   6679 ****       188.5000   5.2500  49.5000 Du        
   6680 ****       188.5000   5.2500  49.7500 Du        
   6681 ****       188.5000   5.2500  50.0000 Du        
   6682 ****       188.5000   5.2500  50.2500 Du        
   6683 ****       188.5000   5.2500  50.5000 Du        
   6684 ****       188.5000   5.2500  50.7500 Du        
   6685 ****       188.5000   5.2500  51.0000 Du        
   6686 ****       188.5000   5.2500  51.2500 Du        
   6687 ****       188.5000   5.2500  51.5000 Du        
   6688 ****       188.5000   5.2500  51.7500 Du        
   6689 ****       188.5000   5.2500  52.0000 Du        
   6690 ****       188.5000   5.5000  49.2500 Du        
   6691 ****       188.5000   5.5000  49.5000 Du        
   6692 ****       188.5000   5.5000  49.7500 Du        
   6693 ****       188.5000   5.5000  50.0000 Du        
   6694 ****       188.5000   5.5000  50.2500 Du        
   6695 ****       188.5000   5.5000  50.5000 Du        
   6696 ****       188.5000   5.5000  50.7500 Du        
   6697 ****       188.5000   5.5000  51.0000 Du        
   6698 ****       188.5000   5.5000  51.2500 Du        
   6699 ****       188.5000   5.5000  51.5000 Du        
   6700 ****       188.5000   5.7500  49.2500 Du        
   6701 ****       188.5000   5.7500  49.5000 Du        
   6702 ****       188.5000   5.7500  49.7500 Du        
   6703 ****       188.5000   5.7500  50.0000 Du        
   6704 ****       188.5000   5.7500  50.2500 Du        
   6705 ****       188.5000   5.7500  50.5000 Du        
   6706 ****       188.5000   5.7500  50.7500 Du        
   6707 ****       188.5000   5.7500  51.0000 Du        
   6708 ****       188.5000   5.7500  51.2500 Du        
   6709 ****       188.5000   6.0000  49.2500 Du        
   6710 ****       188.5000   6.0000  49.5000 Du        
   6711 ****       188.5000   6.0000  49.7500 Du        
   6712 ****       188.5000   6.0000  50.0000 Du        
   6713 ****       188.5000   6.0000  50.2500 Du        
   6714 ****       188.5000   6.0000  50.5000 Du        
   6715 ****       188.5000   6.0000  50.7500 Du        
   6716 ****       188.5000   6.0000  51.0000 Du        
   6717 ****       188.5000   6.2500  49.2500 Du        
   6718 ****       188.5000   6.2500  49.5000 Du        
   6719 ****       188.5000   6.2500  49.7500 Du        
   6720 ****       188.5000   6.2500  50.0000 Du        
   6721 ****       188.5000   6.2500  50.2500 Du        
   6722 ****       188.5000   6.2500  50.5000 Du        
   6723 ****       188.5000   6.2500  50.7500 Du        
   6724 ****       188.5000   6.5000  49.2500 Du        
   6725 ****       188.5000   6.5000  49.5000 Du        
   6726 ****       188.5000   6.5000  49.7500 Du        
   6727 ****       188.5000   6.5000  50.0000 Du        
   6728 ****       188.5000   6.5000  50.2500 Du        
   6729 ****       188.5000   6.5000  50.5000 Du        
   6730 ****       188.5000   6.7500  49.2500 Du        
   6731 ****       188.5000   6.7500  49.5000 Du        
   6732 ****       188.5000   6.7500  49.7500 Du        
   6733 ****       188.5000   6.7500  50.0000 Du        
   6734 ****       188.5000   6.7500  50.2500 Du        
   6735 ****       188.5000   7.0000  49.2500 Du        
   6736 ****       188.5000   7.0000  49.5000 Du        
   6737 ****       188.5000   7.0000  49.7500 Du        
   6738 ****       188.5000   7.0000  50.0000 Du        
   6739 ****       188.5000   7.2500  49.2500 Du        
   6740 ****       188.5000   7.2500  49.5000 Du        
   6741 ****       188.5000   7.2500  49.7500 Du        
   6742 ****       188.5000   7.5000  49.0000 Du        
   6743 ****       188.5000   7.5000  49.2500 Du        
   6744 ****       188.5000   7.5000  49.5000 Du        
   6745 ****       188.5000   7.7500  49.0000 Du        
   6746 ****       188.5000   7.7500  49.2500 Du        
   6747 ****       188.5000   8.0000  48.7500 Du        
   6748 ****       188.5000   8.0000  49.0000 Du        
   6749 ****       188.5000   8.0000  49.2500 Du        
   6750 ****       188.5000   8.2500  48.7500 Du        
   6751 ****       188.5000   8.2500  49.0000 Du        
   6752 ****       188.5000   8.5000  48.5000 Du        
   6753 ****       188.5000   8.5000  48.7500 Du        
   6754 ****       188.5000   8.7500  48.2500 Du        
   6755 ****       188.5000   8.7500  48.5000 Du        
   6756 ****       188.5000   8.7500  48.7500 Du        
   6757 ****       188.5000   9.0000  47.7500 Du        
   6758 ****       188.5000   9.0000  48.0000 Du        
   6759 ****       188.5000   9.0000  48.2500 Du        
   6760 ****       188.5000   9.0000  48.5000 Du        
   6761 ****       188.5000   9.2500  47.5000 Du        
   6762 ****       188.5000   9.2500  47.7500 Du        
   6763 ****       188.5000   9.2500  48.0000 Du        
   6764 ****       188.5000   9.2500  48.2500 Du        
   6765 ****       188.5000   9.5000  46.2500 Du        
   6766 ****       188.5000   9.5000  46.7500 Du        
   6767 ****       188.5000   9.5000  47.0000 Du        
   6768 ****       188.5000   9.5000  47.2500 Du        
   6769 ****       188.5000   9.5000  47.5000 Du        
   6770 ****       188.5000   9.5000  47.7500 Du        
   6771 ****       188.5000   9.5000  48.0000 Du        
   6772 ****       188.5000   9.5000  48.2500 Du        
   6773 ****       188.5000   9.7500  45.0000 Du        
   6774 ****       188.5000   9.7500  45.2500 Du        
   6775 ****       188.5000   9.7500  45.5000 Du        
   6776 ****       188.5000   9.7500  45.7500 Du        
   6777 ****       188.5000   9.7500  46.0000 Du        
   6778 ****       188.5000   9.7500  46.2500 Du        
   6779 ****       188.5000   9.7500  46.5000 Du        
   6780 ****       188.5000   9.7500  46.7500 Du        
   6781 ****       188.5000   9.7500  47.0000 Du        
   6782 ****       188.5000   9.7500  47.2500 Du        
   6783 ****       188.5000   9.7500  47.5000 Du        
   6784 ****       188.5000   9.7500  47.7500 Du        
   6785 ****       188.5000   9.7500  48.0000 Du        
   6786 ****       188.5000  10.0000  44.2500 Du        
   6787 ****       188.5000  10.0000  44.5000 Du        
   6788 ****       188.5000  10.0000  44.7500 Du        
   6789 ****       188.5000  10.0000  45.0000 Du        
   6790 ****       188.5000  10.0000  45.2500 Du        
   6791 ****       188.5000  10.0000  45.5000 Du        
   6792 ****       188.5000  10.0000  45.7500 Du        
   6793 ****       188.5000  10.0000  46.0000 Du        
   6794 ****       188.5000  10.0000  46.2500 Du        
   6795 ****       188.5000  10.0000  46.5000 Du        
   6796 ****       188.5000  10.0000  46.7500 Du        
   6797 ****       188.5000  10.0000  47.0000 Du        
   6798 ****       188.5000  10.0000  47.2500 Du        
   6799 ****       188.5000  10.0000  47.5000 Du        
   6800 ****       188.5000  10.0000  47.7500 Du        
   6801 ****       188.5000  10.0000  48.0000 Du        
   6802 ****       188.5000  10.2500  44.0000 Du        
   6803 ****       188.5000  10.2500  44.2500 Du        
   6804 ****       188.5000  10.2500  44.5000 Du        
   6805 ****       188.5000  10.2500  44.7500 Du        
   6806 ****       188.5000  10.2500  45.0000 Du        
   6807 ****       188.5000  10.2500  45.2500 Du        
   6808 ****       188.5000  10.2500  45.5000 Du        
   6809 ****       188.5000  10.2500  45.7500 Du        
   6810 ****       188.5000  10.2500  46.0000 Du        
   6811 ****       188.5000  10.2500  46.2500 Du        
   6812 ****       188.5000  10.2500  46.5000 Du        
   6813 ****       188.5000  10.2500  46.7500 Du        
   6814 ****       188.5000  10.2500  47.0000 Du        
   6815 ****       188.5000  10.2500  47.2500 Du        
   6816 ****       188.5000  10.2500  47.5000 Du        
   6817 ****       188.5000  10.2500  47.7500 Du        
   6818 ****       188.5000  10.5000  44.2500 Du        
   6819 ****       188.5000  10.5000  44.5000 Du        
   6820 ****       188.5000  10.5000  44.7500 Du        
   6821 ****       188.5000  10.5000  45.0000 Du        
   6822 ****       188.5000  10.5000  45.2500 Du        
   6823 ****       188.5000  10.5000  45.5000 Du        
   6824 ****       188.5000  10.5000  45.7500 Du        
   6825 ****       188.5000  10.5000  46.0000 Du        
   6826 ****       188.5000  10.5000  46.2500 Du        
   6827 ****       188.5000  10.5000  47.0000 Du        
   6828 ****       188.5000  10.7500  44.2500 Du        
   6829 ****       188.5000  10.7500  44.5000 Du        
   6830 ****       188.5000  10.7500  44.7500 Du        
   6831 ****       188.5000  10.7500  45.0000 Du        
   6832 ****       188.5000  10.7500  45.2500 Du        
   6833 ****       188.5000  10.7500  45.5000 Du        
   6834 ****       188.5000  10.7500  45.7500 Du        
   6835 ****       188.5000  10.7500  46.0000 Du        
   6836 ****       188.5000  10.7500  46.2500 Du        
   6837 ****       188.5000  11.0000  44.2500 Du        
   6838 ****       188.5000  11.0000  44.5000 Du        
   6839 ****       188.5000  11.0000  44.7500 Du        
   6840 ****       188.5000  11.0000  45.0000 Du        
   6841 ****       188.5000  11.0000  45.2500 Du        
   6842 ****       188.5000  11.0000  45.5000 Du        
   6843 ****       188.5000  11.0000  45.7500 Du        
   6844 ****       188.5000  11.0000  46.0000 Du        
   6845 ****       188.5000  11.2500  44.5000 Du        
   6846 ****       188.5000  11.2500  44.7500 Du        
   6847 ****       188.5000  11.2500  45.0000 Du        
   6848 ****       188.5000  11.2500  45.2500 Du        
   6849 ****       188.5000  11.2500  45.5000 Du        
   6850 ****       188.5000  18.0000  48.7500 Du        
   6851 ****       188.5000  18.0000  49.0000 Du        
   6852 ****       188.5000  18.2500  48.5000 Du        
   6853 ****       188.5000  18.2500  48.7500 Du        
   6854 ****       188.5000  18.2500  49.0000 Du        
   6855 ****       188.5000  18.5000  48.0000 Du        
   6856 ****       188.5000  18.5000  48.2500 Du        
   6857 ****       188.5000  18.5000  48.5000 Du        
   6858 ****       188.5000  18.5000  48.7500 Du        
   6859 ****       188.5000  18.5000  49.0000 Du        
   6860 ****       188.5000  18.5000  49.2500 Du        
   6861 ****       188.5000  18.5000  49.5000 Du        
   6862 ****       188.5000  18.7500  48.0000 Du        
   6863 ****       188.5000  18.7500  48.2500 Du        
   6864 ****       188.5000  18.7500  48.5000 Du        
   6865 ****       188.5000  18.7500  48.7500 Du        
   6866 ****       188.5000  18.7500  49.0000 Du        
   6867 ****       188.5000  18.7500  49.2500 Du        
   6868 ****       188.5000  18.7500  49.5000 Du        
   6869 ****       188.5000  19.0000  48.2500 Du        
   6870 ****       188.5000  19.0000  48.5000 Du        
   6871 ****       188.5000  19.0000  48.7500 Du        
   6872 ****       188.5000  19.0000  49.0000 Du        
   6873 ****       188.5000  19.0000  49.2500 Du        
   6874 ****       188.5000  19.0000  49.5000 Du        
   6875 ****       188.5000  19.0000  49.7500 Du        
   6876 ****       188.5000  19.2500  48.7500 Du        
   6877 ****       188.5000  19.2500  49.0000 Du        
   6878 ****       188.5000  19.2500  49.2500 Du        
   6879 ****       188.5000  19.2500  49.5000 Du        
   6880 ****       188.5000  19.2500  49.7500 Du        
   6881 ****       188.5000  19.5000  49.2500 Du        
   6882 ****       188.5000  19.5000  49.5000 Du        
   6883 ****       188.5000  19.5000  49.7500 Du        
   6884 ****       188.5000  19.5000  50.0000 Du        
   6885 ****       188.5000  19.5000  50.2500 Du        
   6886 ****       188.5000  19.7500  49.7500 Du        
   6887 ****       188.5000  19.7500  50.0000 Du        
   6888 ****       188.5000  19.7500  50.2500 Du        
   6889 ****       188.5000  19.7500  50.5000 Du        
   6890 ****       188.5000  20.0000  50.0000 Du        
   6891 ****       188.5000  20.0000  50.2500 Du        
   6892 ****       188.5000  20.0000  50.5000 Du        
   6893 ****       188.5000  20.2500  50.2500 Du        
   6894 ****       188.5000  20.2500  50.5000 Du        
   6895 ****       188.7500   2.2500  48.7500 Du        
   6896 ****       188.7500   2.2500  49.0000 Du        
   6897 ****       188.7500   2.2500  49.2500 Du        
   6898 ****       188.7500   2.2500  49.5000 Du        
   6899 ****       188.7500   2.2500  49.7500 Du        
   6900 ****       188.7500   2.2500  50.0000 Du        
   6901 ****       188.7500   2.5000  48.7500 Du        
   6902 ****       188.7500   2.5000  49.0000 Du        
   6903 ****       188.7500   2.5000  49.2500 Du        
   6904 ****       188.7500   2.5000  49.5000 Du        
   6905 ****       188.7500   2.5000  49.7500 Du        
   6906 ****       188.7500   2.5000  50.0000 Du        
   6907 ****       188.7500   2.5000  50.2500 Du        
   6908 ****       188.7500   2.5000  50.5000 Du        
   6909 ****       188.7500   2.7500  48.7500 Du        
   6910 ****       188.7500   2.7500  49.0000 Du        
   6911 ****       188.7500   2.7500  49.2500 Du        
   6912 ****       188.7500   2.7500  49.5000 Du        
   6913 ****       188.7500   2.7500  49.7500 Du        
   6914 ****       188.7500   2.7500  50.0000 Du        
   6915 ****       188.7500   2.7500  50.2500 Du        
   6916 ****       188.7500   2.7500  50.5000 Du        
   6917 ****       188.7500   2.7500  50.7500 Du        
   6918 ****       188.7500   2.7500  51.0000 Du        
   6919 ****       188.7500   3.0000  48.7500 Du        
   6920 ****       188.7500   3.0000  49.0000 Du        
   6921 ****       188.7500   3.0000  49.2500 Du        
   6922 ****       188.7500   3.0000  49.5000 Du        
   6923 ****       188.7500   3.0000  49.7500 Du        
   6924 ****       188.7500   3.0000  50.0000 Du        
   6925 ****       188.7500   3.0000  50.2500 Du        
   6926 ****       188.7500   3.0000  50.5000 Du        
   6927 ****       188.7500   3.0000  50.7500 Du        
   6928 ****       188.7500   3.0000  51.0000 Du        
   6929 ****       188.7500   3.0000  51.2500 Du        
   6930 ****       188.7500   3.2500  48.7500 Du        
   6931 ****       188.7500   3.2500  49.0000 Du        
   6932 ****       188.7500   3.2500  49.2500 Du        
   6933 ****       188.7500   3.2500  49.5000 Du        
   6934 ****       188.7500   3.2500  49.7500 Du        
   6935 ****       188.7500   3.2500  50.0000 Du        
   6936 ****       188.7500   3.2500  50.2500 Du        
   6937 ****       188.7500   3.2500  50.5000 Du        
   6938 ****       188.7500   3.2500  50.7500 Du        
   6939 ****       188.7500   3.2500  51.0000 Du        
   6940 ****       188.7500   3.2500  51.2500 Du        
   6941 ****       188.7500   3.2500  51.5000 Du        
   6942 ****       188.7500   3.5000  48.7500 Du        
   6943 ****       188.7500   3.5000  49.0000 Du        
   6944 ****       188.7500   3.5000  49.2500 Du        
   6945 ****       188.7500   3.5000  49.5000 Du        
   6946 ****       188.7500   3.5000  49.7500 Du        
   6947 ****       188.7500   3.5000  50.0000 Du        
   6948 ****       188.7500   3.5000  50.2500 Du        
   6949 ****       188.7500   3.5000  50.5000 Du        
   6950 ****       188.7500   3.5000  50.7500 Du        
   6951 ****       188.7500   3.5000  51.0000 Du        
   6952 ****       188.7500   3.5000  51.2500 Du        
   6953 ****       188.7500   3.5000  51.5000 Du        
   6954 ****       188.7500   3.5000  51.7500 Du        
   6955 ****       188.7500   3.7500  48.7500 Du        
   6956 ****       188.7500   3.7500  49.0000 Du        
   6957 ****       188.7500   3.7500  49.2500 Du        
   6958 ****       188.7500   3.7500  49.5000 Du        
   6959 ****       188.7500   3.7500  49.7500 Du        
   6960 ****       188.7500   3.7500  50.0000 Du        
   6961 ****       188.7500   3.7500  50.2500 Du        
   6962 ****       188.7500   3.7500  50.5000 Du        
   6963 ****       188.7500   3.7500  50.7500 Du        
   6964 ****       188.7500   3.7500  51.0000 Du        
   6965 ****       188.7500   3.7500  51.2500 Du        
   6966 ****       188.7500   3.7500  51.5000 Du        
   6967 ****       188.7500   3.7500  51.7500 Du        
   6968 ****       188.7500   3.7500  52.0000 Du        
   6969 ****       188.7500   4.0000  48.7500 Du        
   6970 ****       188.7500   4.0000  49.0000 Du        
   6971 ****       188.7500   4.0000  49.2500 Du        
   6972 ****       188.7500   4.0000  49.5000 Du        
   6973 ****       188.7500   4.0000  49.7500 Du        
   6974 ****       188.7500   4.0000  50.0000 Du        
   6975 ****       188.7500   4.0000  50.2500 Du        
   6976 ****       188.7500   4.0000  50.5000 Du        
   6977 ****       188.7500   4.0000  50.7500 Du        
   6978 ****       188.7500   4.0000  51.0000 Du        
   6979 ****       188.7500   4.0000  51.2500 Du        
   6980 ****       188.7500   4.0000  51.5000 Du        
   6981 ****       188.7500   4.0000  51.7500 Du        
   6982 ****       188.7500   4.0000  52.0000 Du        
   6983 ****       188.7500   4.0000  52.2500 Du        
   6984 ****       188.7500   4.2500  49.0000 Du        
   6985 ****       188.7500   4.2500  49.2500 Du        
   6986 ****       188.7500   4.2500  49.5000 Du        
   6987 ****       188.7500   4.2500  49.7500 Du        
   6988 ****       188.7500   4.2500  50.0000 Du        
   6989 ****       188.7500   4.2500  50.2500 Du        
   6990 ****       188.7500   4.2500  50.5000 Du        
   6991 ****       188.7500   4.2500  50.7500 Du        
   6992 ****       188.7500   4.2500  51.0000 Du        
   6993 ****       188.7500   4.2500  51.2500 Du        
   6994 ****       188.7500   4.2500  51.5000 Du        
   6995 ****       188.7500   4.2500  51.7500 Du        
   6996 ****       188.7500   4.2500  52.0000 Du        
   6997 ****       188.7500   4.2500  52.2500 Du        
   6998 ****       188.7500   4.2500  52.5000 Du        
   6999 ****       188.7500   4.5000  49.0000 Du        
   7000 ****       188.7500   4.5000  49.2500 Du        
   7001 ****       188.7500   4.5000  49.5000 Du        
   7002 ****       188.7500   4.5000  49.7500 Du        
   7003 ****       188.7500   4.5000  50.0000 Du        
   7004 ****       188.7500   4.5000  50.2500 Du        
   7005 ****       188.7500   4.5000  50.5000 Du        
   7006 ****       188.7500   4.5000  50.7500 Du        
   7007 ****       188.7500   4.5000  51.0000 Du        
   7008 ****       188.7500   4.5000  51.2500 Du        
   7009 ****       188.7500   4.5000  51.5000 Du        
   7010 ****       188.7500   4.5000  51.7500 Du        
   7011 ****       188.7500   4.5000  52.0000 Du        
   7012 ****       188.7500   4.5000  52.2500 Du        
   7013 ****       188.7500   4.7500  49.0000 Du        
   7014 ****       188.7500   4.7500  49.2500 Du        
   7015 ****       188.7500   4.7500  49.5000 Du        
   7016 ****       188.7500   4.7500  49.7500 Du        
   7017 ****       188.7500   4.7500  50.0000 Du        
   7018 ****       188.7500   4.7500  50.2500 Du        
   7019 ****       188.7500   4.7500  50.5000 Du        
   7020 ****       188.7500   4.7500  50.7500 Du        
   7021 ****       188.7500   4.7500  51.0000 Du        
   7022 ****       188.7500   4.7500  51.2500 Du        
   7023 ****       188.7500   4.7500  51.5000 Du        
   7024 ****       188.7500   4.7500  51.7500 Du        
   7025 ****       188.7500   4.7500  52.0000 Du        
   7026 ****       188.7500   4.7500  52.2500 Du        
   7027 ****       188.7500   5.0000  49.0000 Du        
   7028 ****       188.7500   5.0000  49.2500 Du        
   7029 ****       188.7500   5.0000  49.5000 Du        
   7030 ****       188.7500   5.0000  49.7500 Du        
   7031 ****       188.7500   5.0000  50.0000 Du        
   7032 ****       188.7500   5.0000  50.2500 Du        
   7033 ****       188.7500   5.0000  50.5000 Du        
   7034 ****       188.7500   5.0000  50.7500 Du        
   7035 ****       188.7500   5.0000  51.0000 Du        
   7036 ****       188.7500   5.0000  51.2500 Du        
   7037 ****       188.7500   5.0000  51.5000 Du        
   7038 ****       188.7500   5.0000  51.7500 Du        
   7039 ****       188.7500   5.0000  52.0000 Du        
   7040 ****       188.7500   5.0000  52.2500 Du        
   7041 ****       188.7500   5.2500  49.0000 Du        
   7042 ****       188.7500   5.2500  49.2500 Du        
   7043 ****       188.7500   5.2500  49.5000 Du        
   7044 ****       188.7500   5.2500  49.7500 Du        
   7045 ****       188.7500   5.2500  50.0000 Du        
   7046 ****       188.7500   5.2500  50.2500 Du        
   7047 ****       188.7500   5.2500  50.5000 Du        
   7048 ****       188.7500   5.2500  50.7500 Du        
   7049 ****       188.7500   5.2500  51.0000 Du        
   7050 ****       188.7500   5.2500  51.2500 Du        
   7051 ****       188.7500   5.2500  51.5000 Du        
   7052 ****       188.7500   5.2500  51.7500 Du        
   7053 ****       188.7500   5.2500  52.0000 Du        
   7054 ****       188.7500   5.5000  49.2500 Du        
   7055 ****       188.7500   5.5000  49.5000 Du        
   7056 ****       188.7500   5.5000  49.7500 Du        
   7057 ****       188.7500   5.5000  50.0000 Du        
   7058 ****       188.7500   5.5000  50.2500 Du        
   7059 ****       188.7500   5.5000  50.5000 Du        
   7060 ****       188.7500   5.5000  50.7500 Du        
   7061 ****       188.7500   5.5000  51.0000 Du        
   7062 ****       188.7500   5.5000  51.2500 Du        
   7063 ****       188.7500   5.5000  51.5000 Du        
   7064 ****       188.7500   5.7500  49.2500 Du        
   7065 ****       188.7500   5.7500  49.5000 Du        
   7066 ****       188.7500   5.7500  49.7500 Du        
   7067 ****       188.7500   5.7500  50.0000 Du        
   7068 ****       188.7500   5.7500  50.2500 Du        
   7069 ****       188.7500   5.7500  50.5000 Du        
   7070 ****       188.7500   5.7500  50.7500 Du        
   7071 ****       188.7500   5.7500  51.0000 Du        
   7072 ****       188.7500   5.7500  51.2500 Du        
   7073 ****       188.7500   6.0000  49.2500 Du        
   7074 ****       188.7500   6.0000  49.5000 Du        
   7075 ****       188.7500   6.0000  49.7500 Du        
   7076 ****       188.7500   6.0000  50.0000 Du        
   7077 ****       188.7500   6.0000  50.2500 Du        
   7078 ****       188.7500   6.0000  50.5000 Du        
   7079 ****       188.7500   6.0000  50.7500 Du        
   7080 ****       188.7500   6.0000  51.0000 Du        
   7081 ****       188.7500   6.2500  49.2500 Du        
   7082 ****       188.7500   6.2500  49.5000 Du        
   7083 ****       188.7500   6.2500  49.7500 Du        
   7084 ****       188.7500   6.2500  50.0000 Du        
   7085 ****       188.7500   6.2500  50.2500 Du        
   7086 ****       188.7500   6.2500  50.5000 Du        
   7087 ****       188.7500   6.2500  50.7500 Du        
   7088 ****       188.7500   6.5000  49.2500 Du        
   7089 ****       188.7500   6.5000  49.5000 Du        
   7090 ****       188.7500   6.5000  49.7500 Du        
   7091 ****       188.7500   6.5000  50.0000 Du        
   7092 ****       188.7500   6.5000  50.2500 Du        
   7093 ****       188.7500   6.5000  50.5000 Du        
   7094 ****       188.7500   6.7500  49.2500 Du        
   7095 ****       188.7500   6.7500  49.5000 Du        
   7096 ****       188.7500   6.7500  49.7500 Du        
   7097 ****       188.7500   6.7500  50.0000 Du        
   7098 ****       188.7500   6.7500  50.2500 Du        
   7099 ****       188.7500   7.0000  49.2500 Du        
   7100 ****       188.7500   7.0000  49.5000 Du        
   7101 ****       188.7500   7.0000  49.7500 Du        
   7102 ****       188.7500   7.0000  50.0000 Du        
   7103 ****       188.7500   7.2500  49.0000 Du        
   7104 ****       188.7500   7.2500  49.2500 Du        
   7105 ****       188.7500   7.2500  49.5000 Du        
   7106 ****       188.7500   7.2500  49.7500 Du        
   7107 ****       188.7500   7.5000  49.0000 Du        
   7108 ****       188.7500   7.5000  49.2500 Du        
   7109 ****       188.7500   7.7500  49.0000 Du        
   7110 ****       188.7500   7.7500  49.2500 Du        
   7111 ****       188.7500   8.0000  48.7500 Du        
   7112 ****       188.7500   8.0000  49.0000 Du        
   7113 ****       188.7500   8.2500  48.5000 Du        
   7114 ****       188.7500   8.2500  48.7500 Du        
   7115 ****       188.7500   8.7500  48.0000 Du        
   7116 ****       188.7500   8.7500  48.2500 Du        
   7117 ****       188.7500   8.7500  48.5000 Du        
   7118 ****       188.7500   9.0000  47.7500 Du        
   7119 ****       188.7500   9.0000  48.0000 Du        
   7120 ****       188.7500   9.0000  48.2500 Du        
   7121 ****       188.7500   9.2500  47.2500 Du        
   7122 ****       188.7500   9.2500  47.5000 Du        
   7123 ****       188.7500   9.2500  47.7500 Du        
   7124 ****       188.7500   9.2500  48.0000 Du        
   7125 ****       188.7500   9.2500  48.2500 Du        
   7126 ****       188.7500   9.5000  46.0000 Du        
   7127 ****       188.7500   9.5000  46.2500 Du        
   7128 ****       188.7500   9.5000  46.7500 Du        
   7129 ****       188.7500   9.5000  47.0000 Du        
   7130 ****       188.7500   9.5000  47.2500 Du        
   7131 ****       188.7500   9.5000  47.5000 Du        
   7132 ****       188.7500   9.5000  47.7500 Du        
   7133 ****       188.7500   9.5000  48.0000 Du        
   7134 ****       188.7500   9.7500  45.0000 Du        
   7135 ****       188.7500   9.7500  45.2500 Du        
   7136 ****       188.7500   9.7500  45.5000 Du        
   7137 ****       188.7500   9.7500  45.7500 Du        
   7138 ****       188.7500   9.7500  46.0000 Du        
   7139 ****       188.7500   9.7500  46.2500 Du        
   7140 ****       188.7500   9.7500  46.5000 Du        
   7141 ****       188.7500   9.7500  46.7500 Du        
   7142 ****       188.7500   9.7500  47.0000 Du        
   7143 ****       188.7500   9.7500  47.2500 Du        
   7144 ****       188.7500   9.7500  47.5000 Du        
   7145 ****       188.7500   9.7500  47.7500 Du        
   7146 ****       188.7500   9.7500  48.0000 Du        
   7147 ****       188.7500  10.0000  44.0000 Du        
   7148 ****       188.7500  10.0000  44.2500 Du        
   7149 ****       188.7500  10.0000  44.5000 Du        
   7150 ****       188.7500  10.0000  44.7500 Du        
   7151 ****       188.7500  10.0000  45.0000 Du        
   7152 ****       188.7500  10.0000  45.2500 Du        
   7153 ****       188.7500  10.0000  45.5000 Du        
   7154 ****       188.7500  10.0000  45.7500 Du        
   7155 ****       188.7500  10.0000  46.0000 Du        
   7156 ****       188.7500  10.0000  46.2500 Du        
   7157 ****       188.7500  10.0000  46.5000 Du        
   7158 ****       188.7500  10.0000  46.7500 Du        
   7159 ****       188.7500  10.0000  47.0000 Du        
   7160 ****       188.7500  10.0000  47.2500 Du        
   7161 ****       188.7500  10.0000  47.5000 Du        
   7162 ****       188.7500  10.0000  47.7500 Du        
   7163 ****       188.7500  10.2500  44.0000 Du        
   7164 ****       188.7500  10.2500  44.2500 Du        
   7165 ****       188.7500  10.2500  44.5000 Du        
   7166 ****       188.7500  10.2500  44.7500 Du        
   7167 ****       188.7500  10.2500  45.0000 Du        
   7168 ****       188.7500  10.2500  45.2500 Du        
   7169 ****       188.7500  10.2500  45.5000 Du        
   7170 ****       188.7500  10.2500  45.7500 Du        
   7171 ****       188.7500  10.2500  46.0000 Du        
   7172 ****       188.7500  10.2500  46.5000 Du        
   7173 ****       188.7500  10.2500  46.7500 Du        
   7174 ****       188.7500  10.2500  47.0000 Du        
   7175 ****       188.7500  10.2500  47.2500 Du        
   7176 ****       188.7500  10.2500  47.5000 Du        
   7177 ****       188.7500  10.2500  47.7500 Du        
   7178 ****       188.7500  10.5000  44.0000 Du        
   7179 ****       188.7500  10.5000  44.2500 Du        
   7180 ****       188.7500  10.5000  44.5000 Du        
   7181 ****       188.7500  10.5000  44.7500 Du        
   7182 ****       188.7500  10.5000  45.0000 Du        
   7183 ****       188.7500  10.7500  44.0000 Du        
   7184 ****       188.7500  10.7500  44.2500 Du        
   7185 ****       188.7500  10.7500  44.5000 Du        
   7186 ****       188.7500  10.7500  44.7500 Du        
   7187 ****       188.7500  10.7500  45.0000 Du        
   7188 ****       188.7500  11.0000  44.0000 Du        
   7189 ****       188.7500  11.0000  44.2500 Du        
   7190 ****       188.7500  11.0000  44.5000 Du        
   7191 ****       188.7500  11.0000  44.7500 Du        
   7192 ****       188.7500  11.0000  45.0000 Du        
   7193 ****       188.7500  11.2500  44.2500 Du        
   7194 ****       188.7500  11.2500  44.5000 Du        
   7195 ****       188.7500  11.2500  44.7500 Du        
   7196 ****       188.7500  13.2500  39.0000 Du        
   7197 ****       188.7500  13.5000  39.0000 Du        
   7198 ****       188.7500  13.7500  39.0000 Du        
   7199 ****       188.7500  13.7500  39.2500 Du        
   7200 ****       188.7500  14.0000  39.0000 Du        
   7201 ****       188.7500  14.0000  39.2500 Du        
   7202 ****       188.7500  14.0000  39.5000 Du        
   7203 ****       188.7500  14.0000  39.7500 Du        
   7204 ****       188.7500  14.2500  39.0000 Du        
   7205 ****       188.7500  14.2500  39.2500 Du        
   7206 ****       188.7500  14.2500  39.5000 Du        
   7207 ****       188.7500  14.2500  39.7500 Du        
   7208 ****       188.7500  14.5000  39.0000 Du        
   7209 ****       188.7500  14.5000  39.2500 Du        
   7210 ****       188.7500  14.5000  39.5000 Du        
   7211 ****       188.7500  14.7500  39.2500 Du        
   7212 ****       188.7500  17.7500  48.5000 Du        
   7213 ****       188.7500  17.7500  48.7500 Du        
   7214 ****       188.7500  18.0000  48.5000 Du        
   7215 ****       188.7500  18.0000  48.7500 Du        
   7216 ****       188.7500  18.0000  49.0000 Du        
   7217 ****       188.7500  18.2500  47.7500 Du        
   7218 ****       188.7500  18.2500  48.0000 Du        
   7219 ****       188.7500  18.2500  48.2500 Du        
   7220 ****       188.7500  18.2500  48.5000 Du        
   7221 ****       188.7500  18.2500  48.7500 Du        
   7222 ****       188.7500  18.2500  49.0000 Du        
   7223 ****       188.7500  18.2500  49.2500 Du        
   7224 ****       188.7500  18.5000  47.5000 Du        
   7225 ****       188.7500  18.5000  47.7500 Du        
   7226 ****       188.7500  18.5000  48.0000 Du        
   7227 ****       188.7500  18.5000  48.2500 Du        
   7228 ****       188.7500  18.5000  48.5000 Du        
   7229 ****       188.7500  18.5000  48.7500 Du        
   7230 ****       188.7500  18.5000  49.0000 Du        
   7231 ****       188.7500  18.5000  49.2500 Du        
   7232 ****       188.7500  18.5000  49.5000 Du        
   7233 ****       188.7500  18.7500  47.5000 Du        
   7234 ****       188.7500  18.7500  47.7500 Du        
   7235 ****       188.7500  18.7500  48.0000 Du        
   7236 ****       188.7500  18.7500  48.2500 Du        
   7237 ****       188.7500  18.7500  48.5000 Du        
   7238 ****       188.7500  18.7500  48.7500 Du        
   7239 ****       188.7500  18.7500  49.0000 Du        
   7240 ****       188.7500  18.7500  49.2500 Du        
   7241 ****       188.7500  18.7500  49.5000 Du        
   7242 ****       188.7500  19.0000  48.2500 Du        
   7243 ****       188.7500  19.0000  48.5000 Du        
   7244 ****       188.7500  19.0000  48.7500 Du        
   7245 ****       188.7500  19.0000  49.0000 Du        
   7246 ****       188.7500  19.0000  49.2500 Du        
   7247 ****       188.7500  19.0000  49.5000 Du        
   7248 ****       188.7500  19.0000  49.7500 Du        
   7249 ****       188.7500  19.2500  48.7500 Du        
   7250 ****       188.7500  19.2500  49.0000 Du        
   7251 ****       188.7500  19.2500  49.2500 Du        
   7252 ****       188.7500  19.2500  49.5000 Du        
   7253 ****       188.7500  19.2500  49.7500 Du        
   7254 ****       188.7500  19.2500  50.0000 Du        
   7255 ****       188.7500  19.5000  49.2500 Du        
   7256 ****       188.7500  19.5000  49.5000 Du        
   7257 ****       188.7500  19.5000  49.7500 Du        
   7258 ****       188.7500  19.5000  50.0000 Du        
   7259 ****       188.7500  19.7500  49.7500 Du        
   7260 ****       188.7500  19.7500  50.0000 Du        
   7261 ****       188.7500  19.7500  50.2500 Du        
   7262 ****       188.7500  20.0000  50.0000 Du        
   7263 ****       188.7500  20.0000  50.2500 Du        
   7264 ****       188.7500  20.0000  50.5000 Du        
   7265 ****       189.0000   2.2500  49.0000 Du        
   7266 ****       189.0000   2.2500  49.2500 Du        
   7267 ****       189.0000   2.2500  49.5000 Du        
   7268 ****       189.0000   2.5000  49.0000 Du        
   7269 ****       189.0000   2.5000  49.2500 Du        
   7270 ****       189.0000   2.5000  49.5000 Du        
   7271 ****       189.0000   2.5000  49.7500 Du        
   7272 ****       189.0000   2.5000  50.0000 Du        
   7273 ****       189.0000   2.7500  49.0000 Du        
   7274 ****       189.0000   2.7500  49.2500 Du        
   7275 ****       189.0000   2.7500  49.5000 Du        
   7276 ****       189.0000   2.7500  49.7500 Du        
   7277 ****       189.0000   2.7500  50.0000 Du        
   7278 ****       189.0000   2.7500  50.2500 Du        
   7279 ****       189.0000   2.7500  50.5000 Du        
   7280 ****       189.0000   3.0000  49.0000 Du        
   7281 ****       189.0000   3.0000  49.2500 Du        
   7282 ****       189.0000   3.0000  49.5000 Du        
   7283 ****       189.0000   3.0000  49.7500 Du        
   7284 ****       189.0000   3.0000  50.0000 Du        
   7285 ****       189.0000   3.0000  50.2500 Du        
   7286 ****       189.0000   3.0000  50.5000 Du        
   7287 ****       189.0000   3.0000  50.7500 Du        
   7288 ****       189.0000   3.2500  49.0000 Du        
   7289 ****       189.0000   3.2500  49.2500 Du        
   7290 ****       189.0000   3.2500  49.5000 Du        
   7291 ****       189.0000   3.2500  49.7500 Du        
   7292 ****       189.0000   3.2500  50.0000 Du        
   7293 ****       189.0000   3.2500  50.2500 Du        
   7294 ****       189.0000   3.2500  50.5000 Du        
   7295 ****       189.0000   3.2500  50.7500 Du        
   7296 ****       189.0000   3.2500  51.0000 Du        
   7297 ****       189.0000   3.5000  49.0000 Du        
   7298 ****       189.0000   3.5000  49.2500 Du        
   7299 ****       189.0000   3.5000  49.5000 Du        
   7300 ****       189.0000   3.5000  49.7500 Du        
   7301 ****       189.0000   3.5000  50.0000 Du        
   7302 ****       189.0000   3.5000  50.2500 Du        
   7303 ****       189.0000   3.5000  50.5000 Du        
   7304 ****       189.0000   3.5000  50.7500 Du        
   7305 ****       189.0000   3.5000  51.0000 Du        
   7306 ****       189.0000   3.5000  51.2500 Du        
   7307 ****       189.0000   3.7500  49.0000 Du        
   7308 ****       189.0000   3.7500  49.2500 Du        
   7309 ****       189.0000   3.7500  49.5000 Du        
   7310 ****       189.0000   3.7500  49.7500 Du        
   7311 ****       189.0000   3.7500  50.0000 Du        
   7312 ****       189.0000   3.7500  50.2500 Du        
   7313 ****       189.0000   3.7500  50.5000 Du        
   7314 ****       189.0000   3.7500  50.7500 Du        
   7315 ****       189.0000   3.7500  51.0000 Du        
   7316 ****       189.0000   3.7500  51.2500 Du        
   7317 ****       189.0000   3.7500  51.5000 Du        
   7318 ****       189.0000   4.0000  49.0000 Du        
   7319 ****       189.0000   4.0000  49.2500 Du        
   7320 ****       189.0000   4.0000  49.5000 Du        
   7321 ****       189.0000   4.0000  49.7500 Du        
   7322 ****       189.0000   4.0000  50.0000 Du        
   7323 ****       189.0000   4.0000  50.2500 Du        
   7324 ****       189.0000   4.0000  50.5000 Du        
   7325 ****       189.0000   4.0000  50.7500 Du        
   7326 ****       189.0000   4.0000  51.0000 Du        
   7327 ****       189.0000   4.0000  51.2500 Du        
   7328 ****       189.0000   4.0000  51.5000 Du        
   7329 ****       189.0000   4.0000  51.7500 Du        
   7330 ****       189.0000   4.2500  49.0000 Du        
   7331 ****       189.0000   4.2500  49.2500 Du        
   7332 ****       189.0000   4.2500  49.5000 Du        
   7333 ****       189.0000   4.2500  49.7500 Du        
   7334 ****       189.0000   4.2500  50.0000 Du        
   7335 ****       189.0000   4.2500  50.2500 Du        
   7336 ****       189.0000   4.2500  50.5000 Du        
   7337 ****       189.0000   4.2500  50.7500 Du        
   7338 ****       189.0000   4.2500  51.0000 Du        
   7339 ****       189.0000   4.2500  51.2500 Du        
   7340 ****       189.0000   4.2500  51.5000 Du        
   7341 ****       189.0000   4.2500  51.7500 Du        
   7342 ****       189.0000   4.5000  49.0000 Du        
   7343 ****       189.0000   4.5000  49.2500 Du        
   7344 ****       189.0000   4.5000  49.5000 Du        
   7345 ****       189.0000   4.5000  49.7500 Du        
   7346 ****       189.0000   4.5000  50.0000 Du        
   7347 ****       189.0000   4.5000  50.2500 Du        
   7348 ****       189.0000   4.5000  50.5000 Du        
   7349 ****       189.0000   4.5000  50.7500 Du        
   7350 ****       189.0000   4.5000  51.0000 Du        
   7351 ****       189.0000   4.5000  51.2500 Du        
   7352 ****       189.0000   4.5000  51.5000 Du        
   7353 ****       189.0000   4.5000  51.7500 Du        
   7354 ****       189.0000   4.7500  49.0000 Du        
   7355 ****       189.0000   4.7500  49.2500 Du        
   7356 ****       189.0000   4.7500  49.5000 Du        
   7357 ****       189.0000   4.7500  49.7500 Du        
   7358 ****       189.0000   4.7500  50.0000 Du        
   7359 ****       189.0000   4.7500  50.2500 Du        
   7360 ****       189.0000   4.7500  50.5000 Du        
   7361 ****       189.0000   4.7500  50.7500 Du        
   7362 ****       189.0000   4.7500  51.0000 Du        
   7363 ****       189.0000   4.7500  51.2500 Du        
   7364 ****       189.0000   4.7500  51.5000 Du        
   7365 ****       189.0000   4.7500  51.7500 Du        
   7366 ****       189.0000   4.7500  52.0000 Du        
   7367 ****       189.0000   5.0000  49.0000 Du        
   7368 ****       189.0000   5.0000  49.2500 Du        
   7369 ****       189.0000   5.0000  49.5000 Du        
   7370 ****       189.0000   5.0000  49.7500 Du        
   7371 ****       189.0000   5.0000  50.0000 Du        
   7372 ****       189.0000   5.0000  50.2500 Du        
   7373 ****       189.0000   5.0000  50.5000 Du        
   7374 ****       189.0000   5.0000  50.7500 Du        
   7375 ****       189.0000   5.0000  51.0000 Du        
   7376 ****       189.0000   5.0000  51.2500 Du        
   7377 ****       189.0000   5.0000  51.5000 Du        
   7378 ****       189.0000   5.0000  51.7500 Du        
   7379 ****       189.0000   5.2500  49.0000 Du        
   7380 ****       189.0000   5.2500  49.2500 Du        
   7381 ****       189.0000   5.2500  49.5000 Du        
   7382 ****       189.0000   5.2500  49.7500 Du        
   7383 ****       189.0000   5.2500  50.0000 Du        
   7384 ****       189.0000   5.2500  50.2500 Du        
   7385 ****       189.0000   5.2500  50.5000 Du        
   7386 ****       189.0000   5.2500  50.7500 Du        
   7387 ****       189.0000   5.2500  51.0000 Du        
   7388 ****       189.0000   5.2500  51.2500 Du        
   7389 ****       189.0000   5.2500  51.5000 Du        
   7390 ****       189.0000   5.5000  49.0000 Du        
   7391 ****       189.0000   5.5000  49.2500 Du        
   7392 ****       189.0000   5.5000  49.5000 Du        
   7393 ****       189.0000   5.5000  49.7500 Du        
   7394 ****       189.0000   5.5000  50.0000 Du        
   7395 ****       189.0000   5.5000  50.2500 Du        
   7396 ****       189.0000   5.5000  50.5000 Du        
   7397 ****       189.0000   5.5000  50.7500 Du        
   7398 ****       189.0000   5.5000  51.0000 Du        
   7399 ****       189.0000   5.5000  51.2500 Du        
   7400 ****       189.0000   5.5000  51.5000 Du        
   7401 ****       189.0000   5.7500  49.0000 Du        
   7402 ****       189.0000   5.7500  49.2500 Du        
   7403 ****       189.0000   5.7500  49.5000 Du        
   7404 ****       189.0000   5.7500  49.7500 Du        
   7405 ****       189.0000   5.7500  50.0000 Du        
   7406 ****       189.0000   5.7500  50.2500 Du        
   7407 ****       189.0000   5.7500  50.5000 Du        
   7408 ****       189.0000   5.7500  50.7500 Du        
   7409 ****       189.0000   5.7500  51.0000 Du        
   7410 ****       189.0000   5.7500  51.2500 Du        
   7411 ****       189.0000   6.0000  49.0000 Du        
   7412 ****       189.0000   6.0000  49.2500 Du        
   7413 ****       189.0000   6.0000  49.5000 Du        
   7414 ****       189.0000   6.0000  49.7500 Du        
   7415 ****       189.0000   6.0000  50.0000 Du        
   7416 ****       189.0000   6.0000  50.2500 Du        
   7417 ****       189.0000   6.0000  50.5000 Du        
   7418 ****       189.0000   6.0000  50.7500 Du        
   7419 ****       189.0000   6.0000  51.0000 Du        
   7420 ****       189.0000   6.2500  49.0000 Du        
   7421 ****       189.0000   6.2500  49.2500 Du        
   7422 ****       189.0000   6.2500  49.5000 Du        
   7423 ****       189.0000   6.2500  49.7500 Du        
   7424 ****       189.0000   6.2500  50.0000 Du        
   7425 ****       189.0000   6.2500  50.2500 Du        
   7426 ****       189.0000   6.2500  50.5000 Du        
   7427 ****       189.0000   6.2500  50.7500 Du        
   7428 ****       189.0000   6.5000  49.2500 Du        
   7429 ****       189.0000   6.5000  49.5000 Du        
   7430 ****       189.0000   6.5000  49.7500 Du        
   7431 ****       189.0000   6.5000  50.0000 Du        
   7432 ****       189.0000   6.5000  50.2500 Du        
   7433 ****       189.0000   6.7500  49.0000 Du        
   7434 ****       189.0000   6.7500  49.2500 Du        
   7435 ****       189.0000   6.7500  49.5000 Du        
   7436 ****       189.0000   6.7500  49.7500 Du        
   7437 ****       189.0000   6.7500  50.0000 Du        
   7438 ****       189.0000   7.0000  49.0000 Du        
   7439 ****       189.0000   7.0000  49.2500 Du        
   7440 ****       189.0000   7.0000  49.5000 Du        
   7441 ****       189.0000   7.0000  49.7500 Du        
   7442 ****       189.0000   7.2500  49.0000 Du        
   7443 ****       189.0000   7.2500  49.2500 Du        
   7444 ****       189.0000   7.2500  49.5000 Du        
   7445 ****       189.0000   7.5000  49.0000 Du        
   7446 ****       189.0000   8.7500  48.0000 Du        
   7447 ****       189.0000   8.7500  48.2500 Du        
   7448 ****       189.0000   9.0000  47.7500 Du        
   7449 ****       189.0000   9.0000  48.0000 Du        
   7450 ****       189.0000   9.0000  48.2500 Du        
   7451 ****       189.0000   9.2500  47.2500 Du        
   7452 ****       189.0000   9.2500  47.5000 Du        
   7453 ****       189.0000   9.2500  47.7500 Du        
   7454 ****       189.0000   9.2500  48.0000 Du        
   7455 ****       189.0000   9.5000  47.2500 Du        
   7456 ****       189.0000   9.5000  47.5000 Du        
   7457 ****       189.0000   9.5000  47.7500 Du        
   7458 ****       189.0000   9.5000  48.0000 Du        
   7459 ****       189.0000   9.7500  47.0000 Du        
   7460 ****       189.0000   9.7500  47.2500 Du        
   7461 ****       189.0000   9.7500  47.5000 Du        
   7462 ****       189.0000   9.7500  47.7500 Du        
   7463 ****       189.0000  10.0000  44.0000 Du        
   7464 ****       189.0000  10.0000  44.2500 Du        
   7465 ****       189.0000  10.0000  44.5000 Du        
   7466 ****       189.0000  10.0000  44.7500 Du        
   7467 ****       189.0000  10.0000  45.0000 Du        
   7468 ****       189.0000  10.0000  47.2500 Du        
   7469 ****       189.0000  10.0000  47.5000 Du        
   7470 ****       189.0000  10.0000  47.7500 Du        
   7471 ****       189.0000  10.2500  43.7500 Du        
   7472 ****       189.0000  10.2500  44.0000 Du        
   7473 ****       189.0000  10.2500  44.2500 Du        
   7474 ****       189.0000  10.2500  44.5000 Du        
   7475 ****       189.0000  10.2500  44.7500 Du        
   7476 ****       189.0000  10.2500  47.5000 Du        
   7477 ****       189.0000  10.5000  44.0000 Du        
   7478 ****       189.0000  10.5000  44.2500 Du        
   7479 ****       189.0000  10.5000  44.5000 Du        
   7480 ****       189.0000  10.7500  44.0000 Du        
   7481 ****       189.0000  10.7500  44.2500 Du        
   7482 ****       189.0000  11.0000  44.0000 Du        
   7483 ****       189.0000  11.0000  44.2500 Du        
   7484 ****       189.0000  11.2500  44.0000 Du        
   7485 ****       189.0000  12.7500  39.0000 Du        
   7486 ****       189.0000  13.0000  39.0000 Du        
   7487 ****       189.0000  13.2500  39.0000 Du        
   7488 ****       189.0000  13.2500  39.2500 Du        
   7489 ****       189.0000  13.5000  39.0000 Du        
   7490 ****       189.0000  13.5000  39.2500 Du        
   7491 ****       189.0000  13.5000  39.5000 Du        
   7492 ****       189.0000  13.7500  39.0000 Du        
   7493 ****       189.0000  13.7500  39.2500 Du        
   7494 ****       189.0000  13.7500  39.5000 Du        
   7495 ****       189.0000  13.7500  39.7500 Du        
   7496 ****       189.0000  14.0000  39.0000 Du        
   7497 ****       189.0000  14.0000  39.2500 Du        
   7498 ****       189.0000  14.0000  39.5000 Du        
   7499 ****       189.0000  14.0000  39.7500 Du        
   7500 ****       189.0000  14.0000  40.0000 Du        
   7501 ****       189.0000  14.2500  39.0000 Du        
   7502 ****       189.0000  14.2500  39.2500 Du        
   7503 ****       189.0000  14.2500  39.5000 Du        
   7504 ****       189.0000  14.2500  39.7500 Du        
   7505 ****       189.0000  14.2500  40.0000 Du        
   7506 ****       189.0000  14.5000  39.0000 Du        
   7507 ****       189.0000  14.5000  39.2500 Du        
   7508 ****       189.0000  14.5000  39.5000 Du        
   7509 ****       189.0000  14.5000  39.7500 Du        
   7510 ****       189.0000  14.5000  40.0000 Du        
   7511 ****       189.0000  14.7500  39.0000 Du        
   7512 ****       189.0000  14.7500  39.2500 Du        
   7513 ****       189.0000  14.7500  39.5000 Du        
   7514 ****       189.0000  14.7500  39.7500 Du        
   7515 ****       189.0000  14.7500  40.0000 Du        
   7516 ****       189.0000  15.0000  39.0000 Du        
   7517 ****       189.0000  15.0000  39.2500 Du        
   7518 ****       189.0000  15.0000  39.5000 Du        
   7519 ****       189.0000  15.0000  39.7500 Du        
   7520 ****       189.0000  15.2500  39.0000 Du        
   7521 ****       189.0000  15.2500  39.2500 Du        
   7522 ****       189.0000  17.7500  48.5000 Du        
   7523 ****       189.0000  17.7500  48.7500 Du        
   7524 ****       189.0000  17.7500  49.0000 Du        
   7525 ****       189.0000  18.0000  47.7500 Du        
   7526 ****       189.0000  18.0000  48.0000 Du        
   7527 ****       189.0000  18.0000  48.2500 Du        
   7528 ****       189.0000  18.0000  48.5000 Du        
   7529 ****       189.0000  18.0000  48.7500 Du        
   7530 ****       189.0000  18.0000  49.0000 Du        
   7531 ****       189.0000  18.0000  49.2500 Du        
   7532 ****       189.0000  18.2500  47.5000 Du        
   7533 ****       189.0000  18.2500  47.7500 Du        
   7534 ****       189.0000  18.2500  48.0000 Du        
   7535 ****       189.0000  18.2500  48.2500 Du        
   7536 ****       189.0000  18.2500  48.5000 Du        
   7537 ****       189.0000  18.2500  48.7500 Du        
   7538 ****       189.0000  18.2500  49.0000 Du        
   7539 ****       189.0000  18.2500  49.2500 Du        
   7540 ****       189.0000  18.5000  47.0000 Du        
   7541 ****       189.0000  18.5000  47.2500 Du        
   7542 ****       189.0000  18.5000  47.5000 Du        
   7543 ****       189.0000  18.5000  47.7500 Du        
   7544 ****       189.0000  18.5000  48.0000 Du        
   7545 ****       189.0000  18.5000  48.2500 Du        
   7546 ****       189.0000  18.5000  48.5000 Du        
   7547 ****       189.0000  18.5000  48.7500 Du        
   7548 ****       189.0000  18.5000  49.0000 Du        
   7549 ****       189.0000  18.5000  49.2500 Du        
   7550 ****       189.0000  18.5000  49.5000 Du        
   7551 ****       189.0000  18.7500  47.2500 Du        
   7552 ****       189.0000  18.7500  47.5000 Du        
   7553 ****       189.0000  18.7500  47.7500 Du        
   7554 ****       189.0000  18.7500  48.0000 Du        
   7555 ****       189.0000  18.7500  48.2500 Du        
   7556 ****       189.0000  18.7500  48.5000 Du        
   7557 ****       189.0000  18.7500  48.7500 Du        
   7558 ****       189.0000  18.7500  49.0000 Du        
   7559 ****       189.0000  18.7500  49.2500 Du        
   7560 ****       189.0000  18.7500  49.5000 Du        
   7561 ****       189.0000  19.0000  47.7500 Du        
   7562 ****       189.0000  19.0000  48.0000 Du        
   7563 ****       189.0000  19.0000  48.2500 Du        
   7564 ****       189.0000  19.0000  48.5000 Du        
   7565 ****       189.0000  19.0000  48.7500 Du        
   7566 ****       189.0000  19.0000  49.0000 Du        
   7567 ****       189.0000  19.0000  49.2500 Du        
   7568 ****       189.0000  19.0000  49.5000 Du        
   7569 ****       189.0000  19.0000  49.7500 Du        
   7570 ****       189.0000  19.2500  48.7500 Du        
   7571 ****       189.0000  19.2500  49.0000 Du        
   7572 ****       189.0000  19.2500  49.2500 Du        
   7573 ****       189.0000  19.2500  49.5000 Du        
   7574 ****       189.0000  19.2500  49.7500 Du        
   7575 ****       189.0000  19.2500  50.0000 Du        
   7576 ****       189.0000  19.5000  49.5000 Du        
   7577 ****       189.0000  19.5000  49.7500 Du        
   7578 ****       189.0000  19.5000  50.0000 Du        
   7579 ****       189.0000  19.7500  49.7500 Du        
   7580 ****       189.0000  19.7500  50.0000 Du        
   7581 ****       189.0000  19.7500  50.2500 Du        
   7582 ****       189.0000  20.0000  50.2500 Du        
   7583 ****       189.0000  20.0000  50.5000 Du        
   7584 ****       189.2500   2.7500  49.2500 Du        
   7585 ****       189.2500   2.7500  49.5000 Du        
   7586 ****       189.2500   2.7500  49.7500 Du        
   7587 ****       189.2500   2.7500  50.0000 Du        
   7588 ****       189.2500   3.0000  49.2500 Du        
   7589 ****       189.2500   3.0000  49.5000 Du        
   7590 ****       189.2500   3.0000  49.7500 Du        
   7591 ****       189.2500   3.0000  50.0000 Du        
   7592 ****       189.2500   3.0000  50.2500 Du        
   7593 ****       189.2500   3.2500  49.2500 Du        
   7594 ****       189.2500   3.2500  49.5000 Du        
   7595 ****       189.2500   3.2500  49.7500 Du        
   7596 ****       189.2500   3.2500  50.0000 Du        
   7597 ****       189.2500   3.2500  50.2500 Du        
   7598 ****       189.2500   3.2500  50.5000 Du        
   7599 ****       189.2500   3.5000  49.2500 Du        
   7600 ****       189.2500   3.5000  49.5000 Du        
   7601 ****       189.2500   3.5000  49.7500 Du        
   7602 ****       189.2500   3.5000  50.0000 Du        
   7603 ****       189.2500   3.5000  50.2500 Du        
   7604 ****       189.2500   3.5000  50.5000 Du        
   7605 ****       189.2500   3.5000  50.7500 Du        
   7606 ****       189.2500   3.7500  49.2500 Du        
   7607 ****       189.2500   3.7500  49.5000 Du        
   7608 ****       189.2500   3.7500  49.7500 Du        
   7609 ****       189.2500   3.7500  50.0000 Du        
   7610 ****       189.2500   3.7500  50.2500 Du        
   7611 ****       189.2500   3.7500  50.5000 Du        
   7612 ****       189.2500   3.7500  50.7500 Du        
   7613 ****       189.2500   3.7500  51.0000 Du        
   7614 ****       189.2500   4.0000  49.0000 Du        
   7615 ****       189.2500   4.0000  49.2500 Du        
   7616 ****       189.2500   4.0000  49.5000 Du        
   7617 ****       189.2500   4.0000  49.7500 Du        
   7618 ****       189.2500   4.0000  50.0000 Du        
   7619 ****       189.2500   4.0000  50.2500 Du        
   7620 ****       189.2500   4.0000  50.5000 Du        
   7621 ****       189.2500   4.0000  50.7500 Du        
   7622 ****       189.2500   4.0000  51.0000 Du        
   7623 ****       189.2500   4.2500  49.0000 Du        
   7624 ****       189.2500   4.2500  49.2500 Du        
   7625 ****       189.2500   4.2500  49.5000 Du        
   7626 ****       189.2500   4.2500  49.7500 Du        
   7627 ****       189.2500   4.2500  50.0000 Du        
   7628 ****       189.2500   4.2500  50.2500 Du        
   7629 ****       189.2500   4.2500  50.5000 Du        
   7630 ****       189.2500   4.2500  50.7500 Du        
   7631 ****       189.2500   4.2500  51.0000 Du        
   7632 ****       189.2500   4.2500  51.2500 Du        
   7633 ****       189.2500   4.5000  49.0000 Du        
   7634 ****       189.2500   4.5000  49.2500 Du        
   7635 ****       189.2500   4.5000  49.5000 Du        
   7636 ****       189.2500   4.5000  49.7500 Du        
   7637 ****       189.2500   4.5000  50.0000 Du        
   7638 ****       189.2500   4.5000  50.2500 Du        
   7639 ****       189.2500   4.5000  50.5000 Du        
   7640 ****       189.2500   4.5000  50.7500 Du        
   7641 ****       189.2500   4.5000  51.0000 Du        
   7642 ****       189.2500   4.5000  51.2500 Du        
   7643 ****       189.2500   4.7500  49.0000 Du        
   7644 ****       189.2500   4.7500  49.2500 Du        
   7645 ****       189.2500   4.7500  49.5000 Du        
   7646 ****       189.2500   4.7500  49.7500 Du        
   7647 ****       189.2500   4.7500  50.0000 Du        
   7648 ****       189.2500   4.7500  50.2500 Du        
   7649 ****       189.2500   4.7500  50.5000 Du        
   7650 ****       189.2500   4.7500  50.7500 Du        
   7651 ****       189.2500   4.7500  51.0000 Du        
   7652 ****       189.2500   4.7500  51.2500 Du        
   7653 ****       189.2500   5.0000  49.0000 Du        
   7654 ****       189.2500   5.0000  49.2500 Du        
   7655 ****       189.2500   5.0000  49.5000 Du        
   7656 ****       189.2500   5.0000  49.7500 Du        
   7657 ****       189.2500   5.0000  50.0000 Du        
   7658 ****       189.2500   5.0000  50.2500 Du        
   7659 ****       189.2500   5.0000  50.5000 Du        
   7660 ****       189.2500   5.0000  50.7500 Du        
   7661 ****       189.2500   5.0000  51.0000 Du        
   7662 ****       189.2500   5.0000  51.2500 Du        
   7663 ****       189.2500   5.2500  49.0000 Du        
   7664 ****       189.2500   5.2500  49.2500 Du        
   7665 ****       189.2500   5.2500  49.5000 Du        
   7666 ****       189.2500   5.2500  49.7500 Du        
   7667 ****       189.2500   5.2500  50.0000 Du        
   7668 ****       189.2500   5.2500  50.2500 Du        
   7669 ****       189.2500   5.2500  50.5000 Du        
   7670 ****       189.2500   5.2500  50.7500 Du        
   7671 ****       189.2500   5.2500  51.0000 Du        
   7672 ****       189.2500   5.5000  49.0000 Du        
   7673 ****       189.2500   5.5000  49.2500 Du        
   7674 ****       189.2500   5.5000  49.5000 Du        
   7675 ****       189.2500   5.5000  49.7500 Du        
   7676 ****       189.2500   5.5000  50.0000 Du        
   7677 ****       189.2500   5.5000  50.2500 Du        
   7678 ****       189.2500   5.5000  50.5000 Du        
   7679 ****       189.2500   5.5000  50.7500 Du        
   7680 ****       189.2500   5.5000  51.0000 Du        
   7681 ****       189.2500   5.7500  49.0000 Du        
   7682 ****       189.2500   5.7500  49.2500 Du        
   7683 ****       189.2500   5.7500  49.5000 Du        
   7684 ****       189.2500   5.7500  49.7500 Du        
   7685 ****       189.2500   5.7500  50.0000 Du        
   7686 ****       189.2500   5.7500  50.2500 Du        
   7687 ****       189.2500   5.7500  50.5000 Du        
   7688 ****       189.2500   5.7500  50.7500 Du        
   7689 ****       189.2500   6.0000  49.0000 Du        
   7690 ****       189.2500   6.0000  49.2500 Du        
   7691 ****       189.2500   6.0000  49.5000 Du        
   7692 ****       189.2500   6.0000  49.7500 Du        
   7693 ****       189.2500   6.0000  50.0000 Du        
   7694 ****       189.2500   6.0000  50.2500 Du        
   7695 ****       189.2500   6.0000  50.5000 Du        
   7696 ****       189.2500   6.0000  50.7500 Du        
   7697 ****       189.2500   6.2500  49.0000 Du        
   7698 ****       189.2500   6.2500  49.2500 Du        
   7699 ****       189.2500   6.2500  49.5000 Du        
   7700 ****       189.2500   6.2500  49.7500 Du        
   7701 ****       189.2500   6.2500  50.0000 Du        
   7702 ****       189.2500   6.2500  50.2500 Du        
   7703 ****       189.2500   6.2500  50.5000 Du        
   7704 ****       189.2500   6.5000  49.0000 Du        
   7705 ****       189.2500   6.5000  49.2500 Du        
   7706 ****       189.2500   6.5000  49.5000 Du        
   7707 ****       189.2500   6.5000  49.7500 Du        
   7708 ****       189.2500   6.5000  50.0000 Du        
   7709 ****       189.2500   6.7500  49.0000 Du        
   7710 ****       189.2500   6.7500  49.2500 Du        
   7711 ****       189.2500   6.7500  49.5000 Du        
   7712 ****       189.2500   6.7500  49.7500 Du        
   7713 ****       189.2500   7.0000  49.0000 Du        
   7714 ****       189.2500   7.0000  49.2500 Du        
   7715 ****       189.2500   7.0000  49.5000 Du        
   7716 ****       189.2500   7.2500  49.0000 Du        
   7717 ****       189.2500  10.0000  44.0000 Du        
   7718 ****       189.2500  10.0000  44.2500 Du        
   7719 ****       189.2500  10.2500  43.7500 Du        
   7720 ****       189.2500  10.2500  44.0000 Du        
   7721 ****       189.2500  10.2500  44.2500 Du        
   7722 ****       189.2500  10.5000  43.7500 Du        
   7723 ****       189.2500  10.5000  44.0000 Du        
   7724 ****       189.2500  10.7500  43.7500 Du        
   7725 ****       189.2500  10.7500  44.0000 Du        
   7726 ****       189.2500  12.2500  39.0000 Du        
   7727 ****       189.2500  12.5000  39.0000 Du        
   7728 ****       189.2500  12.7500  39.0000 Du        
   7729 ****       189.2500  12.7500  39.2500 Du        
   7730 ****       189.2500  13.0000  39.0000 Du        
   7731 ****       189.2500  13.0000  39.2500 Du        
   7732 ****       189.2500  13.0000  39.5000 Du        
   7733 ****       189.2500  13.2500  39.0000 Du        
   7734 ****       189.2500  13.2500  39.2500 Du        
   7735 ****       189.2500  13.2500  39.5000 Du        
   7736 ****       189.2500  13.2500  39.7500 Du        
   7737 ****       189.2500  13.5000  39.0000 Du        
   7738 ****       189.2500  13.5000  39.2500 Du        
   7739 ****       189.2500  13.5000  39.5000 Du        
   7740 ****       189.2500  13.5000  39.7500 Du        
   7741 ****       189.2500  13.7500  39.0000 Du        
   7742 ****       189.2500  13.7500  39.2500 Du        
   7743 ****       189.2500  13.7500  39.5000 Du        
   7744 ****       189.2500  13.7500  39.7500 Du        
   7745 ****       189.2500  13.7500  40.0000 Du        
   7746 ****       189.2500  14.0000  39.0000 Du        
   7747 ****       189.2500  14.0000  39.2500 Du        
   7748 ****       189.2500  14.0000  39.5000 Du        
   7749 ****       189.2500  14.0000  39.7500 Du        
   7750 ****       189.2500  14.0000  40.0000 Du        
   7751 ****       189.2500  14.0000  40.2500 Du        
   7752 ****       189.2500  14.2500  39.0000 Du        
   7753 ****       189.2500  14.2500  39.2500 Du        
   7754 ****       189.2500  14.2500  39.5000 Du        
   7755 ****       189.2500  14.2500  39.7500 Du        
   7756 ****       189.2500  14.2500  40.0000 Du        
   7757 ****       189.2500  14.2500  40.2500 Du        
   7758 ****       189.2500  14.5000  39.0000 Du        
   7759 ****       189.2500  14.5000  39.2500 Du        
   7760 ****       189.2500  14.5000  39.5000 Du        
   7761 ****       189.2500  14.5000  39.7500 Du        
   7762 ****       189.2500  14.5000  40.0000 Du        
   7763 ****       189.2500  14.5000  40.2500 Du        
   7764 ****       189.2500  14.7500  39.0000 Du        
   7765 ****       189.2500  14.7500  39.2500 Du        
   7766 ****       189.2500  14.7500  39.5000 Du        
   7767 ****       189.2500  14.7500  39.7500 Du        
   7768 ****       189.2500  14.7500  40.0000 Du        
   7769 ****       189.2500  14.7500  40.2500 Du        
   7770 ****       189.2500  15.0000  39.0000 Du        
   7771 ****       189.2500  15.0000  39.2500 Du        
   7772 ****       189.2500  15.0000  39.5000 Du        
   7773 ****       189.2500  15.0000  39.7500 Du        
   7774 ****       189.2500  15.0000  40.0000 Du        
   7775 ****       189.2500  15.0000  40.2500 Du        
   7776 ****       189.2500  15.2500  39.0000 Du        
   7777 ****       189.2500  15.2500  39.2500 Du        
   7778 ****       189.2500  15.2500  39.5000 Du        
   7779 ****       189.2500  17.7500  48.7500 Du        
   7780 ****       189.2500  17.7500  49.0000 Du        
   7781 ****       189.2500  18.0000  46.0000 Du        
   7782 ****       189.2500  18.0000  47.7500 Du        
   7783 ****       189.2500  18.0000  48.0000 Du        
   7784 ****       189.2500  18.0000  48.2500 Du        
   7785 ****       189.2500  18.0000  48.5000 Du        
   7786 ****       189.2500  18.0000  48.7500 Du        
   7787 ****       189.2500  18.0000  49.0000 Du        
   7788 ****       189.2500  18.0000  49.2500 Du        
   7789 ****       189.2500  18.2500  47.5000 Du        
   7790 ****       189.2500  18.2500  47.7500 Du        
   7791 ****       189.2500  18.2500  48.0000 Du        
   7792 ****       189.2500  18.2500  48.2500 Du        
   7793 ****       189.2500  18.2500  48.5000 Du        
   7794 ****       189.2500  18.2500  48.7500 Du        
   7795 ****       189.2500  18.2500  49.0000 Du        
   7796 ****       189.2500  18.2500  49.2500 Du        
   7797 ****       189.2500  18.5000  47.2500 Du        
   7798 ****       189.2500  18.5000  47.5000 Du        
   7799 ****       189.2500  18.5000  47.7500 Du        
   7800 ****       189.2500  18.5000  48.0000 Du        
   7801 ****       189.2500  18.5000  48.2500 Du        
   7802 ****       189.2500  18.5000  48.5000 Du        
   7803 ****       189.2500  18.5000  48.7500 Du        
   7804 ****       189.2500  18.5000  49.0000 Du        
   7805 ****       189.2500  18.5000  49.2500 Du        
   7806 ****       189.2500  18.5000  49.5000 Du        
   7807 ****       189.2500  18.7500  47.5000 Du        
   7808 ****       189.2500  18.7500  47.7500 Du        
   7809 ****       189.2500  18.7500  48.0000 Du        
   7810 ****       189.2500  18.7500  48.2500 Du        
   7811 ****       189.2500  18.7500  48.5000 Du        
   7812 ****       189.2500  18.7500  48.7500 Du        
   7813 ****       189.2500  18.7500  49.0000 Du        
   7814 ****       189.2500  18.7500  49.2500 Du        
   7815 ****       189.2500  18.7500  49.5000 Du        
   7816 ****       189.2500  18.7500  49.7500 Du        
   7817 ****       189.2500  19.0000  48.2500 Du        
   7818 ****       189.2500  19.0000  48.5000 Du        
   7819 ****       189.2500  19.0000  48.7500 Du        
   7820 ****       189.2500  19.0000  49.0000 Du        
   7821 ****       189.2500  19.0000  49.2500 Du        
   7822 ****       189.2500  19.0000  49.5000 Du        
   7823 ****       189.2500  19.0000  49.7500 Du        
   7824 ****       189.2500  19.2500  48.7500 Du        
   7825 ****       189.2500  19.2500  49.0000 Du        
   7826 ****       189.2500  19.2500  49.2500 Du        
   7827 ****       189.2500  19.2500  49.5000 Du        
   7828 ****       189.2500  19.2500  49.7500 Du        
   7829 ****       189.2500  19.2500  50.0000 Du        
   7830 ****       189.2500  19.5000  49.5000 Du        
   7831 ****       189.2500  19.5000  49.7500 Du        
   7832 ****       189.2500  19.5000  50.0000 Du        
   7833 ****       189.2500  19.5000  50.2500 Du        
   7834 ****       189.2500  19.7500  50.0000 Du        
   7835 ****       189.2500  19.7500  50.2500 Du        
   7836 ****       189.2500  20.0000  50.2500 Du        
   7837 ****       189.5000   3.0000  49.5000 Du        
   7838 ****       189.5000   3.0000  49.7500 Du        
   7839 ****       189.5000   3.2500  49.5000 Du        
   7840 ****       189.5000   3.2500  49.7500 Du        
   7841 ****       189.5000   3.2500  50.0000 Du        
   7842 ****       189.5000   3.5000  49.5000 Du        
   7843 ****       189.5000   3.5000  49.7500 Du        
   7844 ****       189.5000   3.5000  50.0000 Du        
   7845 ****       189.5000   3.5000  50.2500 Du        
   7846 ****       189.5000   3.7500  49.2500 Du        
   7847 ****       189.5000   3.7500  49.5000 Du        
   7848 ****       189.5000   3.7500  49.7500 Du        
   7849 ****       189.5000   3.7500  50.0000 Du        
   7850 ****       189.5000   3.7500  50.2500 Du        
   7851 ****       189.5000   3.7500  50.5000 Du        
   7852 ****       189.5000   4.0000  49.2500 Du        
   7853 ****       189.5000   4.0000  49.5000 Du        
   7854 ****       189.5000   4.0000  49.7500 Du        
   7855 ****       189.5000   4.0000  50.0000 Du        
   7856 ****       189.5000   4.0000  50.2500 Du        
   7857 ****       189.5000   4.0000  50.5000 Du        
   7858 ****       189.5000   4.0000  50.7500 Du        
   7859 ****       189.5000   4.2500  49.2500 Du        
   7860 ****       189.5000   4.2500  49.5000 Du        
   7861 ****       189.5000   4.2500  49.7500 Du        
   7862 ****       189.5000   4.2500  50.0000 Du        
   7863 ****       189.5000   4.2500  50.2500 Du        
   7864 ****       189.5000   4.2500  50.5000 Du        
   7865 ****       189.5000   4.2500  50.7500 Du        
   7866 ****       189.5000   4.5000  49.0000 Du        
   7867 ****       189.5000   4.5000  49.2500 Du        
   7868 ****       189.5000   4.5000  49.5000 Du        
   7869 ****       189.5000   4.5000  49.7500 Du        
   7870 ****       189.5000   4.5000  50.0000 Du        
   7871 ****       189.5000   4.5000  50.2500 Du        
   7872 ****       189.5000   4.5000  50.5000 Du        
   7873 ****       189.5000   4.5000  50.7500 Du        
   7874 ****       189.5000   4.7500  49.0000 Du        
   7875 ****       189.5000   4.7500  49.2500 Du        
   7876 ****       189.5000   4.7500  49.5000 Du        
   7877 ****       189.5000   4.7500  49.7500 Du        
   7878 ****       189.5000   4.7500  50.0000 Du        
   7879 ****       189.5000   4.7500  50.2500 Du        
   7880 ****       189.5000   4.7500  50.5000 Du        
   7881 ****       189.5000   4.7500  50.7500 Du        
   7882 ****       189.5000   5.0000  49.0000 Du        
   7883 ****       189.5000   5.0000  49.2500 Du        
   7884 ****       189.5000   5.0000  49.5000 Du        
   7885 ****       189.5000   5.0000  49.7500 Du        
   7886 ****       189.5000   5.0000  50.0000 Du        
   7887 ****       189.5000   5.0000  50.2500 Du        
   7888 ****       189.5000   5.0000  50.5000 Du        
   7889 ****       189.5000   5.0000  50.7500 Du        
   7890 ****       189.5000   5.2500  49.0000 Du        
   7891 ****       189.5000   5.2500  49.2500 Du        
   7892 ****       189.5000   5.2500  49.5000 Du        
   7893 ****       189.5000   5.2500  49.7500 Du        
   7894 ****       189.5000   5.2500  50.0000 Du        
   7895 ****       189.5000   5.2500  50.2500 Du        
   7896 ****       189.5000   5.2500  50.5000 Du        
   7897 ****       189.5000   5.5000  49.0000 Du        
   7898 ****       189.5000   5.5000  49.2500 Du        
   7899 ****       189.5000   5.5000  49.5000 Du        
   7900 ****       189.5000   5.5000  49.7500 Du        
   7901 ****       189.5000   5.5000  50.0000 Du        
   7902 ****       189.5000   5.5000  50.2500 Du        
   7903 ****       189.5000   5.7500  49.0000 Du        
   7904 ****       189.5000   5.7500  49.2500 Du        
   7905 ****       189.5000   5.7500  49.5000 Du        
   7906 ****       189.5000   5.7500  49.7500 Du        
   7907 ****       189.5000   5.7500  50.0000 Du        
   7908 ****       189.5000   5.7500  50.2500 Du        
   7909 ****       189.5000   6.0000  49.0000 Du        
   7910 ****       189.5000   6.0000  49.2500 Du        
   7911 ****       189.5000   6.0000  49.5000 Du        
   7912 ****       189.5000   6.0000  49.7500 Du        
   7913 ****       189.5000   6.0000  50.0000 Du        
   7914 ****       189.5000   6.0000  50.2500 Du        
   7915 ****       189.5000   6.2500  49.0000 Du        
   7916 ****       189.5000   6.2500  49.2500 Du        
   7917 ****       189.5000   6.2500  49.5000 Du        
   7918 ****       189.5000   6.2500  49.7500 Du        
   7919 ****       189.5000   6.2500  50.0000 Du        
   7920 ****       189.5000   6.5000  49.0000 Du        
   7921 ****       189.5000   6.5000  49.2500 Du        
   7922 ****       189.5000   6.5000  49.5000 Du        
   7923 ****       189.5000   6.5000  49.7500 Du        
   7924 ****       189.5000   6.7500  49.0000 Du        
   7925 ****       189.5000   6.7500  49.2500 Du        
   7926 ****       189.5000   7.0000  49.0000 Du        
   7927 ****       189.5000  10.2500  43.7500 Du        
   7928 ****       189.5000  11.2500  55.7500 Du        
   7929 ****       189.5000  11.2500  56.0000 Du        
   7930 ****       189.5000  11.2500  56.2500 Du        
   7931 ****       189.5000  11.5000  55.2500 Du        
   7932 ****       189.5000  11.5000  55.5000 Du        
   7933 ****       189.5000  11.5000  55.7500 Du        
   7934 ****       189.5000  11.5000  56.0000 Du        
   7935 ****       189.5000  11.5000  56.2500 Du        
   7936 ****       189.5000  11.7500  55.0000 Du        
   7937 ****       189.5000  11.7500  55.2500 Du        
   7938 ****       189.5000  11.7500  55.5000 Du        
   7939 ****       189.5000  11.7500  55.7500 Du        
   7940 ****       189.5000  11.7500  56.0000 Du        
   7941 ****       189.5000  12.0000  39.0000 Du        
   7942 ****       189.5000  12.0000  39.2500 Du        
   7943 ****       189.5000  12.0000  55.0000 Du        
   7944 ****       189.5000  12.0000  55.2500 Du        
   7945 ****       189.5000  12.0000  55.5000 Du        
   7946 ****       189.5000  12.0000  55.7500 Du        
   7947 ****       189.5000  12.2500  39.0000 Du        
   7948 ****       189.5000  12.2500  39.2500 Du        
   7949 ****       189.5000  12.5000  39.0000 Du        
   7950 ****       189.5000  12.5000  39.2500 Du        
   7951 ****       189.5000  12.7500  39.0000 Du        
   7952 ****       189.5000  12.7500  39.2500 Du        
   7953 ****       189.5000  12.7500  39.5000 Du        
   7954 ****       189.5000  13.0000  39.0000 Du        
   7955 ****       189.5000  13.0000  39.2500 Du        
   7956 ****       189.5000  13.0000  39.5000 Du        
   7957 ****       189.5000  13.0000  39.7500 Du        
   7958 ****       189.5000  13.2500  39.0000 Du        
   7959 ****       189.5000  13.2500  39.2500 Du        
   7960 ****       189.5000  13.2500  39.5000 Du        
   7961 ****       189.5000  13.2500  39.7500 Du        
   7962 ****       189.5000  13.2500  40.0000 Du        
   7963 ****       189.5000  13.5000  39.0000 Du        
   7964 ****       189.5000  13.5000  39.2500 Du        
   7965 ****       189.5000  13.5000  39.5000 Du        
   7966 ****       189.5000  13.5000  39.7500 Du        
   7967 ****       189.5000  13.5000  40.0000 Du        
   7968 ****       189.5000  13.7500  39.0000 Du        
   7969 ****       189.5000  13.7500  39.2500 Du        
   7970 ****       189.5000  13.7500  39.5000 Du        
   7971 ****       189.5000  13.7500  39.7500 Du        
   7972 ****       189.5000  13.7500  40.0000 Du        
   7973 ****       189.5000  13.7500  40.2500 Du        
   7974 ****       189.5000  14.0000  39.0000 Du        
   7975 ****       189.5000  14.0000  39.2500 Du        
   7976 ****       189.5000  14.0000  39.5000 Du        
   7977 ****       189.5000  14.0000  39.7500 Du        
   7978 ****       189.5000  14.0000  40.0000 Du        
   7979 ****       189.5000  14.0000  40.2500 Du        
   7980 ****       189.5000  14.0000  40.5000 Du        
   7981 ****       189.5000  14.0000  40.7500 Du        
   7982 ****       189.5000  14.2500  39.0000 Du        
   7983 ****       189.5000  14.2500  39.2500 Du        
   7984 ****       189.5000  14.2500  39.5000 Du        
   7985 ****       189.5000  14.2500  39.7500 Du        
   7986 ****       189.5000  14.2500  40.0000 Du        
   7987 ****       189.5000  14.2500  40.2500 Du        
   7988 ****       189.5000  14.2500  40.5000 Du        
   7989 ****       189.5000  14.2500  40.7500 Du        
   7990 ****       189.5000  14.2500  41.0000 Du        
   7991 ****       189.5000  14.5000  39.0000 Du        
   7992 ****       189.5000  14.5000  39.2500 Du        
   7993 ****       189.5000  14.5000  39.5000 Du        
   7994 ****       189.5000  14.5000  39.7500 Du        
   7995 ****       189.5000  14.5000  40.0000 Du        
   7996 ****       189.5000  14.5000  40.2500 Du        
   7997 ****       189.5000  14.7500  39.0000 Du        
   7998 ****       189.5000  14.7500  39.2500 Du        
   7999 ****       189.5000  14.7500  39.5000 Du        
   8000 ****       189.5000  14.7500  39.7500 Du        
   8001 ****       189.5000  14.7500  40.0000 Du        
   8002 ****       189.5000  14.7500  40.2500 Du        
   8003 ****       189.5000  15.0000  39.0000 Du        
   8004 ****       189.5000  15.0000  39.2500 Du        
   8005 ****       189.5000  15.0000  39.5000 Du        
   8006 ****       189.5000  15.0000  39.7500 Du        
   8007 ****       189.5000  15.0000  40.0000 Du        
   8008 ****       189.5000  15.0000  40.2500 Du        
   8009 ****       189.5000  15.2500  39.0000 Du        
   8010 ****       189.5000  15.2500  39.2500 Du        
   8011 ****       189.5000  15.2500  39.5000 Du        
   8012 ****       189.5000  15.2500  39.7500 Du        
   8013 ****       189.5000  15.2500  40.0000 Du        
   8014 ****       189.5000  15.2500  40.2500 Du        
   8015 ****       189.5000  15.5000  39.0000 Du        
   8016 ****       189.5000  15.5000  39.2500 Du        
   8017 ****       189.5000  17.5000  45.2500 Du        
   8018 ****       189.5000  17.5000  45.5000 Du        
   8019 ****       189.5000  17.5000  45.7500 Du        
   8020 ****       189.5000  17.5000  46.0000 Du        
   8021 ****       189.5000  17.5000  46.2500 Du        
   8022 ****       189.5000  17.5000  46.5000 Du        
   8023 ****       189.5000  17.7500  44.7500 Du        
   8024 ****       189.5000  17.7500  45.0000 Du        
   8025 ****       189.5000  17.7500  45.2500 Du        
   8026 ****       189.5000  17.7500  45.5000 Du        
   8027 ****       189.5000  17.7500  45.7500 Du        
   8028 ****       189.5000  17.7500  46.0000 Du        
   8029 ****       189.5000  17.7500  46.2500 Du        
   8030 ****       189.5000  17.7500  46.5000 Du        
   8031 ****       189.5000  18.0000  45.2500 Du        
   8032 ****       189.5000  18.0000  45.5000 Du        
   8033 ****       189.5000  18.0000  45.7500 Du        
   8034 ****       189.5000  18.0000  46.0000 Du        
   8035 ****       189.5000  18.0000  46.2500 Du        
   8036 ****       189.5000  18.0000  46.5000 Du        
   8037 ****       189.5000  18.0000  48.5000 Du        
   8038 ****       189.5000  18.0000  48.7500 Du        
   8039 ****       189.5000  18.0000  49.0000 Du        
   8040 ****       189.5000  18.0000  49.2500 Du        
   8041 ****       189.5000  18.2500  48.2500 Du        
   8042 ****       189.5000  18.2500  48.5000 Du        
   8043 ****       189.5000  18.2500  48.7500 Du        
   8044 ****       189.5000  18.2500  49.0000 Du        
   8045 ****       189.5000  18.2500  49.2500 Du        
   8046 ****       189.5000  18.2500  49.5000 Du        
   8047 ****       189.5000  18.5000  47.7500 Du        
   8048 ****       189.5000  18.5000  48.0000 Du        
   8049 ****       189.5000  18.5000  48.2500 Du        
   8050 ****       189.5000  18.5000  48.5000 Du        
   8051 ****       189.5000  18.5000  48.7500 Du        
   8052 ****       189.5000  18.5000  49.0000 Du        
   8053 ****       189.5000  18.5000  49.2500 Du        
   8054 ****       189.5000  18.5000  49.5000 Du        
   8055 ****       189.5000  18.7500  48.0000 Du        
   8056 ****       189.5000  18.7500  48.2500 Du        
   8057 ****       189.5000  18.7500  48.5000 Du        
   8058 ****       189.5000  18.7500  48.7500 Du        
   8059 ****       189.5000  18.7500  49.0000 Du        
   8060 ****       189.5000  18.7500  49.2500 Du        
   8061 ****       189.5000  18.7500  49.5000 Du        
   8062 ****       189.5000  18.7500  49.7500 Du        
   8063 ****       189.5000  19.0000  48.5000 Du        
   8064 ****       189.5000  19.0000  48.7500 Du        
   8065 ****       189.5000  19.0000  49.0000 Du        
   8066 ****       189.5000  19.0000  49.2500 Du        
   8067 ****       189.5000  19.0000  49.5000 Du        
   8068 ****       189.5000  19.0000  49.7500 Du        
   8069 ****       189.5000  19.2500  49.0000 Du        
   8070 ****       189.5000  19.2500  49.2500 Du        
   8071 ****       189.5000  19.2500  49.5000 Du        
   8072 ****       189.5000  19.2500  49.7500 Du        
   8073 ****       189.5000  19.2500  50.0000 Du        
   8074 ****       189.5000  19.5000  49.5000 Du        
   8075 ****       189.5000  19.5000  49.7500 Du        
   8076 ****       189.5000  19.5000  50.0000 Du        
   8077 ****       189.5000  19.5000  50.2500 Du        
   8078 ****       189.5000  19.7500  50.0000 Du        
   8079 ****       189.5000  19.7500  50.2500 Du        
   8080 ****       189.5000  19.7500  50.5000 Du        
   8081 ****       189.5000  20.0000  50.5000 Du        
   8082 ****       189.7500   3.5000  49.7500 Du        
   8083 ****       189.7500   3.5000  50.0000 Du        
   8084 ****       189.7500   3.7500  49.5000 Du        
   8085 ****       189.7500   3.7500  49.7500 Du        
   8086 ****       189.7500   3.7500  50.0000 Du        
   8087 ****       189.7500   3.7500  50.2500 Du        
   8088 ****       189.7500   4.0000  49.2500 Du        
   8089 ****       189.7500   4.0000  49.5000 Du        
   8090 ****       189.7500   4.0000  49.7500 Du        
   8091 ****       189.7500   4.0000  50.0000 Du        
   8092 ****       189.7500   4.0000  50.2500 Du        
   8093 ****       189.7500   4.2500  49.2500 Du        
   8094 ****       189.7500   4.2500  49.5000 Du        
   8095 ****       189.7500   4.2500  49.7500 Du        
   8096 ****       189.7500   4.2500  50.0000 Du        
   8097 ****       189.7500   4.2500  50.2500 Du        
   8098 ****       189.7500   4.2500  50.5000 Du        
   8099 ****       189.7500   4.5000  49.2500 Du        
   8100 ****       189.7500   4.5000  49.5000 Du        
   8101 ****       189.7500   4.5000  49.7500 Du        
   8102 ****       189.7500   4.5000  50.0000 Du        
   8103 ****       189.7500   4.5000  50.2500 Du        
   8104 ****       189.7500   4.7500  49.0000 Du        
   8105 ****       189.7500   4.7500  49.2500 Du        
   8106 ****       189.7500   4.7500  49.5000 Du        
   8107 ****       189.7500   4.7500  49.7500 Du        
   8108 ****       189.7500   4.7500  50.0000 Du        
   8109 ****       189.7500   4.7500  50.2500 Du        
   8110 ****       189.7500   5.0000  49.0000 Du        
   8111 ****       189.7500   5.0000  49.2500 Du        
   8112 ****       189.7500   5.0000  49.5000 Du        
   8113 ****       189.7500   5.0000  49.7500 Du        
   8114 ****       189.7500   5.0000  50.0000 Du        
   8115 ****       189.7500   5.0000  50.2500 Du        
   8116 ****       189.7500   5.2500  49.0000 Du        
   8117 ****       189.7500   5.2500  49.2500 Du        
   8118 ****       189.7500   5.2500  49.5000 Du        
   8119 ****       189.7500   5.2500  49.7500 Du        
   8120 ****       189.7500   5.2500  50.0000 Du        
   8121 ****       189.7500   5.5000  49.0000 Du        
   8122 ****       189.7500   5.5000  49.2500 Du        
   8123 ****       189.7500   5.5000  49.5000 Du        
   8124 ****       189.7500   5.5000  49.7500 Du        
   8125 ****       189.7500   5.7500  49.0000 Du        
   8126 ****       189.7500   5.7500  49.2500 Du        
   8127 ****       189.7500   5.7500  49.5000 Du        
   8128 ****       189.7500   5.7500  49.7500 Du        
   8129 ****       189.7500   6.0000  49.0000 Du        
   8130 ****       189.7500   6.0000  49.2500 Du        
   8131 ****       189.7500   6.0000  49.5000 Du        
   8132 ****       189.7500   6.2500  49.0000 Du        
   8133 ****       189.7500   6.2500  49.2500 Du        
   8134 ****       189.7500  11.0000  55.7500 Du        
   8135 ****       189.7500  11.0000  56.0000 Du        
   8136 ****       189.7500  11.0000  56.2500 Du        
   8137 ****       189.7500  11.2500  55.2500 Du        
   8138 ****       189.7500  11.2500  55.5000 Du        
   8139 ****       189.7500  11.2500  55.7500 Du        
   8140 ****       189.7500  11.2500  56.0000 Du        
   8141 ****       189.7500  11.2500  56.2500 Du        
   8142 ****       189.7500  11.5000  55.0000 Du        
   8143 ****       189.7500  11.5000  55.2500 Du        
   8144 ****       189.7500  11.5000  55.5000 Du        
   8145 ****       189.7500  11.5000  55.7500 Du        
   8146 ****       189.7500  11.5000  56.0000 Du        
   8147 ****       189.7500  11.5000  56.2500 Du        
   8148 ****       189.7500  11.7500  39.0000 Du        
   8149 ****       189.7500  11.7500  39.2500 Du        
   8150 ****       189.7500  11.7500  55.0000 Du        
   8151 ****       189.7500  11.7500  55.2500 Du        
   8152 ****       189.7500  11.7500  55.5000 Du        
   8153 ****       189.7500  11.7500  55.7500 Du        
   8154 ****       189.7500  11.7500  56.0000 Du        
   8155 ****       189.7500  11.7500  56.2500 Du        
   8156 ****       189.7500  12.0000  39.0000 Du        
   8157 ****       189.7500  12.0000  39.2500 Du        
   8158 ****       189.7500  12.0000  39.5000 Du        
   8159 ****       189.7500  12.0000  55.0000 Du        
   8160 ****       189.7500  12.0000  55.2500 Du        
   8161 ****       189.7500  12.0000  55.5000 Du        
   8162 ****       189.7500  12.0000  55.7500 Du        
   8163 ****       189.7500  12.0000  56.0000 Du        
   8164 ****       189.7500  12.2500  39.0000 Du        
   8165 ****       189.7500  12.2500  39.2500 Du        
   8166 ****       189.7500  12.2500  39.5000 Du        
   8167 ****       189.7500  12.2500  55.2500 Du        
   8168 ****       189.7500  12.2500  55.5000 Du        
   8169 ****       189.7500  12.5000  39.0000 Du        
   8170 ****       189.7500  12.5000  39.2500 Du        
   8171 ****       189.7500  12.5000  39.5000 Du        
   8172 ****       189.7500  12.5000  39.7500 Du        
   8173 ****       189.7500  12.7500  39.0000 Du        
   8174 ****       189.7500  12.7500  39.2500 Du        
   8175 ****       189.7500  12.7500  39.5000 Du        
   8176 ****       189.7500  12.7500  39.7500 Du        
   8177 ****       189.7500  13.0000  39.0000 Du        
   8178 ****       189.7500  13.0000  39.2500 Du        
   8179 ****       189.7500  13.0000  39.5000 Du        
   8180 ****       189.7500  13.0000  39.7500 Du        
   8181 ****       189.7500  13.0000  40.0000 Du        
   8182 ****       189.7500  13.2500  39.0000 Du        
   8183 ****       189.7500  13.2500  39.2500 Du        
   8184 ****       189.7500  13.2500  39.5000 Du        
   8185 ****       189.7500  13.2500  39.7500 Du        
   8186 ****       189.7500  13.2500  40.0000 Du        
   8187 ****       189.7500  13.2500  40.2500 Du        
   8188 ****       189.7500  13.5000  39.0000 Du        
   8189 ****       189.7500  13.5000  39.2500 Du        
   8190 ****       189.7500  13.5000  39.5000 Du        
   8191 ****       189.7500  13.5000  39.7500 Du        
   8192 ****       189.7500  13.5000  40.0000 Du        
   8193 ****       189.7500  13.5000  40.2500 Du        
   8194 ****       189.7500  13.7500  39.0000 Du        
   8195 ****       189.7500  13.7500  39.2500 Du        
   8196 ****       189.7500  13.7500  39.5000 Du        
   8197 ****       189.7500  13.7500  39.7500 Du        
   8198 ****       189.7500  13.7500  40.0000 Du        
   8199 ****       189.7500  13.7500  40.2500 Du        
   8200 ****       189.7500  13.7500  40.5000 Du        
   8201 ****       189.7500  13.7500  40.7500 Du        
   8202 ****       189.7500  14.0000  39.0000 Du        
   8203 ****       189.7500  14.0000  39.2500 Du        
   8204 ****       189.7500  14.0000  39.5000 Du        
   8205 ****       189.7500  14.0000  39.7500 Du        
   8206 ****       189.7500  14.0000  40.0000 Du        
   8207 ****       189.7500  14.0000  40.2500 Du        
   8208 ****       189.7500  14.0000  40.5000 Du        
   8209 ****       189.7500  14.0000  40.7500 Du        
   8210 ****       189.7500  14.0000  41.0000 Du        
   8211 ****       189.7500  14.0000  41.2500 Du        
   8212 ****       189.7500  14.2500  39.0000 Du        
   8213 ****       189.7500  14.2500  39.2500 Du        
   8214 ****       189.7500  14.2500  39.5000 Du        
   8215 ****       189.7500  14.2500  39.7500 Du        
   8216 ****       189.7500  14.2500  40.0000 Du        
   8217 ****       189.7500  14.2500  40.2500 Du        
   8218 ****       189.7500  14.2500  40.5000 Du        
   8219 ****       189.7500  14.2500  40.7500 Du        
   8220 ****       189.7500  14.2500  41.0000 Du        
   8221 ****       189.7500  14.2500  41.2500 Du        
   8222 ****       189.7500  14.5000  39.0000 Du        
   8223 ****       189.7500  14.5000  39.2500 Du        
   8224 ****       189.7500  14.5000  39.5000 Du        
   8225 ****       189.7500  14.5000  39.7500 Du        
   8226 ****       189.7500  14.5000  40.0000 Du        
   8227 ****       189.7500  14.5000  40.2500 Du        
   8228 ****       189.7500  14.5000  40.5000 Du        
   8229 ****       189.7500  14.5000  40.7500 Du        
   8230 ****       189.7500  14.5000  41.0000 Du        
   8231 ****       189.7500  14.5000  41.2500 Du        
   8232 ****       189.7500  14.7500  39.0000 Du        
   8233 ****       189.7500  14.7500  39.2500 Du        
   8234 ****       189.7500  14.7500  39.5000 Du        
   8235 ****       189.7500  14.7500  39.7500 Du        
   8236 ****       189.7500  14.7500  40.0000 Du        
   8237 ****       189.7500  14.7500  40.2500 Du        
   8238 ****       189.7500  14.7500  40.5000 Du        
   8239 ****       189.7500  14.7500  40.7500 Du        
   8240 ****       189.7500  14.7500  41.0000 Du        
   8241 ****       189.7500  15.0000  39.0000 Du        
   8242 ****       189.7500  15.0000  39.2500 Du        
   8243 ****       189.7500  15.0000  39.5000 Du        
   8244 ****       189.7500  15.0000  39.7500 Du        
   8245 ****       189.7500  15.0000  40.0000 Du        
   8246 ****       189.7500  15.0000  40.2500 Du        
   8247 ****       189.7500  15.2500  39.0000 Du        
   8248 ****       189.7500  15.2500  39.2500 Du        
   8249 ****       189.7500  15.2500  39.5000 Du        
   8250 ****       189.7500  15.2500  39.7500 Du        
   8251 ****       189.7500  15.2500  40.0000 Du        
   8252 ****       189.7500  15.2500  40.2500 Du        
   8253 ****       189.7500  15.5000  39.0000 Du        
   8254 ****       189.7500  15.5000  39.2500 Du        
   8255 ****       189.7500  15.5000  39.7500 Du        
   8256 ****       189.7500  15.7500  39.0000 Du        
   8257 ****       189.7500  15.7500  39.2500 Du        
   8258 ****       189.7500  16.0000  39.0000 Du        
   8259 ****       189.7500  16.7500  45.0000 Du        
   8260 ****       189.7500  16.7500  45.2500 Du        
   8261 ****       189.7500  17.0000  44.5000 Du        
   8262 ****       189.7500  17.0000  44.7500 Du        
   8263 ****       189.7500  17.0000  45.0000 Du        
   8264 ****       189.7500  17.0000  45.2500 Du        
   8265 ****       189.7500  17.0000  45.5000 Du        
   8266 ****       189.7500  17.2500  44.5000 Du        
   8267 ****       189.7500  17.2500  44.7500 Du        
   8268 ****       189.7500  17.2500  45.0000 Du        
   8269 ****       189.7500  17.2500  45.2500 Du        
   8270 ****       189.7500  17.2500  45.5000 Du        
   8271 ****       189.7500  17.2500  45.7500 Du        
   8272 ****       189.7500  17.2500  46.0000 Du        
   8273 ****       189.7500  17.5000  44.5000 Du        
   8274 ****       189.7500  17.5000  44.7500 Du        
   8275 ****       189.7500  17.5000  45.0000 Du        
   8276 ****       189.7500  17.5000  45.2500 Du        
   8277 ****       189.7500  17.5000  45.5000 Du        
   8278 ****       189.7500  17.5000  45.7500 Du        
   8279 ****       189.7500  17.5000  46.0000 Du        
   8280 ****       189.7500  17.5000  46.2500 Du        
   8281 ****       189.7500  17.7500  44.5000 Du        
   8282 ****       189.7500  17.7500  44.7500 Du        
   8283 ****       189.7500  17.7500  45.0000 Du        
   8284 ****       189.7500  17.7500  45.2500 Du        
   8285 ****       189.7500  17.7500  45.5000 Du        
   8286 ****       189.7500  17.7500  45.7500 Du        
   8287 ****       189.7500  17.7500  46.0000 Du        
   8288 ****       189.7500  17.7500  46.2500 Du        
   8289 ****       189.7500  18.0000  45.0000 Du        
   8290 ****       189.7500  18.0000  45.2500 Du        
   8291 ****       189.7500  18.0000  45.5000 Du        
   8292 ****       189.7500  18.0000  45.7500 Du        
   8293 ****       189.7500  18.0000  46.0000 Du        
   8294 ****       189.7500  18.2500  49.2500 Du        
   8295 ****       189.7500  18.5000  49.0000 Du        
   8296 ****       189.7500  18.5000  49.2500 Du        
   8297 ****       189.7500  18.5000  49.5000 Du        
   8298 ****       189.7500  18.7500  48.7500 Du        
   8299 ****       189.7500  18.7500  49.0000 Du        
   8300 ****       189.7500  18.7500  49.2500 Du        
   8301 ****       189.7500  18.7500  49.5000 Du        
   8302 ****       189.7500  18.7500  49.7500 Du        
   8303 ****       189.7500  19.0000  48.7500 Du        
   8304 ****       189.7500  19.0000  49.0000 Du        
   8305 ****       189.7500  19.0000  49.2500 Du        
   8306 ****       189.7500  19.0000  49.5000 Du        
   8307 ****       189.7500  19.0000  49.7500 Du        
   8308 ****       189.7500  19.0000  50.0000 Du        
   8309 ****       189.7500  19.2500  49.0000 Du        
   8310 ****       189.7500  19.2500  49.2500 Du        
   8311 ****       189.7500  19.2500  49.5000 Du        
   8312 ****       189.7500  19.2500  49.7500 Du        
   8313 ****       189.7500  19.2500  50.0000 Du        
   8314 ****       189.7500  19.2500  50.2500 Du        
   8315 ****       189.7500  19.5000  49.5000 Du        
   8316 ****       189.7500  19.5000  49.7500 Du        
   8317 ****       189.7500  19.5000  50.0000 Du        
   8318 ****       189.7500  19.5000  50.2500 Du        
   8319 ****       189.7500  19.5000  50.5000 Du        
   8320 ****       189.7500  19.7500  50.0000 Du        
   8321 ****       189.7500  19.7500  50.2500 Du        
   8322 ****       189.7500  19.7500  50.5000 Du        
   8323 ****       189.7500  20.0000  50.5000 Du        
   8324 ****       190.0000   3.7500  49.7500 Du        
   8325 ****       190.0000   4.0000  49.5000 Du        
   8326 ****       190.0000   4.0000  49.7500 Du        
   8327 ****       190.0000   4.0000  50.0000 Du        
   8328 ****       190.0000   4.2500  49.5000 Du        
   8329 ****       190.0000   4.2500  49.7500 Du        
   8330 ****       190.0000   4.2500  50.0000 Du        
   8331 ****       190.0000   4.5000  49.5000 Du        
   8332 ****       190.0000   4.5000  49.7500 Du        
   8333 ****       190.0000   4.5000  50.0000 Du        
   8334 ****       190.0000   4.7500  49.2500 Du        
   8335 ****       190.0000   4.7500  49.5000 Du        
   8336 ****       190.0000   4.7500  49.7500 Du        
   8337 ****       190.0000   5.0000  49.2500 Du        
   8338 ****       190.0000   5.0000  49.5000 Du        
   8339 ****       190.0000   5.2500  49.2500 Du        
   8340 ****       190.0000  10.7500  55.7500 Du        
   8341 ****       190.0000  11.0000  55.5000 Du        
   8342 ****       190.0000  11.0000  55.7500 Du        
   8343 ****       190.0000  11.2500  55.2500 Du        
   8344 ****       190.0000  11.2500  55.5000 Du        
   8345 ****       190.0000  11.2500  55.7500 Du        
   8346 ****       190.0000  11.5000  55.0000 Du        
   8347 ****       190.0000  11.5000  55.2500 Du        
   8348 ****       190.0000  11.5000  55.5000 Du        
   8349 ****       190.0000  11.5000  55.7500 Du        
   8350 ****       190.0000  11.7500  39.2500 Du        
   8351 ****       190.0000  11.7500  55.0000 Du        
   8352 ****       190.0000  11.7500  55.2500 Du        
   8353 ****       190.0000  11.7500  55.5000 Du        
   8354 ****       190.0000  11.7500  55.7500 Du        
   8355 ****       190.0000  12.0000  39.2500 Du        
   8356 ****       190.0000  12.0000  39.5000 Du        
   8357 ****       190.0000  12.0000  55.0000 Du        
   8358 ****       190.0000  12.0000  55.2500 Du        
   8359 ****       190.0000  12.0000  55.5000 Du        
   8360 ****       190.0000  12.0000  55.7500 Du        
   8361 ****       190.0000  12.2500  39.2500 Du        
   8362 ****       190.0000  12.2500  39.5000 Du        
   8363 ****       190.0000  12.2500  55.0000 Du        
   8364 ****       190.0000  12.2500  55.2500 Du        
   8365 ****       190.0000  12.2500  55.5000 Du        
   8366 ****       190.0000  12.2500  55.7500 Du        
   8367 ****       190.0000  12.5000  39.2500 Du        
   8368 ****       190.0000  12.5000  39.5000 Du        
   8369 ****       190.0000  12.5000  55.5000 Du        
   8370 ****       190.0000  12.7500  39.2500 Du        
   8371 ****       190.0000  12.7500  39.5000 Du        
   8372 ****       190.0000  12.7500  39.7500 Du        
   8373 ****       190.0000  13.0000  39.0000 Du        
   8374 ****       190.0000  13.0000  39.2500 Du        
   8375 ****       190.0000  13.0000  39.5000 Du        
   8376 ****       190.0000  13.0000  39.7500 Du        
   8377 ****       190.0000  13.0000  40.0000 Du        
   8378 ****       190.0000  13.2500  39.0000 Du        
   8379 ****       190.0000  13.2500  39.2500 Du        
   8380 ****       190.0000  13.2500  39.5000 Du        
   8381 ****       190.0000  13.2500  39.7500 Du        
   8382 ****       190.0000  13.2500  40.0000 Du        
   8383 ****       190.0000  13.5000  39.0000 Du        
   8384 ****       190.0000  13.5000  39.2500 Du        
   8385 ****       190.0000  13.5000  39.5000 Du        
   8386 ****       190.0000  13.5000  39.7500 Du        
   8387 ****       190.0000  13.5000  40.0000 Du        
   8388 ****       190.0000  13.5000  40.2500 Du        
   8389 ****       190.0000  13.7500  39.0000 Du        
   8390 ****       190.0000  13.7500  39.2500 Du        
   8391 ****       190.0000  13.7500  39.5000 Du        
   8392 ****       190.0000  13.7500  39.7500 Du        
   8393 ****       190.0000  13.7500  40.0000 Du        
   8394 ****       190.0000  13.7500  40.2500 Du        
   8395 ****       190.0000  13.7500  40.5000 Du        
   8396 ****       190.0000  14.0000  39.0000 Du        
   8397 ****       190.0000  14.0000  39.2500 Du        
   8398 ****       190.0000  14.0000  39.5000 Du        
   8399 ****       190.0000  14.0000  39.7500 Du        
   8400 ****       190.0000  14.0000  40.0000 Du        
   8401 ****       190.0000  14.0000  40.2500 Du        
   8402 ****       190.0000  14.0000  40.5000 Du        
   8403 ****       190.0000  14.0000  40.7500 Du        
   8404 ****       190.0000  14.0000  41.0000 Du        
   8405 ****       190.0000  14.0000  41.2500 Du        
   8406 ****       190.0000  14.0000  45.0000 Du        
   8407 ****       190.0000  14.2500  39.0000 Du        
   8408 ****       190.0000  14.2500  39.2500 Du        
   8409 ****       190.0000  14.2500  39.5000 Du        
   8410 ****       190.0000  14.2500  39.7500 Du        
   8411 ****       190.0000  14.2500  40.0000 Du        
   8412 ****       190.0000  14.2500  40.2500 Du        
   8413 ****       190.0000  14.2500  40.5000 Du        
   8414 ****       190.0000  14.2500  40.7500 Du        
   8415 ****       190.0000  14.2500  41.0000 Du        
   8416 ****       190.0000  14.2500  41.2500 Du        
   8417 ****       190.0000  14.5000  39.0000 Du        
   8418 ****       190.0000  14.5000  39.2500 Du        
   8419 ****       190.0000  14.5000  39.5000 Du        
   8420 ****       190.0000  14.5000  39.7500 Du        
   8421 ****       190.0000  14.5000  40.0000 Du        
   8422 ****       190.0000  14.5000  40.2500 Du        
   8423 ****       190.0000  14.5000  40.5000 Du        
   8424 ****       190.0000  14.5000  40.7500 Du        
   8425 ****       190.0000  14.5000  41.0000 Du        
   8426 ****       190.0000  14.5000  41.2500 Du        
   8427 ****       190.0000  14.7500  39.0000 Du        
   8428 ****       190.0000  14.7500  39.2500 Du        
   8429 ****       190.0000  14.7500  39.5000 Du        
   8430 ****       190.0000  14.7500  39.7500 Du        
   8431 ****       190.0000  14.7500  40.0000 Du        
   8432 ****       190.0000  14.7500  40.2500 Du        
   8433 ****       190.0000  14.7500  40.5000 Du        
   8434 ****       190.0000  14.7500  40.7500 Du        
   8435 ****       190.0000  14.7500  41.0000 Du        
   8436 ****       190.0000  14.7500  41.2500 Du        
   8437 ****       190.0000  15.0000  39.0000 Du        
   8438 ****       190.0000  15.0000  39.2500 Du        
   8439 ****       190.0000  15.0000  39.5000 Du        
   8440 ****       190.0000  15.0000  39.7500 Du        
   8441 ****       190.0000  15.0000  40.0000 Du        
   8442 ****       190.0000  15.0000  40.2500 Du        
   8443 ****       190.0000  15.0000  40.5000 Du        
   8444 ****       190.0000  15.0000  40.7500 Du        
   8445 ****       190.0000  15.0000  41.0000 Du        
   8446 ****       190.0000  15.2500  39.0000 Du        
   8447 ****       190.0000  15.2500  39.2500 Du        
   8448 ****       190.0000  15.2500  39.5000 Du        
   8449 ****       190.0000  15.2500  39.7500 Du        
   8450 ****       190.0000  15.2500  40.0000 Du        
   8451 ****       190.0000  15.2500  40.2500 Du        
   8452 ****       190.0000  15.2500  40.5000 Du        
   8453 ****       190.0000  15.2500  40.7500 Du        
   8454 ****       190.0000  15.5000  39.0000 Du        
   8455 ****       190.0000  15.5000  39.2500 Du        
   8456 ****       190.0000  15.5000  39.5000 Du        
   8457 ****       190.0000  15.5000  39.7500 Du        
   8458 ****       190.0000  15.5000  40.0000 Du        
   8459 ****       190.0000  15.7500  39.0000 Du        
   8460 ****       190.0000  15.7500  39.2500 Du        
   8461 ****       190.0000  15.7500  39.5000 Du        
   8462 ****       190.0000  15.7500  39.7500 Du        
   8463 ****       190.0000  15.7500  44.7500 Du        
   8464 ****       190.0000  15.7500  45.0000 Du        
   8465 ****       190.0000  15.7500  45.2500 Du        
   8466 ****       190.0000  16.0000  39.0000 Du        
   8467 ****       190.0000  16.0000  39.2500 Du        
   8468 ****       190.0000  16.0000  44.5000 Du        
   8469 ****       190.0000  16.0000  44.7500 Du        
   8470 ****       190.0000  16.0000  45.0000 Du        
   8471 ****       190.0000  16.0000  45.2500 Du        
   8472 ****       190.0000  16.0000  45.5000 Du        
   8473 ****       190.0000  16.2500  39.0000 Du        
   8474 ****       190.0000  16.2500  44.5000 Du        
   8475 ****       190.0000  16.2500  44.7500 Du        
   8476 ****       190.0000  16.2500  45.0000 Du        
   8477 ****       190.0000  16.2500  45.2500 Du        
   8478 ****       190.0000  16.2500  45.5000 Du        
   8479 ****       190.0000  16.5000  44.5000 Du        
   8480 ****       190.0000  16.5000  44.7500 Du        
   8481 ****       190.0000  16.5000  45.0000 Du        
   8482 ****       190.0000  16.5000  45.2500 Du        
   8483 ****       190.0000  16.7500  44.5000 Du        
   8484 ****       190.0000  16.7500  44.7500 Du        
   8485 ****       190.0000  16.7500  45.0000 Du        
   8486 ****       190.0000  16.7500  45.2500 Du        
   8487 ****       190.0000  16.7500  45.5000 Du        
   8488 ****       190.0000  17.0000  44.2500 Du        
   8489 ****       190.0000  17.0000  44.5000 Du        
   8490 ****       190.0000  17.0000  44.7500 Du        
   8491 ****       190.0000  17.0000  45.0000 Du        
   8492 ****       190.0000  17.0000  45.2500 Du        
   8493 ****       190.0000  17.0000  45.5000 Du        
   8494 ****       190.0000  17.0000  45.7500 Du        
   8495 ****       190.0000  17.0000  46.0000 Du        
   8496 ****       190.0000  17.2500  44.2500 Du        
   8497 ****       190.0000  17.2500  44.5000 Du        
   8498 ****       190.0000  17.2500  44.7500 Du        
   8499 ****       190.0000  17.2500  45.0000 Du        
   8500 ****       190.0000  17.2500  45.2500 Du        
   8501 ****       190.0000  17.2500  45.5000 Du        
   8502 ****       190.0000  17.2500  45.7500 Du        
   8503 ****       190.0000  17.2500  46.0000 Du        
   8504 ****       190.0000  17.5000  44.2500 Du        
   8505 ****       190.0000  17.5000  44.5000 Du        
   8506 ****       190.0000  17.5000  44.7500 Du        
   8507 ****       190.0000  17.5000  45.0000 Du        
   8508 ****       190.0000  17.5000  45.2500 Du        
   8509 ****       190.0000  17.5000  45.5000 Du        
   8510 ****       190.0000  17.5000  45.7500 Du        
   8511 ****       190.0000  17.5000  46.0000 Du        
   8512 ****       190.0000  17.7500  44.5000 Du        
   8513 ****       190.0000  17.7500  44.7500 Du        
   8514 ****       190.0000  17.7500  45.0000 Du        
   8515 ****       190.0000  17.7500  45.2500 Du        
   8516 ****       190.0000  17.7500  45.5000 Du        
   8517 ****       190.0000  17.7500  45.7500 Du        
   8518 ****       190.0000  17.7500  46.0000 Du        
   8519 ****       190.0000  18.0000  44.7500 Du        
   8520 ****       190.0000  18.0000  45.0000 Du        
   8521 ****       190.0000  18.0000  45.2500 Du        
   8522 ****       190.0000  18.0000  45.5000 Du        
   8523 ****       190.0000  18.0000  45.7500 Du        
   8524 ****       190.0000  18.7500  49.2500 Du        
   8525 ****       190.0000  18.7500  49.5000 Du        
   8526 ****       190.0000  18.7500  49.7500 Du        
   8527 ****       190.0000  19.0000  49.2500 Du        
   8528 ****       190.0000  19.0000  49.5000 Du        
   8529 ****       190.0000  19.0000  49.7500 Du        
   8530 ****       190.0000  19.0000  50.0000 Du        
   8531 ****       190.0000  19.2500  49.2500 Du        
   8532 ****       190.0000  19.2500  49.5000 Du        
   8533 ****       190.0000  19.2500  49.7500 Du        
   8534 ****       190.0000  19.2500  50.0000 Du        
   8535 ****       190.0000  19.2500  50.2500 Du        
   8536 ****       190.0000  19.5000  49.5000 Du        
   8537 ****       190.0000  19.5000  49.7500 Du        
   8538 ****       190.0000  19.5000  50.0000 Du        
   8539 ****       190.0000  19.5000  50.2500 Du        
   8540 ****       190.0000  19.5000  50.5000 Du        
   8541 ****       190.0000  19.7500  50.0000 Du        
   8542 ****       190.0000  19.7500  50.2500 Du        
   8543 ****       190.0000  19.7500  50.5000 Du        
   8544 ****       190.0000  19.7500  50.7500 Du        
   8545 ****       190.0000  20.0000  50.5000 Du        
   8546 ****       190.2500  10.5000  55.7500 Du        
   8547 ****       190.2500  10.7500  55.5000 Du        
   8548 ****       190.2500  10.7500  55.7500 Du        
   8549 ****       190.2500  11.0000  55.2500 Du        
   8550 ****       190.2500  11.0000  55.5000 Du        
   8551 ****       190.2500  11.0000  55.7500 Du        
   8552 ****       190.2500  11.2500  55.2500 Du        
   8553 ****       190.2500  11.2500  55.5000 Du        
   8554 ****       190.2500  11.2500  55.7500 Du        
   8555 ****       190.2500  11.5000  55.2500 Du        
   8556 ****       190.2500  11.5000  55.5000 Du        
   8557 ****       190.2500  11.5000  55.7500 Du        
   8558 ****       190.2500  11.7500  55.0000 Du        
   8559 ****       190.2500  11.7500  55.2500 Du        
   8560 ****       190.2500  11.7500  55.5000 Du        
   8561 ****       190.2500  11.7500  55.7500 Du        
   8562 ****       190.2500  12.0000  55.0000 Du        
   8563 ****       190.2500  12.0000  55.2500 Du        
   8564 ****       190.2500  12.0000  55.5000 Du        
   8565 ****       190.2500  12.0000  55.7500 Du        
   8566 ****       190.2500  12.2500  55.0000 Du        
   8567 ****       190.2500  12.2500  55.2500 Du        
   8568 ****       190.2500  12.2500  55.5000 Du        
   8569 ****       190.2500  12.2500  55.7500 Du        
   8570 ****       190.2500  12.5000  55.2500 Du        
   8571 ****       190.2500  12.5000  55.5000 Du        
   8572 ****       190.2500  12.5000  55.7500 Du        
   8573 ****       190.2500  13.0000  39.5000 Du        
   8574 ****       190.2500  13.2500  39.2500 Du        
   8575 ****       190.2500  13.2500  39.5000 Du        
   8576 ****       190.2500  13.2500  39.7500 Du        
   8577 ****       190.2500  13.5000  39.2500 Du        
   8578 ****       190.2500  13.5000  39.5000 Du        
   8579 ****       190.2500  13.5000  39.7500 Du        
   8580 ****       190.2500  13.5000  40.0000 Du        
   8581 ****       190.2500  13.7500  39.2500 Du        
   8582 ****       190.2500  13.7500  39.5000 Du        
   8583 ****       190.2500  13.7500  39.7500 Du        
   8584 ****       190.2500  13.7500  40.0000 Du        
   8585 ****       190.2500  13.7500  40.2500 Du        
   8586 ****       190.2500  14.0000  39.0000 Du        
   8587 ****       190.2500  14.0000  39.2500 Du        
   8588 ****       190.2500  14.0000  39.5000 Du        
   8589 ****       190.2500  14.0000  39.7500 Du        
   8590 ****       190.2500  14.0000  40.0000 Du        
   8591 ****       190.2500  14.0000  40.2500 Du        
   8592 ****       190.2500  14.0000  40.5000 Du        
   8593 ****       190.2500  14.0000  40.7500 Du        
   8594 ****       190.2500  14.0000  45.0000 Du        
   8595 ****       190.2500  14.0000  45.2500 Du        
   8596 ****       190.2500  14.0000  45.5000 Du        
   8597 ****       190.2500  14.2500  39.0000 Du        
   8598 ****       190.2500  14.2500  39.2500 Du        
   8599 ****       190.2500  14.2500  39.5000 Du        
   8600 ****       190.2500  14.2500  39.7500 Du        
   8601 ****       190.2500  14.2500  40.0000 Du        
   8602 ****       190.2500  14.2500  40.2500 Du        
   8603 ****       190.2500  14.2500  40.5000 Du        
   8604 ****       190.2500  14.2500  40.7500 Du        
   8605 ****       190.2500  14.2500  41.0000 Du        
   8606 ****       190.2500  14.2500  44.7500 Du        
   8607 ****       190.2500  14.2500  45.0000 Du        
   8608 ****       190.2500  14.2500  45.2500 Du        
   8609 ****       190.2500  14.2500  45.5000 Du        
   8610 ****       190.2500  14.2500  45.7500 Du        
   8611 ****       190.2500  14.5000  39.0000 Du        
   8612 ****       190.2500  14.5000  39.2500 Du        
   8613 ****       190.2500  14.5000  39.5000 Du        
   8614 ****       190.2500  14.5000  39.7500 Du        
   8615 ****       190.2500  14.5000  40.0000 Du        
   8616 ****       190.2500  14.5000  40.2500 Du        
   8617 ****       190.2500  14.5000  40.5000 Du        
   8618 ****       190.2500  14.5000  40.7500 Du        
   8619 ****       190.2500  14.5000  41.0000 Du        
   8620 ****       190.2500  14.5000  41.2500 Du        
   8621 ****       190.2500  14.5000  45.5000 Du        
   8622 ****       190.2500  14.5000  45.7500 Du        
   8623 ****       190.2500  14.7500  39.0000 Du        
   8624 ****       190.2500  14.7500  39.2500 Du        
   8625 ****       190.2500  14.7500  39.5000 Du        
   8626 ****       190.2500  14.7500  39.7500 Du        
   8627 ****       190.2500  14.7500  40.0000 Du        
   8628 ****       190.2500  14.7500  40.2500 Du        
   8629 ****       190.2500  14.7500  40.5000 Du        
   8630 ****       190.2500  14.7500  40.7500 Du        
   8631 ****       190.2500  14.7500  41.0000 Du        
   8632 ****       190.2500  14.7500  41.2500 Du        
   8633 ****       190.2500  14.7500  45.2500 Du        
   8634 ****       190.2500  14.7500  45.5000 Du        
   8635 ****       190.2500  14.7500  45.7500 Du        
   8636 ****       190.2500  14.7500  46.0000 Du        
   8637 ****       190.2500  15.0000  39.0000 Du        
   8638 ****       190.2500  15.0000  39.2500 Du        
   8639 ****       190.2500  15.0000  39.5000 Du        
   8640 ****       190.2500  15.0000  39.7500 Du        
   8641 ****       190.2500  15.0000  40.0000 Du        
   8642 ****       190.2500  15.0000  40.2500 Du        
   8643 ****       190.2500  15.0000  40.5000 Du        
   8644 ****       190.2500  15.0000  40.7500 Du        
   8645 ****       190.2500  15.0000  41.0000 Du        
   8646 ****       190.2500  15.0000  45.5000 Du        
   8647 ****       190.2500  15.0000  45.7500 Du        
   8648 ****       190.2500  15.0000  46.0000 Du        
   8649 ****       190.2500  15.2500  39.0000 Du        
   8650 ****       190.2500  15.2500  39.2500 Du        
   8651 ****       190.2500  15.2500  39.5000 Du        
   8652 ****       190.2500  15.2500  39.7500 Du        
   8653 ****       190.2500  15.2500  40.0000 Du        
   8654 ****       190.2500  15.2500  40.2500 Du        
   8655 ****       190.2500  15.2500  40.5000 Du        
   8656 ****       190.2500  15.2500  40.7500 Du        
   8657 ****       190.2500  15.2500  46.0000 Du        
   8658 ****       190.2500  15.5000  39.0000 Du        
   8659 ****       190.2500  15.5000  39.2500 Du        
   8660 ****       190.2500  15.5000  39.5000 Du        
   8661 ****       190.2500  15.5000  39.7500 Du        
   8662 ****       190.2500  15.5000  40.0000 Du        
   8663 ****       190.2500  15.5000  44.7500 Du        
   8664 ****       190.2500  15.5000  45.0000 Du        
   8665 ****       190.2500  15.5000  45.2500 Du        
   8666 ****       190.2500  15.7500  39.0000 Du        
   8667 ****       190.2500  15.7500  39.2500 Du        
   8668 ****       190.2500  15.7500  39.5000 Du        
   8669 ****       190.2500  15.7500  39.7500 Du        
   8670 ****       190.2500  15.7500  40.0000 Du        
   8671 ****       190.2500  15.7500  44.5000 Du        
   8672 ****       190.2500  15.7500  44.7500 Du        
   8673 ****       190.2500  15.7500  45.0000 Du        
   8674 ****       190.2500  15.7500  45.2500 Du        
   8675 ****       190.2500  15.7500  45.5000 Du        
   8676 ****       190.2500  15.7500  45.7500 Du        
   8677 ****       190.2500  16.0000  39.0000 Du        
   8678 ****       190.2500  16.0000  39.2500 Du        
   8679 ****       190.2500  16.0000  39.5000 Du        
   8680 ****       190.2500  16.0000  44.5000 Du        
   8681 ****       190.2500  16.0000  44.7500 Du        
   8682 ****       190.2500  16.0000  45.0000 Du        
   8683 ****       190.2500  16.0000  45.2500 Du        
   8684 ****       190.2500  16.0000  45.5000 Du        
   8685 ****       190.2500  16.0000  45.7500 Du        
   8686 ****       190.2500  16.0000  46.0000 Du        
   8687 ****       190.2500  16.2500  39.2500 Du        
   8688 ****       190.2500  16.2500  44.5000 Du        
   8689 ****       190.2500  16.2500  44.7500 Du        
   8690 ****       190.2500  16.2500  45.0000 Du        
   8691 ****       190.2500  16.2500  45.2500 Du        
   8692 ****       190.2500  16.2500  45.5000 Du        
   8693 ****       190.2500  16.2500  45.7500 Du        
   8694 ****       190.2500  16.5000  44.5000 Du        
   8695 ****       190.2500  16.5000  44.7500 Du        
   8696 ****       190.2500  16.5000  45.0000 Du        
   8697 ****       190.2500  16.5000  45.2500 Du        
   8698 ****       190.2500  16.5000  45.5000 Du        
   8699 ****       190.2500  16.7500  44.5000 Du        
   8700 ****       190.2500  16.7500  44.7500 Du        
   8701 ****       190.2500  16.7500  45.0000 Du        
   8702 ****       190.2500  16.7500  45.2500 Du        
   8703 ****       190.2500  16.7500  45.5000 Du        
   8704 ****       190.2500  16.7500  45.7500 Du        
   8705 ****       190.2500  17.0000  44.5000 Du        
   8706 ****       190.2500  17.0000  44.7500 Du        
   8707 ****       190.2500  17.0000  45.0000 Du        
   8708 ****       190.2500  17.0000  45.2500 Du        
   8709 ****       190.2500  17.0000  45.5000 Du        
   8710 ****       190.2500  17.0000  45.7500 Du        
   8711 ****       190.2500  17.2500  44.5000 Du        
   8712 ****       190.2500  17.2500  44.7500 Du        
   8713 ****       190.2500  17.2500  45.0000 Du        
   8714 ****       190.2500  17.2500  45.2500 Du        
   8715 ****       190.2500  17.2500  45.5000 Du        
   8716 ****       190.2500  17.2500  45.7500 Du        
   8717 ****       190.2500  17.5000  44.5000 Du        
   8718 ****       190.2500  17.5000  44.7500 Du        
   8719 ****       190.2500  17.5000  45.0000 Du        
   8720 ****       190.2500  17.5000  45.2500 Du        
   8721 ****       190.2500  17.5000  45.5000 Du        
   8722 ****       190.2500  17.5000  45.7500 Du        
   8723 ****       190.2500  17.7500  44.5000 Du        
   8724 ****       190.2500  17.7500  44.7500 Du        
   8725 ****       190.2500  17.7500  45.0000 Du        
   8726 ****       190.2500  17.7500  45.2500 Du        
   8727 ****       190.2500  17.7500  45.5000 Du        
   8728 ****       190.2500  18.0000  44.7500 Du        
   8729 ****       190.2500  18.0000  45.0000 Du        
   8730 ****       190.2500  18.0000  45.2500 Du        
   8731 ****       190.2500  18.0000  45.5000 Du        
   8732 ****       190.2500  18.7500  49.7500 Du        
   8733 ****       190.2500  19.0000  49.5000 Du        
   8734 ****       190.2500  19.0000  49.7500 Du        
   8735 ****       190.2500  19.0000  50.0000 Du        
   8736 ****       190.2500  19.2500  49.5000 Du        
   8737 ****       190.2500  19.2500  49.7500 Du        
   8738 ****       190.2500  19.2500  50.0000 Du        
   8739 ****       190.2500  19.2500  50.2500 Du        
   8740 ****       190.2500  19.5000  49.7500 Du        
   8741 ****       190.2500  19.5000  50.0000 Du        
   8742 ****       190.2500  19.5000  50.2500 Du        
   8743 ****       190.2500  19.5000  50.5000 Du        
   8744 ****       190.2500  19.5000  50.7500 Du        
   8745 ****       190.2500  19.7500  50.0000 Du        
   8746 ****       190.2500  19.7500  50.2500 Du        
   8747 ****       190.2500  19.7500  50.5000 Du        
   8748 ****       190.2500  19.7500  50.7500 Du        
   8749 ****       190.2500  20.0000  50.5000 Du        
   8750 ****       190.2500  20.0000  50.7500 Du        
   8751 ****       190.5000  10.5000  55.5000 Du        
   8752 ****       190.5000  10.5000  55.7500 Du        
   8753 ****       190.5000  10.7500  55.5000 Du        
   8754 ****       190.5000  10.7500  55.7500 Du        
   8755 ****       190.5000  11.0000  55.2500 Du        
   8756 ****       190.5000  11.0000  55.5000 Du        
   8757 ****       190.5000  11.0000  55.7500 Du        
   8758 ****       190.5000  11.2500  55.2500 Du        
   8759 ****       190.5000  11.2500  55.5000 Du        
   8760 ****       190.5000  11.2500  55.7500 Du        
   8761 ****       190.5000  11.5000  55.2500 Du        
   8762 ****       190.5000  11.5000  55.5000 Du        
   8763 ****       190.5000  11.5000  55.7500 Du        
   8764 ****       190.5000  11.7500  55.2500 Du        
   8765 ****       190.5000  11.7500  55.5000 Du        
   8766 ****       190.5000  11.7500  55.7500 Du        
   8767 ****       190.5000  12.0000  55.2500 Du        
   8768 ****       190.5000  12.0000  55.5000 Du        
   8769 ****       190.5000  12.0000  55.7500 Du        
   8770 ****       190.5000  12.2500  55.2500 Du        
   8771 ****       190.5000  12.2500  55.5000 Du        
   8772 ****       190.5000  12.2500  55.7500 Du        
   8773 ****       190.5000  12.5000  55.2500 Du        
   8774 ****       190.5000  12.5000  55.5000 Du        
   8775 ****       190.5000  12.5000  55.7500 Du        
   8776 ****       190.5000  12.7500  55.2500 Du        
   8777 ****       190.5000  12.7500  55.5000 Du        
   8778 ****       190.5000  13.7500  39.2500 Du        
   8779 ****       190.5000  13.7500  39.5000 Du        
   8780 ****       190.5000  13.7500  39.7500 Du        
   8781 ****       190.5000  13.7500  45.2500 Du        
   8782 ****       190.5000  13.7500  45.5000 Du        
   8783 ****       190.5000  14.0000  39.0000 Du        
   8784 ****       190.5000  14.0000  39.2500 Du        
   8785 ****       190.5000  14.0000  39.5000 Du        
   8786 ****       190.5000  14.0000  39.7500 Du        
   8787 ****       190.5000  14.0000  40.0000 Du        
   8788 ****       190.5000  14.0000  40.2500 Du        
   8789 ****       190.5000  14.0000  45.0000 Du        
   8790 ****       190.5000  14.0000  45.2500 Du        
   8791 ****       190.5000  14.0000  45.5000 Du        
   8792 ****       190.5000  14.0000  45.7500 Du        
   8793 ****       190.5000  14.2500  39.0000 Du        
   8794 ****       190.5000  14.2500  39.2500 Du        
   8795 ****       190.5000  14.2500  39.5000 Du        
   8796 ****       190.5000  14.2500  39.7500 Du        
   8797 ****       190.5000  14.2500  40.0000 Du        
   8798 ****       190.5000  14.2500  40.2500 Du        
   8799 ****       190.5000  14.2500  40.5000 Du        
   8800 ****       190.5000  14.2500  44.7500 Du        
   8801 ****       190.5000  14.2500  45.0000 Du        
   8802 ****       190.5000  14.2500  45.2500 Du        
   8803 ****       190.5000  14.2500  45.5000 Du        
   8804 ****       190.5000  14.2500  45.7500 Du        
   8805 ****       190.5000  14.2500  46.0000 Du        
   8806 ****       190.5000  14.5000  39.0000 Du        
   8807 ****       190.5000  14.5000  39.2500 Du        
   8808 ****       190.5000  14.5000  39.5000 Du        
   8809 ****       190.5000  14.5000  39.7500 Du        
   8810 ****       190.5000  14.5000  40.0000 Du        
   8811 ****       190.5000  14.5000  40.2500 Du        
   8812 ****       190.5000  14.5000  40.5000 Du        
   8813 ****       190.5000  14.5000  40.7500 Du        
   8814 ****       190.5000  14.5000  44.5000 Du        
   8815 ****       190.5000  14.5000  44.7500 Du        
   8816 ****       190.5000  14.5000  45.0000 Du        
   8817 ****       190.5000  14.5000  45.2500 Du        
   8818 ****       190.5000  14.5000  45.5000 Du        
   8819 ****       190.5000  14.5000  45.7500 Du        
   8820 ****       190.5000  14.5000  46.0000 Du        
   8821 ****       190.5000  14.7500  39.0000 Du        
   8822 ****       190.5000  14.7500  39.2500 Du        
   8823 ****       190.5000  14.7500  39.5000 Du        
   8824 ****       190.5000  14.7500  39.7500 Du        
   8825 ****       190.5000  14.7500  40.0000 Du        
   8826 ****       190.5000  14.7500  40.2500 Du        
   8827 ****       190.5000  14.7500  40.5000 Du        
   8828 ****       190.5000  14.7500  40.7500 Du        
   8829 ****       190.5000  14.7500  41.0000 Du        
   8830 ****       190.5000  14.7500  44.5000 Du        
   8831 ****       190.5000  14.7500  44.7500 Du        
   8832 ****       190.5000  14.7500  45.0000 Du        
   8833 ****       190.5000  14.7500  45.2500 Du        
   8834 ****       190.5000  14.7500  45.5000 Du        
   8835 ****       190.5000  14.7500  45.7500 Du        
   8836 ****       190.5000  14.7500  46.0000 Du        
   8837 ****       190.5000  14.7500  46.2500 Du        
   8838 ****       190.5000  15.0000  39.0000 Du        
   8839 ****       190.5000  15.0000  39.2500 Du        
   8840 ****       190.5000  15.0000  39.5000 Du        
   8841 ****       190.5000  15.0000  39.7500 Du        
   8842 ****       190.5000  15.0000  40.0000 Du        
   8843 ****       190.5000  15.0000  40.2500 Du        
   8844 ****       190.5000  15.0000  40.5000 Du        
   8845 ****       190.5000  15.0000  40.7500 Du        
   8846 ****       190.5000  15.0000  44.5000 Du        
   8847 ****       190.5000  15.0000  44.7500 Du        
   8848 ****       190.5000  15.0000  45.0000 Du        
   8849 ****       190.5000  15.0000  45.2500 Du        
   8850 ****       190.5000  15.0000  45.5000 Du        
   8851 ****       190.5000  15.0000  45.7500 Du        
   8852 ****       190.5000  15.0000  46.0000 Du        
   8853 ****       190.5000  15.0000  46.2500 Du        
   8854 ****       190.5000  15.2500  39.0000 Du        
   8855 ****       190.5000  15.2500  39.2500 Du        
   8856 ****       190.5000  15.2500  39.5000 Du        
   8857 ****       190.5000  15.2500  39.7500 Du        
   8858 ****       190.5000  15.2500  40.0000 Du        
   8859 ****       190.5000  15.2500  40.2500 Du        
   8860 ****       190.5000  15.2500  40.5000 Du        
   8861 ****       190.5000  15.2500  44.5000 Du        
   8862 ****       190.5000  15.2500  44.7500 Du        
   8863 ****       190.5000  15.2500  45.0000 Du        
   8864 ****       190.5000  15.2500  45.2500 Du        
   8865 ****       190.5000  15.2500  45.5000 Du        
   8866 ****       190.5000  15.2500  45.7500 Du        
   8867 ****       190.5000  15.2500  46.0000 Du        
   8868 ****       190.5000  15.2500  46.2500 Du        
   8869 ****       190.5000  15.5000  39.0000 Du        
   8870 ****       190.5000  15.5000  39.2500 Du        
   8871 ****       190.5000  15.5000  39.5000 Du        
   8872 ****       190.5000  15.5000  39.7500 Du        
   8873 ****       190.5000  15.5000  40.0000 Du        
   8874 ****       190.5000  15.5000  40.2500 Du        
   8875 ****       190.5000  15.5000  44.5000 Du        
   8876 ****       190.5000  15.5000  44.7500 Du        
   8877 ****       190.5000  15.5000  45.0000 Du        
   8878 ****       190.5000  15.5000  45.2500 Du        
   8879 ****       190.5000  15.5000  45.5000 Du        
   8880 ****       190.5000  15.5000  45.7500 Du        
   8881 ****       190.5000  15.5000  46.0000 Du        
   8882 ****       190.5000  15.5000  46.2500 Du        
   8883 ****       190.5000  15.7500  39.0000 Du        
   8884 ****       190.5000  15.7500  39.2500 Du        
   8885 ****       190.5000  15.7500  39.5000 Du        
   8886 ****       190.5000  15.7500  39.7500 Du        
   8887 ****       190.5000  15.7500  40.0000 Du        
   8888 ****       190.5000  15.7500  40.2500 Du        
   8889 ****       190.5000  15.7500  44.5000 Du        
   8890 ****       190.5000  15.7500  44.7500 Du        
   8891 ****       190.5000  15.7500  45.0000 Du        
   8892 ****       190.5000  15.7500  45.2500 Du        
   8893 ****       190.5000  15.7500  45.5000 Du        
   8894 ****       190.5000  15.7500  45.7500 Du        
   8895 ****       190.5000  15.7500  46.0000 Du        
   8896 ****       190.5000  16.0000  39.0000 Du        
   8897 ****       190.5000  16.0000  39.2500 Du        
   8898 ****       190.5000  16.0000  39.5000 Du        
   8899 ****       190.5000  16.0000  39.7500 Du        
   8900 ****       190.5000  16.0000  40.0000 Du        
   8901 ****       190.5000  16.0000  44.5000 Du        
   8902 ****       190.5000  16.0000  44.7500 Du        
   8903 ****       190.5000  16.0000  45.0000 Du        
   8904 ****       190.5000  16.0000  45.2500 Du        
   8905 ****       190.5000  16.0000  45.5000 Du        
   8906 ****       190.5000  16.0000  45.7500 Du        
   8907 ****       190.5000  16.0000  46.0000 Du        
   8908 ****       190.5000  16.2500  39.0000 Du        
   8909 ****       190.5000  16.2500  39.2500 Du        
   8910 ****       190.5000  16.2500  44.5000 Du        
   8911 ****       190.5000  16.2500  44.7500 Du        
   8912 ****       190.5000  16.2500  45.0000 Du        
   8913 ****       190.5000  16.2500  45.2500 Du        
   8914 ****       190.5000  16.2500  45.5000 Du        
   8915 ****       190.5000  16.2500  45.7500 Du        
   8916 ****       190.5000  16.2500  46.0000 Du        
   8917 ****       190.5000  16.5000  44.5000 Du        
   8918 ****       190.5000  16.5000  44.7500 Du        
   8919 ****       190.5000  16.5000  45.0000 Du        
   8920 ****       190.5000  16.5000  45.2500 Du        
   8921 ****       190.5000  16.5000  45.5000 Du        
   8922 ****       190.5000  16.5000  45.7500 Du        
   8923 ****       190.5000  16.7500  44.5000 Du        
   8924 ****       190.5000  16.7500  44.7500 Du        
   8925 ****       190.5000  16.7500  45.0000 Du        
   8926 ****       190.5000  16.7500  45.2500 Du        
   8927 ****       190.5000  16.7500  45.5000 Du        
   8928 ****       190.5000  16.7500  45.7500 Du        
   8929 ****       190.5000  17.0000  44.5000 Du        
   8930 ****       190.5000  17.0000  44.7500 Du        
   8931 ****       190.5000  17.0000  45.0000 Du        
   8932 ****       190.5000  17.0000  45.2500 Du        
   8933 ****       190.5000  17.0000  45.5000 Du        
   8934 ****       190.5000  17.0000  45.7500 Du        
   8935 ****       190.5000  17.2500  44.5000 Du        
   8936 ****       190.5000  17.2500  44.7500 Du        
   8937 ****       190.5000  17.2500  45.0000 Du        
   8938 ****       190.5000  17.2500  45.2500 Du        
   8939 ****       190.5000  17.2500  45.5000 Du        
   8940 ****       190.5000  17.2500  45.7500 Du        
   8941 ****       190.5000  17.5000  44.5000 Du        
   8942 ****       190.5000  17.5000  44.7500 Du        
   8943 ****       190.5000  17.5000  45.0000 Du        
   8944 ****       190.5000  17.5000  45.2500 Du        
   8945 ****       190.5000  17.5000  45.5000 Du        
   8946 ****       190.5000  17.7500  44.5000 Du        
   8947 ****       190.5000  17.7500  44.7500 Du        
   8948 ****       190.5000  17.7500  45.0000 Du        
   8949 ****       190.5000  17.7500  45.2500 Du        
   8950 ****       190.5000  17.7500  45.5000 Du        
   8951 ****       190.5000  18.0000  44.7500 Du        
   8952 ****       190.5000  18.0000  45.0000 Du        
   8953 ****       190.5000  18.0000  45.2500 Du        
   8954 ****       190.5000  19.0000  50.0000 Du        
   8955 ****       190.5000  19.2500  49.7500 Du        
   8956 ****       190.5000  19.2500  50.0000 Du        
   8957 ****       190.5000  19.2500  50.2500 Du        
   8958 ****       190.5000  19.5000  49.7500 Du        
   8959 ****       190.5000  19.5000  50.0000 Du        
   8960 ****       190.5000  19.5000  50.2500 Du        
   8961 ****       190.5000  19.5000  50.5000 Du        
   8962 ****       190.5000  19.5000  50.7500 Du        
   8963 ****       190.5000  19.7500  50.0000 Du        
   8964 ****       190.5000  19.7500  50.2500 Du        
   8965 ****       190.5000  19.7500  50.5000 Du        
   8966 ****       190.5000  19.7500  50.7500 Du        
   8967 ****       190.5000  20.0000  50.5000 Du        
   8968 ****       190.5000  20.0000  50.7500 Du        
   8969 ****       190.7500  10.2500  55.7500 Du        
   8970 ****       190.7500  10.5000  55.5000 Du        
   8971 ****       190.7500  10.5000  55.7500 Du        
   8972 ****       190.7500  10.7500  55.5000 Du        
   8973 ****       190.7500  10.7500  55.7500 Du        
   8974 ****       190.7500  11.0000  55.5000 Du        
   8975 ****       190.7500  11.0000  55.7500 Du        
   8976 ****       190.7500  11.2500  55.5000 Du        
   8977 ****       190.7500  11.2500  55.7500 Du        
   8978 ****       190.7500  11.5000  55.5000 Du        
   8979 ****       190.7500  11.5000  55.7500 Du        
   8980 ****       190.7500  11.7500  55.2500 Du        
   8981 ****       190.7500  11.7500  55.5000 Du        
   8982 ****       190.7500  11.7500  55.7500 Du        
   8983 ****       190.7500  12.0000  55.2500 Du        
   8984 ****       190.7500  12.0000  55.5000 Du        
   8985 ****       190.7500  12.0000  55.7500 Du        
   8986 ****       190.7500  12.2500  55.2500 Du        
   8987 ****       190.7500  12.2500  55.5000 Du        
   8988 ****       190.7500  12.2500  55.7500 Du        
   8989 ****       190.7500  12.5000  55.2500 Du        
   8990 ****       190.7500  12.5000  55.5000 Du        
   8991 ****       190.7500  12.7500  55.2500 Du        
   8992 ****       190.7500  12.7500  55.5000 Du        
   8993 ****       190.7500  14.0000  45.2500 Du        
   8994 ****       190.7500  14.0000  45.5000 Du        
   8995 ****       190.7500  14.0000  45.7500 Du        
   8996 ****       190.7500  14.2500  39.2500 Du        
   8997 ****       190.7500  14.2500  39.5000 Du        
   8998 ****       190.7500  14.2500  39.7500 Du        
   8999 ****       190.7500  14.2500  40.0000 Du        
   9000 ****       190.7500  14.2500  40.2500 Du        
   9001 ****       190.7500  14.2500  44.7500 Du        
   9002 ****       190.7500  14.2500  45.0000 Du        
   9003 ****       190.7500  14.2500  45.2500 Du        
   9004 ****       190.7500  14.2500  45.5000 Du        
   9005 ****       190.7500  14.2500  45.7500 Du        
   9006 ****       190.7500  14.5000  39.0000 Du        
   9007 ****       190.7500  14.5000  39.2500 Du        
   9008 ****       190.7500  14.5000  39.5000 Du        
   9009 ****       190.7500  14.5000  39.7500 Du        
   9010 ****       190.7500  14.5000  40.0000 Du        
   9011 ****       190.7500  14.5000  40.2500 Du        
   9012 ****       190.7500  14.5000  44.7500 Du        
   9013 ****       190.7500  14.5000  45.0000 Du        
   9014 ****       190.7500  14.5000  45.2500 Du        
   9015 ****       190.7500  14.5000  45.5000 Du        
   9016 ****       190.7500  14.5000  45.7500 Du        
   9017 ****       190.7500  14.5000  46.0000 Du        
   9018 ****       190.7500  14.7500  39.0000 Du        
   9019 ****       190.7500  14.7500  39.2500 Du        
   9020 ****       190.7500  14.7500  39.5000 Du        
   9021 ****       190.7500  14.7500  39.7500 Du        
   9022 ****       190.7500  14.7500  40.0000 Du        
   9023 ****       190.7500  14.7500  40.2500 Du        
   9024 ****       190.7500  14.7500  40.5000 Du        
   9025 ****       190.7500  14.7500  44.7500 Du        
   9026 ****       190.7500  14.7500  45.0000 Du        
   9027 ****       190.7500  14.7500  45.2500 Du        
   9028 ****       190.7500  14.7500  45.5000 Du        
   9029 ****       190.7500  14.7500  45.7500 Du        
   9030 ****       190.7500  14.7500  46.0000 Du        
   9031 ****       190.7500  14.7500  46.2500 Du        
   9032 ****       190.7500  15.0000  39.0000 Du        
   9033 ****       190.7500  15.0000  39.2500 Du        
   9034 ****       190.7500  15.0000  39.5000 Du        
   9035 ****       190.7500  15.0000  39.7500 Du        
   9036 ****       190.7500  15.0000  40.0000 Du        
   9037 ****       190.7500  15.0000  40.2500 Du        
   9038 ****       190.7500  15.0000  40.5000 Du        
   9039 ****       190.7500  15.0000  40.7500 Du        
   9040 ****       190.7500  15.0000  44.7500 Du        
   9041 ****       190.7500  15.0000  45.0000 Du        
   9042 ****       190.7500  15.0000  45.2500 Du        
   9043 ****       190.7500  15.0000  45.5000 Du        
   9044 ****       190.7500  15.0000  45.7500 Du        
   9045 ****       190.7500  15.0000  46.0000 Du        
   9046 ****       190.7500  15.0000  46.2500 Du        
   9047 ****       190.7500  15.2500  39.0000 Du        
   9048 ****       190.7500  15.2500  39.2500 Du        
   9049 ****       190.7500  15.2500  39.5000 Du        
   9050 ****       190.7500  15.2500  39.7500 Du        
   9051 ****       190.7500  15.2500  40.0000 Du        
   9052 ****       190.7500  15.2500  40.2500 Du        
   9053 ****       190.7500  15.2500  40.5000 Du        
   9054 ****       190.7500  15.2500  44.7500 Du        
   9055 ****       190.7500  15.2500  45.0000 Du        
   9056 ****       190.7500  15.2500  45.2500 Du        
   9057 ****       190.7500  15.2500  45.5000 Du        
   9058 ****       190.7500  15.2500  45.7500 Du        
   9059 ****       190.7500  15.2500  46.0000 Du        
   9060 ****       190.7500  15.2500  46.2500 Du        
   9061 ****       190.7500  15.5000  39.0000 Du        
   9062 ****       190.7500  15.5000  39.2500 Du        
   9063 ****       190.7500  15.5000  39.5000 Du        
   9064 ****       190.7500  15.5000  39.7500 Du        
   9065 ****       190.7500  15.5000  40.0000 Du        
   9066 ****       190.7500  15.5000  40.2500 Du        
   9067 ****       190.7500  15.5000  44.7500 Du        
   9068 ****       190.7500  15.5000  45.0000 Du        
   9069 ****       190.7500  15.5000  45.2500 Du        
   9070 ****       190.7500  15.5000  45.5000 Du        
   9071 ****       190.7500  15.5000  45.7500 Du        
   9072 ****       190.7500  15.5000  46.0000 Du        
   9073 ****       190.7500  15.7500  39.0000 Du        
   9074 ****       190.7500  15.7500  39.2500 Du        
   9075 ****       190.7500  15.7500  39.5000 Du        
   9076 ****       190.7500  15.7500  39.7500 Du        
   9077 ****       190.7500  15.7500  40.0000 Du        
   9078 ****       190.7500  15.7500  40.2500 Du        
   9079 ****       190.7500  15.7500  44.7500 Du        
   9080 ****       190.7500  15.7500  45.0000 Du        
   9081 ****       190.7500  15.7500  45.2500 Du        
   9082 ****       190.7500  15.7500  45.5000 Du        
   9083 ****       190.7500  15.7500  45.7500 Du        
   9084 ****       190.7500  15.7500  46.0000 Du        
   9085 ****       190.7500  16.0000  39.0000 Du        
   9086 ****       190.7500  16.0000  39.2500 Du        
   9087 ****       190.7500  16.0000  39.5000 Du        
   9088 ****       190.7500  16.0000  39.7500 Du        
   9089 ****       190.7500  16.0000  40.0000 Du        
   9090 ****       190.7500  16.0000  44.7500 Du        
   9091 ****       190.7500  16.0000  45.0000 Du        
   9092 ****       190.7500  16.0000  45.2500 Du        
   9093 ****       190.7500  16.0000  45.5000 Du        
   9094 ****       190.7500  16.0000  45.7500 Du        
   9095 ****       190.7500  16.0000  46.0000 Du        
   9096 ****       190.7500  16.2500  39.0000 Du        
   9097 ****       190.7500  16.2500  39.2500 Du        
   9098 ****       190.7500  16.2500  39.5000 Du        
   9099 ****       190.7500  16.2500  44.7500 Du        
   9100 ****       190.7500  16.2500  45.0000 Du        
   9101 ****       190.7500  16.2500  45.2500 Du        
   9102 ****       190.7500  16.2500  45.5000 Du        
   9103 ****       190.7500  16.2500  45.7500 Du        
   9104 ****       190.7500  16.5000  44.7500 Du        
   9105 ****       190.7500  16.5000  45.0000 Du        
   9106 ****       190.7500  16.5000  45.2500 Du        
   9107 ****       190.7500  16.5000  45.5000 Du        
   9108 ****       190.7500  16.5000  45.7500 Du        
   9109 ****       190.7500  16.7500  44.7500 Du        
   9110 ****       190.7500  16.7500  45.0000 Du        
   9111 ****       190.7500  16.7500  45.2500 Du        
   9112 ****       190.7500  16.7500  45.5000 Du        
   9113 ****       190.7500  16.7500  45.7500 Du        
   9114 ****       190.7500  17.0000  44.5000 Du        
   9115 ****       190.7500  17.0000  44.7500 Du        
   9116 ****       190.7500  17.0000  45.0000 Du        
   9117 ****       190.7500  17.0000  45.2500 Du        
   9118 ****       190.7500  17.0000  45.5000 Du        
   9119 ****       190.7500  17.2500  44.5000 Du        
   9120 ****       190.7500  17.2500  44.7500 Du        
   9121 ****       190.7500  17.2500  45.0000 Du        
   9122 ****       190.7500  17.2500  45.2500 Du        
   9123 ****       190.7500  17.2500  45.5000 Du        
   9124 ****       190.7500  17.5000  44.5000 Du        
   9125 ****       190.7500  17.5000  44.7500 Du        
   9126 ****       190.7500  17.5000  45.0000 Du        
   9127 ****       190.7500  17.5000  45.2500 Du        
   9128 ****       190.7500  17.7500  44.5000 Du        
   9129 ****       190.7500  17.7500  44.7500 Du        
   9130 ****       190.7500  17.7500  45.0000 Du        
   9131 ****       190.7500  17.7500  45.2500 Du        
   9132 ****       190.7500  18.0000  44.7500 Du        
   9133 ****       190.7500  18.0000  45.0000 Du        
   9134 ****       190.7500  19.5000  50.0000 Du        
   9135 ****       190.7500  19.5000  50.2500 Du        
   9136 ****       190.7500  19.7500  50.2500 Du        
   9137 ****       190.7500  19.7500  50.5000 Du        
   9138 ****       191.0000  14.0000  45.2500 Du        
   9139 ****       191.0000  14.0000  45.5000 Du        
   9140 ****       191.0000  14.2500  45.0000 Du        
   9141 ****       191.0000  14.2500  45.2500 Du        
   9142 ****       191.0000  14.2500  45.5000 Du        
   9143 ****       191.0000  14.2500  45.7500 Du        
   9144 ****       191.0000  14.5000  45.0000 Du        
   9145 ****       191.0000  14.5000  45.2500 Du        
   9146 ****       191.0000  14.5000  45.5000 Du        
   9147 ****       191.0000  14.5000  45.7500 Du        
   9148 ****       191.0000  14.5000  46.0000 Du        
   9149 ****       191.0000  14.7500  39.0000 Du        
   9150 ****       191.0000  14.7500  39.2500 Du        
   9151 ****       191.0000  14.7500  39.5000 Du        
   9152 ****       191.0000  14.7500  39.7500 Du        
   9153 ****       191.0000  14.7500  40.0000 Du        
   9154 ****       191.0000  14.7500  40.2500 Du        
   9155 ****       191.0000  14.7500  44.7500 Du        
   9156 ****       191.0000  14.7500  45.0000 Du        
   9157 ****       191.0000  14.7500  45.2500 Du        
   9158 ****       191.0000  14.7500  45.5000 Du        
   9159 ****       191.0000  14.7500  45.7500 Du        
   9160 ****       191.0000  14.7500  46.0000 Du        
   9161 ****       191.0000  15.0000  39.0000 Du        
   9162 ****       191.0000  15.0000  39.2500 Du        
   9163 ****       191.0000  15.0000  39.5000 Du        
   9164 ****       191.0000  15.0000  39.7500 Du        
   9165 ****       191.0000  15.0000  40.0000 Du        
   9166 ****       191.0000  15.0000  40.2500 Du        
   9167 ****       191.0000  15.0000  44.7500 Du        
   9168 ****       191.0000  15.0000  45.0000 Du        
   9169 ****       191.0000  15.0000  45.2500 Du        
   9170 ****       191.0000  15.0000  45.5000 Du        
   9171 ****       191.0000  15.0000  45.7500 Du        
   9172 ****       191.0000  15.0000  46.0000 Du        
   9173 ****       191.0000  15.2500  39.0000 Du        
   9174 ****       191.0000  15.2500  39.2500 Du        
   9175 ****       191.0000  15.2500  39.5000 Du        
   9176 ****       191.0000  15.2500  39.7500 Du        
   9177 ****       191.0000  15.2500  40.0000 Du        
   9178 ****       191.0000  15.2500  40.2500 Du        
   9179 ****       191.0000  15.2500  44.7500 Du        
   9180 ****       191.0000  15.2500  45.0000 Du        
   9181 ****       191.0000  15.2500  45.2500 Du        
   9182 ****       191.0000  15.2500  45.5000 Du        
   9183 ****       191.0000  15.2500  45.7500 Du        
   9184 ****       191.0000  15.2500  46.0000 Du        
   9185 ****       191.0000  15.5000  39.0000 Du        
   9186 ****       191.0000  15.5000  39.2500 Du        
   9187 ****       191.0000  15.5000  39.5000 Du        
   9188 ****       191.0000  15.5000  39.7500 Du        
   9189 ****       191.0000  15.5000  40.0000 Du        
   9190 ****       191.0000  15.5000  40.2500 Du        
   9191 ****       191.0000  15.5000  44.7500 Du        
   9192 ****       191.0000  15.5000  45.0000 Du        
   9193 ****       191.0000  15.5000  45.2500 Du        
   9194 ****       191.0000  15.5000  45.5000 Du        
   9195 ****       191.0000  15.5000  45.7500 Du        
   9196 ****       191.0000  15.5000  46.0000 Du        
   9197 ****       191.0000  15.7500  39.0000 Du        
   9198 ****       191.0000  15.7500  39.2500 Du        
   9199 ****       191.0000  15.7500  39.5000 Du        
   9200 ****       191.0000  15.7500  39.7500 Du        
   9201 ****       191.0000  15.7500  40.0000 Du        
   9202 ****       191.0000  15.7500  44.7500 Du        
   9203 ****       191.0000  15.7500  45.0000 Du        
   9204 ****       191.0000  15.7500  45.2500 Du        
   9205 ****       191.0000  15.7500  45.5000 Du        
   9206 ****       191.0000  15.7500  45.7500 Du        
   9207 ****       191.0000  15.7500  46.0000 Du        
   9208 ****       191.0000  16.0000  39.0000 Du        
   9209 ****       191.0000  16.0000  39.2500 Du        
   9210 ****       191.0000  16.0000  39.5000 Du        
   9211 ****       191.0000  16.0000  39.7500 Du        
   9212 ****       191.0000  16.0000  44.7500 Du        
   9213 ****       191.0000  16.0000  45.0000 Du        
   9214 ****       191.0000  16.0000  45.2500 Du        
   9215 ****       191.0000  16.0000  45.5000 Du        
   9216 ****       191.0000  16.0000  45.7500 Du        
   9217 ****       191.0000  16.2500  39.0000 Du        
   9218 ****       191.0000  16.2500  39.2500 Du        
   9219 ****       191.0000  16.2500  39.5000 Du        
   9220 ****       191.0000  16.2500  39.7500 Du        
   9221 ****       191.0000  16.2500  44.7500 Du        
   9222 ****       191.0000  16.2500  45.0000 Du        
   9223 ****       191.0000  16.2500  45.2500 Du        
   9224 ****       191.0000  16.2500  45.5000 Du        
   9225 ****       191.0000  16.2500  45.7500 Du        
   9226 ****       191.0000  16.5000  45.0000 Du        
   9227 ****       191.0000  16.5000  45.2500 Du        
   9228 ****       191.0000  16.5000  45.5000 Du        
   9229 ****       191.0000  16.7500  44.7500 Du        
   9230 ****       191.0000  16.7500  45.0000 Du        
   9231 ****       191.0000  16.7500  45.2500 Du        
   9232 ****       191.0000  16.7500  45.5000 Du        
   9233 ****       191.0000  17.0000  44.7500 Du        
   9234 ****       191.0000  17.0000  45.0000 Du        
   9235 ****       191.0000  17.0000  45.2500 Du        
   9236 ****       191.0000  17.0000  45.5000 Du        
   9237 ****       191.0000  17.2500  44.7500 Du        
   9238 ****       191.0000  17.2500  45.0000 Du        
   9239 ****       191.0000  17.2500  45.2500 Du        
   9240 ****       191.0000  17.5000  44.7500 Du        
   9241 ****       191.0000  17.5000  45.0000 Du        
   9242 ****       191.0000  17.5000  45.2500 Du        
   9243 ****       191.0000  17.7500  44.7500 Du        
   9244 ****       191.0000  17.7500  45.0000 Du        
   9245 ****       191.2500  14.2500  45.5000 Du        
   9246 ****       191.2500  14.5000  45.2500 Du        
   9247 ****       191.2500  14.5000  45.5000 Du        
   9248 ****       191.2500  14.5000  45.7500 Du        
   9249 ****       191.2500  14.7500  45.0000 Du        
   9250 ****       191.2500  14.7500  45.2500 Du        
   9251 ****       191.2500  14.7500  45.5000 Du        
   9252 ****       191.2500  14.7500  45.7500 Du        
   9253 ****       191.2500  14.7500  46.0000 Du        
   9254 ****       191.2500  15.0000  39.0000 Du        
   9255 ****       191.2500  15.0000  39.2500 Du        
   9256 ****       191.2500  15.0000  39.5000 Du        
   9257 ****       191.2500  15.0000  39.7500 Du        
   9258 ****       191.2500  15.0000  40.0000 Du        
   9259 ****       191.2500  15.0000  45.0000 Du        
   9260 ****       191.2500  15.0000  45.2500 Du        
   9261 ****       191.2500  15.0000  45.5000 Du        
   9262 ****       191.2500  15.0000  45.7500 Du        
   9263 ****       191.2500  15.0000  46.0000 Du        
   9264 ****       191.2500  15.2500  39.0000 Du        
   9265 ****       191.2500  15.2500  39.2500 Du        
   9266 ****       191.2500  15.2500  39.5000 Du        
   9267 ****       191.2500  15.2500  39.7500 Du        
   9268 ****       191.2500  15.2500  40.0000 Du        
   9269 ****       191.2500  15.2500  45.0000 Du        
   9270 ****       191.2500  15.2500  45.2500 Du        
   9271 ****       191.2500  15.2500  45.5000 Du        
   9272 ****       191.2500  15.2500  45.7500 Du        
   9273 ****       191.2500  15.2500  46.0000 Du        
   9274 ****       191.2500  15.5000  39.0000 Du        
   9275 ****       191.2500  15.5000  39.2500 Du        
   9276 ****       191.2500  15.5000  39.5000 Du        
   9277 ****       191.2500  15.5000  39.7500 Du        
   9278 ****       191.2500  15.5000  40.0000 Du        
   9279 ****       191.2500  15.5000  45.0000 Du        
   9280 ****       191.2500  15.5000  45.2500 Du        
   9281 ****       191.2500  15.5000  45.5000 Du        
   9282 ****       191.2500  15.5000  45.7500 Du        
   9283 ****       191.2500  15.7500  39.0000 Du        
   9284 ****       191.2500  15.7500  39.2500 Du        
   9285 ****       191.2500  15.7500  39.5000 Du        
   9286 ****       191.2500  15.7500  39.7500 Du        
   9287 ****       191.2500  15.7500  45.0000 Du        
   9288 ****       191.2500  15.7500  45.2500 Du        
   9289 ****       191.2500  15.7500  45.5000 Du        
   9290 ****       191.2500  15.7500  45.7500 Du        
   9291 ****       191.2500  16.0000  39.0000 Du        
   9292 ****       191.2500  16.0000  39.2500 Du        
   9293 ****       191.2500  16.0000  39.5000 Du        
   9294 ****       191.2500  16.0000  39.7500 Du        
   9295 ****       191.2500  16.0000  45.0000 Du        
   9296 ****       191.2500  16.0000  45.2500 Du        
   9297 ****       191.2500  16.0000  45.5000 Du        
   9298 ****       191.2500  16.0000  45.7500 Du        
   9299 ****       191.2500  16.2500  39.0000 Du        
   9300 ****       191.2500  16.2500  39.2500 Du        
   9301 ****       191.2500  16.2500  39.5000 Du        
   9302 ****       191.2500  16.2500  45.0000 Du        
   9303 ****       191.2500  16.2500  45.2500 Du        
   9304 ****       191.2500  16.2500  45.5000 Du        
   9305 ****       191.2500  16.5000  39.0000 Du        
   9306 ****       191.2500  16.5000  45.0000 Du        
   9307 ****       191.2500  16.5000  45.2500 Du        
   9308 ****       191.2500  16.7500  45.0000 Du        
   9309 ****       191.2500  16.7500  45.2500 Du        
   9310 ****       191.2500  17.0000  45.0000 Du        
   9311 ****       191.2500  17.0000  45.2500 Du        
   9312 ****       191.2500  17.2500  45.0000 Du        
   9313 ****       191.5000  14.5000  45.2500 Du        
   9314 ****       191.5000  14.5000  45.5000 Du        
   9315 ****       191.5000  14.5000  45.7500 Du        
   9316 ****       191.5000  14.7500  45.2500 Du        
   9317 ****       191.5000  14.7500  45.5000 Du        
   9318 ****       191.5000  14.7500  45.7500 Du        
   9319 ****       191.5000  14.7500  46.0000 Du        
   9320 ****       191.5000  15.0000  45.2500 Du        
   9321 ****       191.5000  15.0000  45.5000 Du        
   9322 ****       191.5000  15.0000  45.7500 Du        
   9323 ****       191.5000  15.0000  46.0000 Du        
   9324 ****       191.5000  15.2500  39.2500 Du        
   9325 ****       191.5000  15.2500  45.2500 Du        
   9326 ****       191.5000  15.2500  45.5000 Du        
   9327 ****       191.5000  15.2500  45.7500 Du        
   9328 ****       191.5000  15.2500  46.0000 Du        
   9329 ****       191.5000  15.5000  39.0000 Du        
   9330 ****       191.5000  15.5000  39.2500 Du        
   9331 ****       191.5000  15.5000  39.5000 Du        
   9332 ****       191.5000  15.5000  45.2500 Du        
   9333 ****       191.5000  15.5000  45.5000 Du        
   9334 ****       191.5000  15.5000  45.7500 Du        
   9335 ****       191.5000  15.7500  39.0000 Du        
   9336 ****       191.5000  15.7500  39.2500 Du        
   9337 ****       191.5000  15.7500  39.5000 Du        
   9338 ****       191.5000  15.7500  45.2500 Du        
   9339 ****       191.5000  15.7500  45.5000 Du        
   9340 ****       191.5000  15.7500  45.7500 Du        
   9341 ****       191.5000  16.0000  39.0000 Du        
   9342 ****       191.5000  16.0000  39.2500 Du        
   9343 ****       191.5000  16.0000  39.5000 Du        
   9344 ****       191.5000  16.0000  45.2500 Du        
   9345 ****       191.5000  16.0000  45.5000 Du        
   9346 ****       191.5000  16.2500  39.0000 Du        
   9347 ****       191.5000  16.2500  39.2500 Du        
   9348 ****       191.5000  16.2500  45.2500 Du        
   9349 ****       191.5000  16.5000  39.0000 Du        
   9350 ****       191.7500  14.7500  45.5000 Du        
   9351 ****       191.7500  14.7500  45.7500 Du        
   9352 ****       191.7500  15.0000  45.5000 Du        
   9353 ****       191.7500  15.0000  45.7500 Du        
   9354 ****       191.7500  15.2500  45.5000 Du        
   9355 ****       191.7500  15.2500  45.7500 Du        
   9356 ****       191.7500  15.5000  39.0000 Du        
   9357 ****       191.7500  15.5000  39.2500 Du        
   9358 ****       191.7500  15.5000  45.5000 Du        
   9359 ****       191.7500  15.7500  39.0000 Du        
   9360 ****       191.7500  15.7500  39.2500 Du        
   9361 ****       191.7500  15.7500  39.5000 Du        
   9362 ****       191.7500  16.0000  39.0000 Du        
   9363 ****       191.7500  16.0000  39.2500 Du        
   9364 ****       191.7500  16.2500  39.0000 Du        
   9365 ****       191.7500  16.2500  39.2500 Du        
   9366 ****       191.7500  16.5000  39.0000 Du        
   9367 ****       192.0000  15.7500  39.0000 Du        
   9368 ****       192.0000  15.7500  39.2500 Du        
   9369 ****       192.0000  16.0000  39.0000 Du        
   9370 ****       192.0000  16.0000  39.2500 Du        
   9371 ****       192.0000  16.2500  39.0000 Du        
   9372 ****       192.0000  16.2500  39.2500 Du        
   9373 ****       192.0000  16.5000  39.0000 Du        
   9374 ****       192.2500  15.7500  39.0000 Du        
   9375 ****       192.2500  16.0000  39.0000 Du        
   9376 ****       192.2500  16.0000  39.2500 Du        
   9377 ****       192.2500  16.2500  39.0000 Du        
   9378 ****       192.2500  16.5000  39.0000 Du        
   9379 ****       192.5000  16.0000  39.0000 Du        
   9380 ****       192.5000  16.2500  39.0000 Du        
   9381 ****       192.7500  16.0000  39.0000 Du        
   9382 ****       192.7500  16.2500  39.0000 Du        
   9383 ****       193.0000  16.0000  39.0000 Du        
   9384 ****       193.0000  16.2500  39.0000 Du        
   9385 ****       196.0000   9.7500  44.0000 Du        
   9386 ****       196.0000   9.7500  44.2500 Du        
   9387 ****       196.0000  10.0000  43.7500 Du        
   9388 ****       196.0000  10.0000  44.0000 Du        
   9389 ****       196.2500   9.0000  44.5000 Du        
   9390 ****       196.2500   9.0000  44.7500 Du        
   9391 ****       196.2500   9.2500  44.2500 Du        
   9392 ****       196.2500   9.2500  44.5000 Du        
   9393 ****       196.2500   9.2500  44.7500 Du        
   9394 ****       196.2500   9.5000  43.7500 Du        
   9395 ****       196.2500   9.5000  44.0000 Du        
   9396 ****       196.2500   9.5000  44.2500 Du        
   9397 ****       196.2500   9.5000  44.5000 Du        
   9398 ****       196.2500   9.5000  44.7500 Du        
   9399 ****       196.2500   9.7500  43.2500 Du        
   9400 ****       196.2500   9.7500  43.5000 Du        
   9401 ****       196.2500   9.7500  43.7500 Du        
   9402 ****       196.2500   9.7500  44.0000 Du        
   9403 ****       196.2500   9.7500  44.2500 Du        
   9404 ****       196.2500   9.7500  44.5000 Du        
   9405 ****       196.2500  10.0000  43.0000 Du        
   9406 ****       196.2500  10.0000  43.2500 Du        
   9407 ****       196.2500  10.0000  43.5000 Du        
   9408 ****       196.2500  10.0000  43.7500 Du        
   9409 ****       196.2500  10.0000  44.0000 Du        
   9410 ****       196.2500  10.0000  44.2500 Du        
   9411 ****       196.2500  10.2500  43.7500 Du        
   9412 ****       196.2500  10.2500  44.0000 Du        
   9413 ****       196.5000   8.2500  44.7500 Du        
   9414 ****       196.5000   8.5000  44.5000 Du        
   9415 ****       196.5000   8.5000  44.7500 Du        
   9416 ****       196.5000   8.5000  45.0000 Du        
   9417 ****       196.5000   8.7500  44.2500 Du        
   9418 ****       196.5000   8.7500  44.5000 Du        
   9419 ****       196.5000   8.7500  44.7500 Du        
   9420 ****       196.5000   8.7500  45.0000 Du        
   9421 ****       196.5000   9.0000  44.0000 Du        
   9422 ****       196.5000   9.0000  44.2500 Du        
   9423 ****       196.5000   9.0000  44.5000 Du        
   9424 ****       196.5000   9.0000  44.7500 Du        
   9425 ****       196.5000   9.0000  45.0000 Du        
   9426 ****       196.5000   9.2500  43.7500 Du        
   9427 ****       196.5000   9.2500  44.0000 Du        
   9428 ****       196.5000   9.2500  44.2500 Du        
   9429 ****       196.5000   9.2500  44.5000 Du        
   9430 ****       196.5000   9.2500  44.7500 Du        
   9431 ****       196.5000   9.2500  45.0000 Du        
   9432 ****       196.5000   9.5000  43.0000 Du        
   9433 ****       196.5000   9.5000  43.2500 Du        
   9434 ****       196.5000   9.5000  43.5000 Du        
   9435 ****       196.5000   9.5000  43.7500 Du        
   9436 ****       196.5000   9.5000  44.0000 Du        
   9437 ****       196.5000   9.5000  44.2500 Du        
   9438 ****       196.5000   9.5000  44.5000 Du        
   9439 ****       196.5000   9.5000  44.7500 Du        
   9440 ****       196.5000   9.7500  42.7500 Du        
   9441 ****       196.5000   9.7500  43.0000 Du        
   9442 ****       196.5000   9.7500  43.2500 Du        
   9443 ****       196.5000   9.7500  43.5000 Du        
   9444 ****       196.5000   9.7500  43.7500 Du        
   9445 ****       196.5000   9.7500  44.0000 Du        
   9446 ****       196.5000   9.7500  44.2500 Du        
   9447 ****       196.5000   9.7500  44.5000 Du        
   9448 ****       196.5000  10.0000  42.5000 Du        
   9449 ****       196.5000  10.0000  42.7500 Du        
   9450 ****       196.5000  10.0000  43.0000 Du        
   9451 ****       196.5000  10.0000  43.2500 Du        
   9452 ****       196.5000  10.0000  43.5000 Du        
   9453 ****       196.5000  10.0000  43.7500 Du        
   9454 ****       196.5000  10.0000  44.0000 Du        
   9455 ****       196.5000  10.0000  44.2500 Du        
   9456 ****       196.5000  10.0000  44.5000 Du        
   9457 ****       196.5000  10.2500  42.7500 Du        
   9458 ****       196.5000  10.2500  43.0000 Du        
   9459 ****       196.5000  10.2500  43.2500 Du        
   9460 ****       196.5000  10.2500  43.5000 Du        
   9461 ****       196.5000  10.2500  43.7500 Du        
   9462 ****       196.5000  10.2500  44.0000 Du        
   9463 ****       196.5000  10.2500  44.2500 Du        
   9464 ****       196.7500   7.5000  44.7500 Du        
   9465 ****       196.7500   7.5000  45.0000 Du        
   9466 ****       196.7500   7.7500  44.5000 Du        
   9467 ****       196.7500   7.7500  44.7500 Du        
   9468 ****       196.7500   7.7500  45.0000 Du        
   9469 ****       196.7500   7.7500  45.2500 Du        
   9470 ****       196.7500   8.0000  44.5000 Du        
   9471 ****       196.7500   8.0000  44.7500 Du        
   9472 ****       196.7500   8.0000  45.0000 Du        
   9473 ****       196.7500   8.0000  45.2500 Du        
   9474 ****       196.7500   8.2500  44.2500 Du        
   9475 ****       196.7500   8.2500  44.5000 Du        
   9476 ****       196.7500   8.2500  44.7500 Du        
   9477 ****       196.7500   8.2500  45.0000 Du        
   9478 ****       196.7500   8.2500  45.2500 Du        
   9479 ****       196.7500   8.5000  44.0000 Du        
   9480 ****       196.7500   8.5000  44.2500 Du        
   9481 ****       196.7500   8.5000  44.5000 Du        
   9482 ****       196.7500   8.5000  44.7500 Du        
   9483 ****       196.7500   8.5000  45.0000 Du        
   9484 ****       196.7500   8.5000  45.2500 Du        
   9485 ****       196.7500   8.7500  44.0000 Du        
   9486 ****       196.7500   8.7500  44.2500 Du        
   9487 ****       196.7500   8.7500  44.5000 Du        
   9488 ****       196.7500   8.7500  44.7500 Du        
   9489 ****       196.7500   8.7500  45.0000 Du        
   9490 ****       196.7500   8.7500  45.2500 Du        
   9491 ****       196.7500   9.0000  43.5000 Du        
   9492 ****       196.7500   9.0000  43.7500 Du        
   9493 ****       196.7500   9.0000  44.0000 Du        
   9494 ****       196.7500   9.0000  44.2500 Du        
   9495 ****       196.7500   9.0000  44.5000 Du        
   9496 ****       196.7500   9.0000  44.7500 Du        
   9497 ****       196.7500   9.0000  45.0000 Du        
   9498 ****       196.7500   9.0000  45.2500 Du        
   9499 ****       196.7500   9.2500  43.0000 Du        
   9500 ****       196.7500   9.2500  43.2500 Du        
   9501 ****       196.7500   9.2500  43.5000 Du        
   9502 ****       196.7500   9.2500  43.7500 Du        
   9503 ****       196.7500   9.2500  44.0000 Du        
   9504 ****       196.7500   9.2500  44.2500 Du        
   9505 ****       196.7500   9.2500  44.5000 Du        
   9506 ****       196.7500   9.2500  44.7500 Du        
   9507 ****       196.7500   9.2500  45.0000 Du        
   9508 ****       196.7500   9.5000  42.7500 Du        
   9509 ****       196.7500   9.5000  43.0000 Du        
   9510 ****       196.7500   9.5000  43.2500 Du        
   9511 ****       196.7500   9.5000  43.5000 Du        
   9512 ****       196.7500   9.5000  43.7500 Du        
   9513 ****       196.7500   9.5000  44.0000 Du        
   9514 ****       196.7500   9.5000  44.2500 Du        
   9515 ****       196.7500   9.5000  44.5000 Du        
   9516 ****       196.7500   9.5000  44.7500 Du        
   9517 ****       196.7500   9.7500  42.5000 Du        
   9518 ****       196.7500   9.7500  42.7500 Du        
   9519 ****       196.7500   9.7500  43.0000 Du        
   9520 ****       196.7500   9.7500  43.2500 Du        
   9521 ****       196.7500   9.7500  43.5000 Du        
   9522 ****       196.7500   9.7500  43.7500 Du        
   9523 ****       196.7500   9.7500  44.0000 Du        
   9524 ****       196.7500   9.7500  44.2500 Du        
   9525 ****       196.7500   9.7500  44.5000 Du        
   9526 ****       196.7500   9.7500  44.7500 Du        
   9527 ****       196.7500  10.0000  42.2500 Du        
   9528 ****       196.7500  10.0000  42.5000 Du        
   9529 ****       196.7500  10.0000  42.7500 Du        
   9530 ****       196.7500  10.0000  43.0000 Du        
   9531 ****       196.7500  10.0000  43.2500 Du        
   9532 ****       196.7500  10.0000  43.5000 Du        
   9533 ****       196.7500  10.0000  43.7500 Du        
   9534 ****       196.7500  10.0000  44.0000 Du        
   9535 ****       196.7500  10.0000  44.2500 Du        
   9536 ****       196.7500  10.0000  44.5000 Du        
   9537 ****       196.7500  10.2500  42.2500 Du        
   9538 ****       196.7500  10.2500  42.5000 Du        
   9539 ****       196.7500  10.2500  42.7500 Du        
   9540 ****       196.7500  10.2500  43.0000 Du        
   9541 ****       196.7500  10.2500  43.2500 Du        
   9542 ****       196.7500  10.2500  43.5000 Du        
   9543 ****       196.7500  10.2500  43.7500 Du        
   9544 ****       196.7500  10.2500  44.0000 Du        
   9545 ****       196.7500  10.2500  44.2500 Du        
   9546 ****       196.7500  10.5000  43.2500 Du        
   9547 ****       196.7500  10.5000  43.5000 Du        
   9548 ****       196.7500  10.5000  43.7500 Du        
   9549 ****       196.7500  10.5000  44.0000 Du        
   9550 ****       197.0000   7.0000  44.5000 Du        
   9551 ****       197.0000   7.0000  44.7500 Du        
   9552 ****       197.0000   7.0000  45.0000 Du        
   9553 ****       197.0000   7.0000  45.2500 Du        
   9554 ****       197.0000   7.2500  44.2500 Du        
   9555 ****       197.0000   7.2500  44.5000 Du        
   9556 ****       197.0000   7.2500  44.7500 Du        
   9557 ****       197.0000   7.2500  45.0000 Du        
   9558 ****       197.0000   7.2500  45.2500 Du        
   9559 ****       197.0000   7.2500  45.5000 Du        
   9560 ****       197.0000   7.2500  45.7500 Du        
   9561 ****       197.0000   7.5000  44.2500 Du        
   9562 ****       197.0000   7.5000  44.5000 Du        
   9563 ****       197.0000   7.5000  44.7500 Du        
   9564 ****       197.0000   7.5000  45.0000 Du        
   9565 ****       197.0000   7.5000  45.2500 Du        
   9566 ****       197.0000   7.5000  45.5000 Du        
   9567 ****       197.0000   7.5000  45.7500 Du        
   9568 ****       197.0000   7.7500  44.2500 Du        
   9569 ****       197.0000   7.7500  44.5000 Du        
   9570 ****       197.0000   7.7500  44.7500 Du        
   9571 ****       197.0000   7.7500  45.0000 Du        
   9572 ****       197.0000   7.7500  45.2500 Du        
   9573 ****       197.0000   7.7500  45.5000 Du        
   9574 ****       197.0000   7.7500  45.7500 Du        
   9575 ****       197.0000   8.0000  44.0000 Du        
   9576 ****       197.0000   8.0000  44.2500 Du        
   9577 ****       197.0000   8.0000  44.5000 Du        
   9578 ****       197.0000   8.0000  44.7500 Du        
   9579 ****       197.0000   8.0000  45.0000 Du        
   9580 ****       197.0000   8.0000  45.2500 Du        
   9581 ****       197.0000   8.0000  45.5000 Du        
   9582 ****       197.0000   8.0000  45.7500 Du        
   9583 ****       197.0000   8.2500  43.7500 Du        
   9584 ****       197.0000   8.2500  44.0000 Du        
   9585 ****       197.0000   8.2500  44.2500 Du        
   9586 ****       197.0000   8.2500  44.5000 Du        
   9587 ****       197.0000   8.2500  44.7500 Du        
   9588 ****       197.0000   8.2500  45.0000 Du        
   9589 ****       197.0000   8.2500  45.2500 Du        
   9590 ****       197.0000   8.2500  45.5000 Du        
   9591 ****       197.0000   8.2500  45.7500 Du        
   9592 ****       197.0000   8.5000  43.7500 Du        
   9593 ****       197.0000   8.5000  44.0000 Du        
   9594 ****       197.0000   8.5000  44.2500 Du        
   9595 ****       197.0000   8.5000  44.5000 Du        
   9596 ****       197.0000   8.5000  44.7500 Du        
   9597 ****       197.0000   8.5000  45.0000 Du        
   9598 ****       197.0000   8.5000  45.2500 Du        
   9599 ****       197.0000   8.5000  45.5000 Du        
   9600 ****       197.0000   8.7500  43.5000 Du        
   9601 ****       197.0000   8.7500  43.7500 Du        
   9602 ****       197.0000   8.7500  44.0000 Du        
   9603 ****       197.0000   8.7500  44.2500 Du        
   9604 ****       197.0000   8.7500  44.5000 Du        
   9605 ****       197.0000   8.7500  44.7500 Du        
   9606 ****       197.0000   8.7500  45.0000 Du        
   9607 ****       197.0000   8.7500  45.2500 Du        
   9608 ****       197.0000   8.7500  45.5000 Du        
   9609 ****       197.0000   9.0000  43.0000 Du        
   9610 ****       197.0000   9.0000  43.2500 Du        
   9611 ****       197.0000   9.0000  43.5000 Du        
   9612 ****       197.0000   9.0000  43.7500 Du        
   9613 ****       197.0000   9.0000  44.0000 Du        
   9614 ****       197.0000   9.0000  44.2500 Du        
   9615 ****       197.0000   9.0000  44.5000 Du        
   9616 ****       197.0000   9.0000  44.7500 Du        
   9617 ****       197.0000   9.0000  45.0000 Du        
   9618 ****       197.0000   9.0000  45.2500 Du        
   9619 ****       197.0000   9.2500  42.7500 Du        
   9620 ****       197.0000   9.2500  43.0000 Du        
   9621 ****       197.0000   9.2500  43.2500 Du        
   9622 ****       197.0000   9.2500  43.5000 Du        
   9623 ****       197.0000   9.2500  43.7500 Du        
   9624 ****       197.0000   9.2500  44.0000 Du        
   9625 ****       197.0000   9.2500  44.2500 Du        
   9626 ****       197.0000   9.2500  44.5000 Du        
   9627 ****       197.0000   9.2500  44.7500 Du        
   9628 ****       197.0000   9.2500  45.0000 Du        
   9629 ****       197.0000   9.5000  42.5000 Du        
   9630 ****       197.0000   9.5000  42.7500 Du        
   9631 ****       197.0000   9.5000  43.0000 Du        
   9632 ****       197.0000   9.5000  43.2500 Du        
   9633 ****       197.0000   9.5000  43.5000 Du        
   9634 ****       197.0000   9.5000  43.7500 Du        
   9635 ****       197.0000   9.5000  44.0000 Du        
   9636 ****       197.0000   9.5000  44.2500 Du        
   9637 ****       197.0000   9.5000  44.5000 Du        
   9638 ****       197.0000   9.5000  44.7500 Du        
   9639 ****       197.0000   9.7500  42.2500 Du        
   9640 ****       197.0000   9.7500  42.5000 Du        
   9641 ****       197.0000   9.7500  42.7500 Du        
   9642 ****       197.0000   9.7500  43.0000 Du        
   9643 ****       197.0000   9.7500  43.2500 Du        
   9644 ****       197.0000   9.7500  43.5000 Du        
   9645 ****       197.0000   9.7500  43.7500 Du        
   9646 ****       197.0000   9.7500  44.0000 Du        
   9647 ****       197.0000   9.7500  44.2500 Du        
   9648 ****       197.0000   9.7500  44.5000 Du        
   9649 ****       197.0000   9.7500  44.7500 Du        
   9650 ****       197.0000  10.0000  42.2500 Du        
   9651 ****       197.0000  10.0000  42.5000 Du        
   9652 ****       197.0000  10.0000  42.7500 Du        
   9653 ****       197.0000  10.0000  43.0000 Du        
   9654 ****       197.0000  10.0000  43.2500 Du        
   9655 ****       197.0000  10.0000  43.5000 Du        
   9656 ****       197.0000  10.0000  43.7500 Du        
   9657 ****       197.0000  10.0000  44.0000 Du        
   9658 ****       197.0000  10.0000  44.2500 Du        
   9659 ****       197.0000  10.0000  44.5000 Du        
   9660 ****       197.0000  10.2500  42.2500 Du        
   9661 ****       197.0000  10.2500  42.5000 Du        
   9662 ****       197.0000  10.2500  42.7500 Du        
   9663 ****       197.0000  10.2500  43.0000 Du        
   9664 ****       197.0000  10.2500  43.2500 Du        
   9665 ****       197.0000  10.2500  43.5000 Du        
   9666 ****       197.0000  10.2500  43.7500 Du        
   9667 ****       197.0000  10.2500  44.0000 Du        
   9668 ****       197.0000  10.2500  44.2500 Du        
   9669 ****       197.0000  10.2500  44.5000 Du        
   9670 ****       197.0000  10.5000  42.2500 Du        
   9671 ****       197.0000  10.5000  42.5000 Du        
   9672 ****       197.0000  10.5000  42.7500 Du        
   9673 ****       197.0000  10.5000  43.0000 Du        
   9674 ****       197.0000  10.5000  43.2500 Du        
   9675 ****       197.0000  10.5000  43.5000 Du        
   9676 ****       197.0000  10.5000  43.7500 Du        
   9677 ****       197.0000  10.5000  44.0000 Du        
   9678 ****       197.0000  10.5000  44.2500 Du        
   9679 ****       197.2500   6.7500  44.2500 Du        
   9680 ****       197.2500   6.7500  44.5000 Du        
   9681 ****       197.2500   6.7500  44.7500 Du        
   9682 ****       197.2500   6.7500  45.0000 Du        
   9683 ****       197.2500   7.0000  44.2500 Du        
   9684 ****       197.2500   7.0000  44.5000 Du        
   9685 ****       197.2500   7.0000  44.7500 Du        
   9686 ****       197.2500   7.0000  45.0000 Du        
   9687 ****       197.2500   7.0000  45.2500 Du        
   9688 ****       197.2500   7.0000  45.5000 Du        
   9689 ****       197.2500   7.2500  44.0000 Du        
   9690 ****       197.2500   7.2500  44.2500 Du        
   9691 ****       197.2500   7.2500  44.5000 Du        
   9692 ****       197.2500   7.2500  44.7500 Du        
   9693 ****       197.2500   7.2500  45.0000 Du        
   9694 ****       197.2500   7.2500  45.2500 Du        
   9695 ****       197.2500   7.2500  45.5000 Du        
   9696 ****       197.2500   7.2500  45.7500 Du        
   9697 ****       197.2500   7.2500  46.0000 Du        
   9698 ****       197.2500   7.5000  44.0000 Du        
   9699 ****       197.2500   7.5000  44.2500 Du        
   9700 ****       197.2500   7.5000  44.5000 Du        
   9701 ****       197.2500   7.5000  44.7500 Du        
   9702 ****       197.2500   7.5000  45.0000 Du        
   9703 ****       197.2500   7.5000  45.2500 Du        
   9704 ****       197.2500   7.5000  45.5000 Du        
   9705 ****       197.2500   7.5000  45.7500 Du        
   9706 ****       197.2500   7.5000  46.0000 Du        
   9707 ****       197.2500   7.7500  44.0000 Du        
   9708 ****       197.2500   7.7500  44.2500 Du        
   9709 ****       197.2500   7.7500  44.5000 Du        
   9710 ****       197.2500   7.7500  44.7500 Du        
   9711 ****       197.2500   7.7500  45.0000 Du        
   9712 ****       197.2500   7.7500  45.2500 Du        
   9713 ****       197.2500   7.7500  45.5000 Du        
   9714 ****       197.2500   7.7500  45.7500 Du        
   9715 ****       197.2500   7.7500  46.0000 Du        
   9716 ****       197.2500   8.0000  43.7500 Du        
   9717 ****       197.2500   8.0000  44.0000 Du        
   9718 ****       197.2500   8.0000  44.2500 Du        
   9719 ****       197.2500   8.0000  44.5000 Du        
   9720 ****       197.2500   8.0000  44.7500 Du        
   9721 ****       197.2500   8.0000  45.0000 Du        
   9722 ****       197.2500   8.0000  45.2500 Du        
   9723 ****       197.2500   8.0000  45.5000 Du        
   9724 ****       197.2500   8.0000  45.7500 Du        
   9725 ****       197.2500   8.0000  46.0000 Du        
   9726 ****       197.2500   8.2500  43.7500 Du        
   9727 ****       197.2500   8.2500  44.0000 Du        
   9728 ****       197.2500   8.2500  44.2500 Du        
   9729 ****       197.2500   8.2500  44.5000 Du        
   9730 ****       197.2500   8.2500  44.7500 Du        
   9731 ****       197.2500   8.2500  45.0000 Du        
   9732 ****       197.2500   8.2500  45.2500 Du        
   9733 ****       197.2500   8.2500  45.5000 Du        
   9734 ****       197.2500   8.2500  45.7500 Du        
   9735 ****       197.2500   8.5000  43.5000 Du        
   9736 ****       197.2500   8.5000  43.7500 Du        
   9737 ****       197.2500   8.5000  44.0000 Du        
   9738 ****       197.2500   8.5000  44.2500 Du        
   9739 ****       197.2500   8.5000  44.5000 Du        
   9740 ****       197.2500   8.5000  44.7500 Du        
   9741 ****       197.2500   8.5000  45.0000 Du        
   9742 ****       197.2500   8.5000  45.2500 Du        
   9743 ****       197.2500   8.5000  45.5000 Du        
   9744 ****       197.2500   8.5000  45.7500 Du        
   9745 ****       197.2500   8.7500  43.2500 Du        
   9746 ****       197.2500   8.7500  43.5000 Du        
   9747 ****       197.2500   8.7500  43.7500 Du        
   9748 ****       197.2500   8.7500  44.0000 Du        
   9749 ****       197.2500   8.7500  44.2500 Du        
   9750 ****       197.2500   8.7500  44.5000 Du        
   9751 ****       197.2500   8.7500  44.7500 Du        
   9752 ****       197.2500   8.7500  45.0000 Du        
   9753 ****       197.2500   8.7500  45.2500 Du        
   9754 ****       197.2500   8.7500  45.5000 Du        
   9755 ****       197.2500   9.0000  43.0000 Du        
   9756 ****       197.2500   9.0000  43.2500 Du        
   9757 ****       197.2500   9.0000  43.5000 Du        
   9758 ****       197.2500   9.0000  43.7500 Du        
   9759 ****       197.2500   9.0000  44.0000 Du        
   9760 ****       197.2500   9.0000  44.2500 Du        
   9761 ****       197.2500   9.0000  44.5000 Du        
   9762 ****       197.2500   9.0000  44.7500 Du        
   9763 ****       197.2500   9.0000  45.0000 Du        
   9764 ****       197.2500   9.0000  45.2500 Du        
   9765 ****       197.2500   9.2500  42.7500 Du        
   9766 ****       197.2500   9.2500  43.0000 Du        
   9767 ****       197.2500   9.2500  43.2500 Du        
   9768 ****       197.2500   9.2500  43.5000 Du        
   9769 ****       197.2500   9.2500  43.7500 Du        
   9770 ****       197.2500   9.2500  44.0000 Du        
   9771 ****       197.2500   9.2500  44.2500 Du        
   9772 ****       197.2500   9.2500  44.5000 Du        
   9773 ****       197.2500   9.2500  44.7500 Du        
   9774 ****       197.2500   9.2500  45.0000 Du        
   9775 ****       197.2500   9.5000  42.5000 Du        
   9776 ****       197.2500   9.5000  42.7500 Du        
   9777 ****       197.2500   9.5000  43.0000 Du        
   9778 ****       197.2500   9.5000  43.2500 Du        
   9779 ****       197.2500   9.5000  43.5000 Du        
   9780 ****       197.2500   9.5000  43.7500 Du        
   9781 ****       197.2500   9.5000  44.0000 Du        
   9782 ****       197.2500   9.5000  44.2500 Du        
   9783 ****       197.2500   9.5000  44.5000 Du        
   9784 ****       197.2500   9.5000  44.7500 Du        
   9785 ****       197.2500   9.7500  42.2500 Du        
   9786 ****       197.2500   9.7500  42.5000 Du        
   9787 ****       197.2500   9.7500  42.7500 Du        
   9788 ****       197.2500   9.7500  43.0000 Du        
   9789 ****       197.2500   9.7500  43.2500 Du        
   9790 ****       197.2500   9.7500  43.5000 Du        
   9791 ****       197.2500   9.7500  43.7500 Du        
   9792 ****       197.2500   9.7500  44.0000 Du        
   9793 ****       197.2500   9.7500  44.2500 Du        
   9794 ****       197.2500   9.7500  44.5000 Du        
   9795 ****       197.2500   9.7500  44.7500 Du        
   9796 ****       197.2500  10.0000  42.0000 Du        
   9797 ****       197.2500  10.0000  42.2500 Du        
   9798 ****       197.2500  10.0000  42.5000 Du        
   9799 ****       197.2500  10.0000  42.7500 Du        
   9800 ****       197.2500  10.0000  43.0000 Du        
   9801 ****       197.2500  10.0000  43.2500 Du        
   9802 ****       197.2500  10.0000  43.5000 Du        
   9803 ****       197.2500  10.0000  43.7500 Du        
   9804 ****       197.2500  10.0000  44.0000 Du        
   9805 ****       197.2500  10.0000  44.2500 Du        
   9806 ****       197.2500  10.0000  44.5000 Du        
   9807 ****       197.2500  10.2500  42.0000 Du        
   9808 ****       197.2500  10.2500  42.2500 Du        
   9809 ****       197.2500  10.2500  42.5000 Du        
   9810 ****       197.2500  10.2500  42.7500 Du        
   9811 ****       197.2500  10.2500  43.0000 Du        
   9812 ****       197.2500  10.2500  43.2500 Du        
   9813 ****       197.2500  10.2500  43.5000 Du        
   9814 ****       197.2500  10.2500  43.7500 Du        
   9815 ****       197.2500  10.2500  44.0000 Du        
   9816 ****       197.2500  10.2500  44.2500 Du        
   9817 ****       197.2500  10.2500  44.5000 Du        
   9818 ****       197.2500  10.5000  42.0000 Du        
   9819 ****       197.2500  10.5000  42.2500 Du        
   9820 ****       197.2500  10.5000  42.5000 Du        
   9821 ****       197.2500  10.5000  42.7500 Du        
   9822 ****       197.2500  10.5000  43.0000 Du        
   9823 ****       197.2500  10.5000  43.2500 Du        
   9824 ****       197.2500  10.5000  43.5000 Du        
   9825 ****       197.2500  10.5000  43.7500 Du        
   9826 ****       197.2500  10.5000  44.0000 Du        
   9827 ****       197.2500  10.5000  44.2500 Du        
   9828 ****       197.2500  10.7500  42.5000 Du        
   9829 ****       197.2500  10.7500  42.7500 Du        
   9830 ****       197.2500  10.7500  43.0000 Du        
   9831 ****       197.2500  10.7500  43.2500 Du        
   9832 ****       197.2500  10.7500  43.5000 Du        
   9833 ****       197.2500  10.7500  43.7500 Du        
   9834 ****       197.2500  10.7500  44.0000 Du        
   9835 ****       197.5000   6.5000  44.5000 Du        
   9836 ****       197.5000   6.5000  44.7500 Du        
   9837 ****       197.5000   6.7500  44.2500 Du        
   9838 ****       197.5000   6.7500  44.5000 Du        
   9839 ****       197.5000   6.7500  44.7500 Du        
   9840 ****       197.5000   6.7500  45.0000 Du        
   9841 ****       197.5000   7.0000  44.0000 Du        
   9842 ****       197.5000   7.0000  44.2500 Du        
   9843 ****       197.5000   7.0000  44.5000 Du        
   9844 ****       197.5000   7.0000  44.7500 Du        
   9845 ****       197.5000   7.0000  45.0000 Du        
   9846 ****       197.5000   7.0000  45.2500 Du        
   9847 ****       197.5000   7.0000  45.5000 Du        
   9848 ****       197.5000   7.2500  44.0000 Du        
   9849 ****       197.5000   7.2500  44.2500 Du        
   9850 ****       197.5000   7.2500  44.5000 Du        
   9851 ****       197.5000   7.2500  44.7500 Du        
   9852 ****       197.5000   7.2500  45.0000 Du        
   9853 ****       197.5000   7.2500  45.2500 Du        
   9854 ****       197.5000   7.2500  45.5000 Du        
   9855 ****       197.5000   7.2500  45.7500 Du        
   9856 ****       197.5000   7.2500  46.0000 Du        
   9857 ****       197.5000   7.5000  44.0000 Du        
   9858 ****       197.5000   7.5000  44.2500 Du        
   9859 ****       197.5000   7.5000  44.5000 Du        
   9860 ****       197.5000   7.5000  44.7500 Du        
   9861 ****       197.5000   7.5000  45.0000 Du        
   9862 ****       197.5000   7.5000  45.2500 Du        
   9863 ****       197.5000   7.5000  45.5000 Du        
   9864 ****       197.5000   7.5000  45.7500 Du        
   9865 ****       197.5000   7.5000  46.0000 Du        
   9866 ****       197.5000   7.7500  44.0000 Du        
   9867 ****       197.5000   7.7500  44.2500 Du        
   9868 ****       197.5000   7.7500  44.5000 Du        
   9869 ****       197.5000   7.7500  44.7500 Du        
   9870 ****       197.5000   7.7500  45.0000 Du        
   9871 ****       197.5000   7.7500  45.2500 Du        
   9872 ****       197.5000   7.7500  45.5000 Du        
   9873 ****       197.5000   7.7500  45.7500 Du        
   9874 ****       197.5000   7.7500  46.0000 Du        
   9875 ****       197.5000   8.0000  43.7500 Du        
   9876 ****       197.5000   8.0000  44.0000 Du        
   9877 ****       197.5000   8.0000  44.2500 Du        
   9878 ****       197.5000   8.0000  44.5000 Du        
   9879 ****       197.5000   8.0000  44.7500 Du        
   9880 ****       197.5000   8.0000  45.0000 Du        
   9881 ****       197.5000   8.0000  45.2500 Du        
   9882 ****       197.5000   8.0000  45.5000 Du        
   9883 ****       197.5000   8.0000  45.7500 Du        
   9884 ****       197.5000   8.0000  46.0000 Du        
   9885 ****       197.5000   8.2500  43.7500 Du        
   9886 ****       197.5000   8.2500  44.0000 Du        
   9887 ****       197.5000   8.2500  44.2500 Du        
   9888 ****       197.5000   8.2500  44.5000 Du        
   9889 ****       197.5000   8.2500  44.7500 Du        
   9890 ****       197.5000   8.2500  45.0000 Du        
   9891 ****       197.5000   8.2500  45.2500 Du        
   9892 ****       197.5000   8.2500  45.5000 Du        
   9893 ****       197.5000   8.2500  45.7500 Du        
   9894 ****       197.5000   8.5000  43.5000 Du        
   9895 ****       197.5000   8.5000  43.7500 Du        
   9896 ****       197.5000   8.5000  44.0000 Du        
   9897 ****       197.5000   8.5000  44.2500 Du        
   9898 ****       197.5000   8.5000  44.5000 Du        
   9899 ****       197.5000   8.5000  44.7500 Du        
   9900 ****       197.5000   8.5000  45.0000 Du        
   9901 ****       197.5000   8.5000  45.2500 Du        
   9902 ****       197.5000   8.5000  45.5000 Du        
   9903 ****       197.5000   8.5000  45.7500 Du        
   9904 ****       197.5000   8.7500  43.2500 Du        
   9905 ****       197.5000   8.7500  43.5000 Du        
   9906 ****       197.5000   8.7500  43.7500 Du        
   9907 ****       197.5000   8.7500  44.0000 Du        
   9908 ****       197.5000   8.7500  44.2500 Du        
   9909 ****       197.5000   8.7500  44.5000 Du        
   9910 ****       197.5000   8.7500  44.7500 Du        
   9911 ****       197.5000   8.7500  45.0000 Du        
   9912 ****       197.5000   8.7500  45.2500 Du        
   9913 ****       197.5000   8.7500  45.5000 Du        
   9914 ****       197.5000   9.0000  43.0000 Du        
   9915 ****       197.5000   9.0000  43.2500 Du        
   9916 ****       197.5000   9.0000  43.5000 Du        
   9917 ****       197.5000   9.0000  43.7500 Du        
   9918 ****       197.5000   9.0000  44.0000 Du        
   9919 ****       197.5000   9.0000  44.2500 Du        
   9920 ****       197.5000   9.0000  44.5000 Du        
   9921 ****       197.5000   9.0000  44.7500 Du        
   9922 ****       197.5000   9.0000  45.0000 Du        
   9923 ****       197.5000   9.0000  45.2500 Du        
   9924 ****       197.5000   9.2500  42.7500 Du        
   9925 ****       197.5000   9.2500  43.0000 Du        
   9926 ****       197.5000   9.2500  43.2500 Du        
   9927 ****       197.5000   9.2500  43.5000 Du        
   9928 ****       197.5000   9.2500  43.7500 Du        
   9929 ****       197.5000   9.2500  44.0000 Du        
   9930 ****       197.5000   9.2500  44.2500 Du        
   9931 ****       197.5000   9.2500  44.5000 Du        
   9932 ****       197.5000   9.2500  44.7500 Du        
   9933 ****       197.5000   9.2500  45.0000 Du        
   9934 ****       197.5000   9.5000  42.5000 Du        
   9935 ****       197.5000   9.5000  42.7500 Du        
   9936 ****       197.5000   9.5000  43.0000 Du        
   9937 ****       197.5000   9.5000  43.2500 Du        
   9938 ****       197.5000   9.5000  43.5000 Du        
   9939 ****       197.5000   9.5000  43.7500 Du        
   9940 ****       197.5000   9.5000  44.0000 Du        
   9941 ****       197.5000   9.5000  44.2500 Du        
   9942 ****       197.5000   9.5000  44.5000 Du        
   9943 ****       197.5000   9.5000  44.7500 Du        
   9944 ****       197.5000   9.7500  42.2500 Du        
   9945 ****       197.5000   9.7500  42.5000 Du        
   9946 ****       197.5000   9.7500  42.7500 Du        
   9947 ****       197.5000   9.7500  43.0000 Du        
   9948 ****       197.5000   9.7500  43.2500 Du        
   9949 ****       197.5000   9.7500  43.5000 Du        
   9950 ****       197.5000   9.7500  43.7500 Du        
   9951 ****       197.5000   9.7500  44.0000 Du        
   9952 ****       197.5000   9.7500  44.2500 Du        
   9953 ****       197.5000   9.7500  44.5000 Du        
   9954 ****       197.5000   9.7500  44.7500 Du        
   9955 ****       197.5000  10.0000  42.0000 Du        
   9956 ****       197.5000  10.0000  42.2500 Du        
   9957 ****       197.5000  10.0000  42.5000 Du        
   9958 ****       197.5000  10.0000  42.7500 Du        
   9959 ****       197.5000  10.0000  43.0000 Du        
   9960 ****       197.5000  10.0000  43.2500 Du        
   9961 ****       197.5000  10.0000  43.5000 Du        
   9962 ****       197.5000  10.0000  43.7500 Du        
   9963 ****       197.5000  10.0000  44.0000 Du        
   9964 ****       197.5000  10.0000  44.2500 Du        
   9965 ****       197.5000  10.0000  44.5000 Du        
   9966 ****       197.5000  10.2500  42.0000 Du        
   9967 ****       197.5000  10.2500  42.2500 Du        
   9968 ****       197.5000  10.2500  42.5000 Du        
   9969 ****       197.5000  10.2500  42.7500 Du        
   9970 ****       197.5000  10.2500  43.0000 Du        
   9971 ****       197.5000  10.2500  43.2500 Du        
   9972 ****       197.5000  10.2500  43.5000 Du        
   9973 ****       197.5000  10.2500  43.7500 Du        
   9974 ****       197.5000  10.2500  44.0000 Du        
   9975 ****       197.5000  10.2500  44.2500 Du        
   9976 ****       197.5000  10.5000  42.0000 Du        
   9977 ****       197.5000  10.5000  42.2500 Du        
   9978 ****       197.5000  10.5000  42.5000 Du        
   9979 ****       197.5000  10.5000  42.7500 Du        
   9980 ****       197.5000  10.5000  43.0000 Du        
   9981 ****       197.5000  10.5000  43.2500 Du        
   9982 ****       197.5000  10.5000  43.5000 Du        
   9983 ****       197.5000  10.5000  43.7500 Du        
   9984 ****       197.5000  10.5000  44.0000 Du        
   9985 ****       197.5000  10.5000  44.2500 Du        
   9986 ****       197.5000  10.7500  42.0000 Du        
   9987 ****       197.5000  10.7500  42.2500 Du        
   9988 ****       197.5000  10.7500  42.5000 Du        
   9989 ****       197.5000  10.7500  42.7500 Du        
   9990 ****       197.5000  10.7500  43.0000 Du        
   9991 ****       197.5000  10.7500  43.2500 Du        
   9992 ****       197.5000  10.7500  43.5000 Du        
   9993 ****       197.5000  10.7500  43.7500 Du        
   9994 ****       197.5000  10.7500  44.0000 Du        
   9995 ****       197.7500   6.5000  44.2500 Du        
   9996 ****       197.7500   6.5000  44.5000 Du        
   9997 ****       197.7500   6.5000  44.7500 Du        
   9998 ****       197.7500   6.7500  44.0000 Du        
   9999 ****       197.7500   6.7500  44.2500 Du        
  10000 ****       197.7500   6.7500  44.5000 Du        
  10001 ****       197.7500   6.7500  44.7500 Du        
  10002 ****       197.7500   6.7500  45.0000 Du        
  10003 ****       197.7500   7.0000  44.0000 Du        
  10004 ****       197.7500   7.0000  44.2500 Du        
  10005 ****       197.7500   7.0000  44.5000 Du        
  10006 ****       197.7500   7.0000  44.7500 Du        
  10007 ****       197.7500   7.0000  45.0000 Du        
  10008 ****       197.7500   7.0000  45.2500 Du        
  10009 ****       197.7500   7.0000  45.5000 Du        
  10010 ****       197.7500   7.2500  44.0000 Du        
  10011 ****       197.7500   7.2500  44.2500 Du        
  10012 ****       197.7500   7.2500  44.5000 Du        
  10013 ****       197.7500   7.2500  44.7500 Du        
  10014 ****       197.7500   7.2500  45.0000 Du        
  10015 ****       197.7500   7.2500  45.2500 Du        
  10016 ****       197.7500   7.2500  45.5000 Du        
  10017 ****       197.7500   7.2500  45.7500 Du        
  10018 ****       197.7500   7.5000  44.0000 Du        
  10019 ****       197.7500   7.5000  44.2500 Du        
  10020 ****       197.7500   7.5000  44.5000 Du        
  10021 ****       197.7500   7.5000  44.7500 Du        
  10022 ****       197.7500   7.5000  45.0000 Du        
  10023 ****       197.7500   7.5000  45.2500 Du        
  10024 ****       197.7500   7.5000  45.5000 Du        
  10025 ****       197.7500   7.5000  45.7500 Du        
  10026 ****       197.7500   7.5000  46.0000 Du        
  10027 ****       197.7500   7.7500  43.7500 Du        
  10028 ****       197.7500   7.7500  44.0000 Du        
  10029 ****       197.7500   7.7500  44.2500 Du        
  10030 ****       197.7500   7.7500  44.5000 Du        
  10031 ****       197.7500   7.7500  44.7500 Du        
  10032 ****       197.7500   7.7500  45.0000 Du        
  10033 ****       197.7500   7.7500  45.2500 Du        
  10034 ****       197.7500   7.7500  45.5000 Du        
  10035 ****       197.7500   7.7500  45.7500 Du        
  10036 ****       197.7500   7.7500  46.0000 Du        
  10037 ****       197.7500   8.0000  43.7500 Du        
  10038 ****       197.7500   8.0000  44.0000 Du        
  10039 ****       197.7500   8.0000  44.2500 Du        
  10040 ****       197.7500   8.0000  44.5000 Du        
  10041 ****       197.7500   8.0000  44.7500 Du        
  10042 ****       197.7500   8.0000  45.0000 Du        
  10043 ****       197.7500   8.0000  45.2500 Du        
  10044 ****       197.7500   8.0000  45.5000 Du        
  10045 ****       197.7500   8.0000  45.7500 Du        
  10046 ****       197.7500   8.0000  46.0000 Du        
  10047 ****       197.7500   8.2500  43.7500 Du        
  10048 ****       197.7500   8.2500  44.0000 Du        
  10049 ****       197.7500   8.2500  44.2500 Du        
  10050 ****       197.7500   8.2500  44.5000 Du        
  10051 ****       197.7500   8.2500  44.7500 Du        
  10052 ****       197.7500   8.2500  45.0000 Du        
  10053 ****       197.7500   8.2500  45.2500 Du        
  10054 ****       197.7500   8.2500  45.5000 Du        
  10055 ****       197.7500   8.2500  45.7500 Du        
  10056 ****       197.7500   8.5000  43.5000 Du        
  10057 ****       197.7500   8.5000  43.7500 Du        
  10058 ****       197.7500   8.5000  44.0000 Du        
  10059 ****       197.7500   8.5000  44.2500 Du        
  10060 ****       197.7500   8.5000  44.5000 Du        
  10061 ****       197.7500   8.5000  44.7500 Du        
  10062 ****       197.7500   8.5000  45.0000 Du        
  10063 ****       197.7500   8.5000  45.2500 Du        
  10064 ****       197.7500   8.5000  45.5000 Du        
  10065 ****       197.7500   8.5000  45.7500 Du        
  10066 ****       197.7500   8.7500  43.2500 Du        
  10067 ****       197.7500   8.7500  43.5000 Du        
  10068 ****       197.7500   8.7500  43.7500 Du        
  10069 ****       197.7500   8.7500  44.0000 Du        
  10070 ****       197.7500   8.7500  44.2500 Du        
  10071 ****       197.7500   8.7500  44.5000 Du        
  10072 ****       197.7500   8.7500  44.7500 Du        
  10073 ****       197.7500   8.7500  45.0000 Du        
  10074 ****       197.7500   8.7500  45.2500 Du        
  10075 ****       197.7500   8.7500  45.5000 Du        
  10076 ****       197.7500   9.0000  43.0000 Du        
  10077 ****       197.7500   9.0000  43.2500 Du        
  10078 ****       197.7500   9.0000  43.5000 Du        
  10079 ****       197.7500   9.0000  43.7500 Du        
  10080 ****       197.7500   9.0000  44.0000 Du        
  10081 ****       197.7500   9.0000  44.2500 Du        
  10082 ****       197.7500   9.0000  44.5000 Du        
  10083 ****       197.7500   9.0000  44.7500 Du        
  10084 ****       197.7500   9.0000  45.0000 Du        
  10085 ****       197.7500   9.0000  45.2500 Du        
  10086 ****       197.7500   9.0000  45.5000 Du        
  10087 ****       197.7500   9.2500  42.7500 Du        
  10088 ****       197.7500   9.2500  43.0000 Du        
  10089 ****       197.7500   9.2500  43.2500 Du        
  10090 ****       197.7500   9.2500  43.5000 Du        
  10091 ****       197.7500   9.2500  43.7500 Du        
  10092 ****       197.7500   9.2500  44.0000 Du        
  10093 ****       197.7500   9.2500  44.2500 Du        
  10094 ****       197.7500   9.2500  44.5000 Du        
  10095 ****       197.7500   9.2500  44.7500 Du        
  10096 ****       197.7500   9.2500  45.0000 Du        
  10097 ****       197.7500   9.2500  45.2500 Du        
  10098 ****       197.7500   9.5000  42.5000 Du        
  10099 ****       197.7500   9.5000  42.7500 Du        
  10100 ****       197.7500   9.5000  43.0000 Du        
  10101 ****       197.7500   9.5000  43.2500 Du        
  10102 ****       197.7500   9.5000  43.5000 Du        
  10103 ****       197.7500   9.5000  43.7500 Du        
  10104 ****       197.7500   9.5000  44.0000 Du        
  10105 ****       197.7500   9.5000  44.2500 Du        
  10106 ****       197.7500   9.5000  44.5000 Du        
  10107 ****       197.7500   9.5000  44.7500 Du        
  10108 ****       197.7500   9.5000  45.0000 Du        
  10109 ****       197.7500   9.7500  42.2500 Du        
  10110 ****       197.7500   9.7500  42.5000 Du        
  10111 ****       197.7500   9.7500  42.7500 Du        
  10112 ****       197.7500   9.7500  43.0000 Du        
  10113 ****       197.7500   9.7500  43.2500 Du        
  10114 ****       197.7500   9.7500  43.5000 Du        
  10115 ****       197.7500   9.7500  43.7500 Du        
  10116 ****       197.7500   9.7500  44.0000 Du        
  10117 ****       197.7500   9.7500  44.2500 Du        
  10118 ****       197.7500   9.7500  44.5000 Du        
  10119 ****       197.7500   9.7500  44.7500 Du        
  10120 ****       197.7500  10.0000  42.0000 Du        
  10121 ****       197.7500  10.0000  42.2500 Du        
  10122 ****       197.7500  10.0000  42.5000 Du        
  10123 ****       197.7500  10.0000  42.7500 Du        
  10124 ****       197.7500  10.0000  43.0000 Du        
  10125 ****       197.7500  10.0000  43.2500 Du        
  10126 ****       197.7500  10.0000  43.5000 Du        
  10127 ****       197.7500  10.0000  43.7500 Du        
  10128 ****       197.7500  10.0000  44.0000 Du        
  10129 ****       197.7500  10.0000  44.2500 Du        
  10130 ****       197.7500  10.0000  44.5000 Du        
  10131 ****       197.7500  10.2500  41.7500 Du        
  10132 ****       197.7500  10.2500  42.0000 Du        
  10133 ****       197.7500  10.2500  42.2500 Du        
  10134 ****       197.7500  10.2500  42.5000 Du        
  10135 ****       197.7500  10.2500  42.7500 Du        
  10136 ****       197.7500  10.2500  43.0000 Du        
  10137 ****       197.7500  10.2500  43.2500 Du        
  10138 ****       197.7500  10.2500  43.5000 Du        
  10139 ****       197.7500  10.2500  43.7500 Du        
  10140 ****       197.7500  10.2500  44.0000 Du        
  10141 ****       197.7500  10.2500  44.2500 Du        
  10142 ****       197.7500  10.2500  44.5000 Du        
  10143 ****       197.7500  10.5000  41.7500 Du        
  10144 ****       197.7500  10.5000  42.0000 Du        
  10145 ****       197.7500  10.5000  42.2500 Du        
  10146 ****       197.7500  10.5000  42.5000 Du        
  10147 ****       197.7500  10.5000  42.7500 Du        
  10148 ****       197.7500  10.5000  43.0000 Du        
  10149 ****       197.7500  10.5000  43.2500 Du        
  10150 ****       197.7500  10.5000  43.5000 Du        
  10151 ****       197.7500  10.5000  43.7500 Du        
  10152 ****       197.7500  10.5000  44.0000 Du        
  10153 ****       197.7500  10.5000  44.2500 Du        
  10154 ****       197.7500  10.7500  41.7500 Du        
  10155 ****       197.7500  10.7500  42.0000 Du        
  10156 ****       197.7500  10.7500  42.2500 Du        
  10157 ****       197.7500  10.7500  42.5000 Du        
  10158 ****       197.7500  10.7500  42.7500 Du        
  10159 ****       197.7500  10.7500  43.0000 Du        
  10160 ****       197.7500  10.7500  43.2500 Du        
  10161 ****       197.7500  10.7500  43.5000 Du        
  10162 ****       197.7500  10.7500  43.7500 Du        
  10163 ****       197.7500  10.7500  44.0000 Du        
  10164 ****       197.7500  10.7500  44.2500 Du        
  10165 ****       197.7500  11.0000  41.7500 Du        
  10166 ****       197.7500  11.0000  42.0000 Du        
  10167 ****       197.7500  11.0000  42.2500 Du        
  10168 ****       197.7500  11.0000  42.5000 Du        
  10169 ****       197.7500  11.0000  42.7500 Du        
  10170 ****       197.7500  11.0000  43.0000 Du        
  10171 ****       197.7500  11.0000  43.2500 Du        
  10172 ****       197.7500  11.0000  43.5000 Du        
  10173 ****       197.7500  11.0000  43.7500 Du        
  10174 ****       197.7500  11.0000  44.0000 Du        
