#       Name:                CT1002167954
#       Creating user name   hitesit
#       Creation time:       Sun Apr 16 22:56:38 2023


#       File generated by GOLD software.
#

@<TRIPOS>MOLECULE
CT1002167954|ligand_prepared|mol2|1|dock6
    29    30     1
SMALL
NO_CHARGES


@<TRIPOS>ATOM
      1 C1         186.9621  13.3573  49.2832 C.3            1 RES1               0.0000
      2 C2         187.2936  12.1905  48.3306 C.ar           1 RES1               0.0000
      3 C3         186.3333  12.7315  50.5246 C.2            1 RES1               0.0000
      4 C4         188.2790  14.0783  49.5490 C.2            1 RES1               0.0000
      5 C5         185.9667  14.3828  48.6923 C.3            1 RES1               0.0000
      6 C6         186.2786  11.5054  47.6693 C.ar           1 RES1               0.0000
      7 C7         188.6072  11.7902  48.1013 C.ar           1 RES1               0.0000
      8 N8         187.0885  12.6828  51.6592 N.am           1 RES1               0.0000
      9 O9         185.2064  12.2522  50.4976 O.2            1 RES1               0.0000
     10 N10        188.7807  14.0497  50.8238 N.am           1 RES1               0.0000
     11 O11        188.8951  14.6568  48.6624 O.2            1 RES1               0.0000
     12 C12        185.8267  15.6495  49.5219 C.3            1 RES1               0.0000
     13 C13        186.5666  10.4599  46.8077 C.ar           1 RES1               0.0000
     14 C14        188.8931  10.7442  47.2395 C.ar           1 RES1               0.0000
     15 C15        188.2607  13.3587  51.8842 C.2            1 RES1               0.0000
     16 C16        187.8739  10.0789  46.5919 C.ar           1 RES1               0.0000
     17 O17        188.7993  13.3373  52.9872 O.2            1 RES1               0.0000
     18 H18        186.2991  14.6565  47.6833 H              1 RES1               0.0000
     19 H19        184.9817  13.9082  48.6037 H              1 RES1               0.0000
     20 H20        185.2437  11.7895  47.8285 H              1 RES1               0.0000
     21 H21        189.4251  12.2984  48.6008 H              1 RES1               0.0000
     22 H22        186.7504  12.0889  52.4097 H              1 RES1               0.0000
     23 H23        189.6194  14.5942  50.9986 H              1 RES1               0.0000
     24 H24        185.1169  16.3346  49.0630 H              1 RES1               0.0000
     25 H25        185.4736  15.4169  50.5244 H              1 RES1               0.0000
     26 H26        186.7831  16.1608  49.6095 H              1 RES1               0.0000
     27 H27        185.7608   9.9386  46.3016 H              1 RES1               0.0000
     28 H28        189.9233  10.4473  47.0732 H              1 RES1               0.0000
     29 H29        188.0993   9.2601  45.9167 H              1 RES1               0.0000
@<TRIPOS>BOND
    1    1    2 1     
    2    1    3 1     
    3    1    4 1     
    4    1    5 1     
    5    2    6 ar    
    6    2    7 ar    
    7    3    8 1     
    8    3    9 2     
    9    4   10 1     
   10    4   11 2     
   11    5   12 1     
   12    5   18 1     
   13    5   19 1     
   14    6   13 ar    
   15    6   20 1     
   16    7   14 ar    
   17    7   21 1     
   18    8   15 1     
   19    8   22 1     
   20   10   15 1     
   21   10   23 1     
   22   12   24 1     
   23   12   25 1     
   24   12   26 1     
   25   13   16 ar    
   26   13   27 1     
   27   14   16 ar    
   28   14   28 1     
   29   15   17 2     
   30   16   29 1     
@<TRIPOS>SUBSTRUCTURE
      1 RES1           1
@<TRIPOS>SET
DONOR_HYDROGENS      STATIC     ATOMS    <user>   **** ""
2 22 23
ATOM$RED        STATIC     ATOMS    COLORGROUP SYSTEM
2 22 23
@<TRIPOS>COMMENT
> <Gold.Version>
2022.3.0

> <Gold.Id.Protein>
unknown|4v3u_clean|pdb

> <Gold.Protein.RotatedTorsions>
[  549  517  516  515 ] final  172.91 input   59.99 | X-H torsion
[ 2542 2515 2516 2517 ] final  -53.25 input  113.65 | X-H torsion
[ 2618 2585 2586 2587 ] final   66.55 input   46.31 | X-H torsion
[ 26064 26031 26030 26028 ] final    6.50 input   59.98 | X-H torsion
[ 27154 27102 27101 27097 ] final -111.58 input   60.00 | X-H torsion
[ 7430 7405 7406 7407 ] final  -87.45 input   81.33 | X-H torsion
[ 7467 7446 7447 7448 ] final -150.66 input   92.53 | X-H torsion
[ 7519 7507 7508 7509 ] final -118.61 input   89.47 | X-H torsion
[ 17183 17168 17169 17170 ] final  117.64 input   55.70 | X-H torsion
[ 17231 17210 17211 17212 ] final  -94.25 input  101.26 | X-H torsion
[ 18283 18265 18266 18267 ] final   96.12 input   32.88 | X-H torsion
[ 18322 18307 18308 18309 ] final  -81.71 input   53.35 | X-H torsion
[ 18397 18345 18346 18347 ] final   10.94 input   36.30 | X-H torsion
[ 18484 18439 18440 18441 ] final  115.03 input   98.15 | X-H torsion
[ 18552 18519 18520 18521 ] final  -53.35 input   94.34 | X-H torsion
[ 17291 17273 17274 17275 ] final  -53.72 input   50.38 | X-H torsion
[ 18492 18450 18449 18447 ] final  -29.93 input   59.99 | X-H torsion
[ 18223 18190 18191 18192 ] final -130.04 input   49.82 | X-H torsion
[ 18287 18270 18269 18266 ] final  -77.81 input   60.01 | X-H torsion
[ 10108 10086 10085 10082 ] final -141.18 input   60.00 | X-H torsion
[ 16975 16942 16941 16939 ] final  173.74 input   60.00 | X-H torsion
[ 11483 11448 11449 11450 ] final  158.20 input   47.08 | X-H torsion
[ 11550 11515 11516 11517 ] final  138.49 input  121.60 | X-H torsion
[ 11626 11591 11592 11593 ] final -137.02 input   57.19 | X-H torsion
[ 11428 11406 11405 11402 ] final  -38.42 input   60.00 | X-H torsion
[ 27156 27104 27103 27101 ] final  177.98 input   60.02 | X-H torsion
[ 10144 10124 10125 10126 ] final   39.90 input   16.22 | X-H torsion
[ 17343 17319 17320 17321 ] final -111.97 input   65.41 | X-H torsion
[ 27203 2518 2517 2516 ] final  -87.15 input    0.00 | X-H torsion
[ 27224 7317 7316 7315 ] final  -57.68 input    0.00 | X-H torsion
[ 27227 7408 7407 7406 ] final    8.29 input   -0.00 | X-H torsion
[ 27232 17117 17116 17115 ] final  -28.08 input    0.00 | X-H torsion
[ 27236 18193 18192 18191 ] final  -56.46 input    0.00 | X-H torsion
[ 27239 18268 18267 18266 ] final   94.02 input    0.00 | X-H torsion
[ 27242 18310 18309 18308 ] final -153.38 input   -0.00 | X-H torsion
[ 27245 18348 18347 18346 ] final -132.37 input    0.00 | X-H torsion
[ 27253 17171 17170 17169 ] final    9.28 input   -0.00 | X-H torsion
[ 27255 17213 17212 17211 ] final  -74.71 input    0.00 | X-H torsion
[ 27257 17042 17041 17040 ] final -166.31 input    0.00 | X-H torsion
[ 27267 10127 10126 10125 ] final  132.64 input   -0.00 | X-H torsion
[ 27269 11404 11403 11402 ] final  113.58 input    0.00 | X-H torsion
[ 27275 11594 11593 11592 ] final  167.00 input   -0.00 | X-H torsion
[ 27284 18675 18674 18673 ] final   -0.70 input    0.00 | X-H torsion

> <Gold.Protein.ActiveResidues>
 LYS309  TRP311  MET341  HIS342  TRP414  ALA417  ARG419  CYS420  VAL421  GLY422 
 ARG423  SER462  ALA463  SER482  GLN483  LEU484  ILE485  ARG486  ALA502  TRP566 
 TYR567  LEU569  PRO570  ALA571  VAL572  SER573  ASN574  MET575  PHE589  SER590 
 GLY591  TRP592  TYR593  MET594  GLU597  ILE598  ARG601  ASP602  ASP605  ARG608 
 TRP683  HIS697  GLU699  TYR711  HEM750  H4B760 

> <Gold.Protein.RotatedAtoms>
  188.3592   24.4262   42.6349 H   0  0  0  0  0  0  0  0  0  0  0  0  # atno 549  bound_to 517 
  189.7740   24.1429   41.8197 H   0  0  0  0  0  0  0  0  0  0  0  0  # atno 550  bound_to 517 
  189.4373   23.3080   43.2108 H   0  0  0  0  0  0  0  0  0  0  0  0  # atno 551  bound_to 517 
  198.3177   19.4075   46.0870 H   0  0  0  0  0  0  0  0  0  0  0  0  # atno 2542 bound_to 2515
  196.7768   19.3520   43.5765 H   0  0  0  0  0  0  0  0  0  0  0  0  # atno 2618 bound_to 2585
  196.8629    7.1817   50.9618 H   0  0  0  0  0  0  0  0  0  0  0  0  # atno 7430 bound_to 7405
  196.2114    5.6290   53.3018 H   0  0  0  0  0  0  0  0  0  0  0  0  # atno 7467 bound_to 7446
  195.1236    2.9978   55.2800 H   0  0  0  0  0  0  0  0  0  0  0  0  # atno 7519 bound_to 7507
  190.4533   -3.7317   50.8137 H   0  0  0  0  0  0  0  0  0  0  0  0  # atno 10108 bound_to 10086
  187.2958   -3.9578   47.2463 H   0  0  0  0  0  0  0  0  0  0  0  0  # atno 10144 bound_to 10124
  181.6486   11.4371   42.4659 H   0  0  0  0  0  0  0  0  0  0  0  0  # atno 11428 bound_to 11406
  182.8935    9.2575   43.2969 H   0  0  0  0  0  0  0  0  0  0  0  0  # atno 11483 bound_to 11448
  181.9418    4.7365   43.5047 H   0  0  0  0  0  0  0  0  0  0  0  0  # atno 11550 bound_to 11515
  178.6171    4.5982   44.1514 H   0  0  0  0  0  0  0  0  0  0  0  0  # atno 11626 bound_to 11591
  181.1296    8.2426   49.8034 H   0  0  0  0  0  0  0  0  0  0  0  0  # atno 16975 bound_to 16942
  182.4278    3.2562   47.8507 H   0  0  0  0  0  0  0  0  0  0  0  0  # atno 17183 bound_to 17168
  184.7342    4.3225   45.5507 H   0  0  0  0  0  0  0  0  0  0  0  0  # atno 17231 bound_to 17210
  186.6425    5.7877   42.2891 H   0  0  0  0  0  0  0  0  0  0  0  0  # atno 17291 bound_to 17273
  186.0511    6.2721   39.6597 H   0  0  0  0  0  0  0  0  0  0  0  0  # atno 17343 bound_to 17319
  186.8289    0.3265   41.8886 H   0  0  0  0  0  0  0  0  0  0  0  0  # atno 18223 bound_to 18190
  186.4838   -1.2762   45.5168 H   0  0  0  0  0  0  0  0  0  0  0  0  # atno 18283 bound_to 18265
  184.7593   -2.1856   46.2528 H   0  0  0  0  0  0  0  0  0  0  0  0  # atno 18287 bound_to 18270
  186.4092   -0.9124   49.0940 H   0  0  0  0  0  0  0  0  0  0  0  0  # atno 18322 bound_to 18307
  187.6497    0.1803   53.0297 H   0  0  0  0  0  0  0  0  0  0  0  0  # atno 18397 bound_to 18345
  184.3610    1.6039   55.4554 H   0  0  0  0  0  0  0  0  0  0  0  0  # atno 18484 bound_to 18439
  182.4331    8.1738   52.1931 H   0  0  0  0  0  0  0  0  0  0  0  0  # atno 18492 bound_to 18450
  186.2919    4.0965   57.2025 H   0  0  0  0  0  0  0  0  0  0  0  0  # atno 18552 bound_to 18519
  193.2789   12.1448   45.4771 H   0  0  0  0  0  0  0  0  0  0  0  0  # atno 26064 bound_to 26031
  192.3408   20.0973   51.3490 H   0  0  0  0  0  0  0  0  0  0  0  0  # atno 27154 bound_to 27102
  197.3755   19.9835   50.8265 H   0  0  0  0  0  0  0  0  0  0  0  0  # atno 27156 bound_to 27104
  196.8589   20.3331   46.3389 LP  0  0  0  0  0  0  0  0  0  0  0  0  # atno 27202 bound_to 2515
  197.7356   15.8786   44.6852 LP  0  0  0  0  0  0  0  0  0  0  0  0  # atno 27203 bound_to 2518
  196.0808   15.8580   44.1740 LP  0  0  0  0  0  0  0  0  0  0  0  0  # atno 27204 bound_to 2518
  197.2116   17.8396   44.3330 LP  0  0  0  0  0  0  0  0  0  0  0  0  # atno 27205 bound_to 2585
  194.1111   13.5428   45.4553 LP  0  0  0  0  0  0  0  0  0  0  0  0  # atno 27209 bound_to 26031
  194.9056   12.1161   45.4578 LP  0  0  0  0  0  0  0  0  0  0  0  0  # atno 27210 bound_to 26031
  193.4130   20.7860   52.3605 LP  0  0  0  0  0  0  0  0  0  0  0  0  # atno 27213 bound_to 27102
  192.7881   19.3171   52.7048 LP  0  0  0  0  0  0  0  0  0  0  0  0  # atno 27214 bound_to 27102
  196.0489    8.6339   52.2965 LP  0  0  0  0  0  0  0  0  0  0  0  0  # atno 27224 bound_to 7317
  194.8644    7.8070   51.3409 LP  0  0  0  0  0  0  0  0  0  0  0  0  # atno 27225 bound_to 7317
  197.4863    5.8324   50.0484 LP  0  0  0  0  0  0  0  0  0  0  0  0  # atno 27226 bound_to 7405
  198.1298    4.1611   51.9222 LP  0  0  0  0  0  0  0  0  0  0  0  0  # atno 27227 bound_to 7408
  197.8314    3.6946   53.5633 LP  0  0  0  0  0  0  0  0  0  0  0  0  # atno 27228 bound_to 7408
  194.8708    4.5041   53.3296 LP  0  0  0  0  0  0  0  0  0  0  0  0  # atno 27229 bound_to 7446
  194.9564    2.7976   53.5533 LP  0  0  0  0  0  0  0  0  0  0  0  0  # atno 27230 bound_to 7507
  185.5038    2.4858   49.6902 LP  0  0  0  0  0  0  0  0  0  0  0  0  # atno 27232 bound_to 17117
  185.1541    1.7722   48.1512 LP  0  0  0  0  0  0  0  0  0  0  0  0  # atno 27233 bound_to 17117
  183.9435    4.0284   48.2379 LP  0  0  0  0  0  0  0  0  0  0  0  0  # atno 27234 bound_to 17168
  186.2688    3.4825   45.6465 LP  0  0  0  0  0  0  0  0  0  0  0  0  # atno 27235 bound_to 17210
  187.0494    2.2872   45.1810 LP  0  0  0  0  0  0  0  0  0  0  0  0  # atno 27236 bound_to 18193
  185.5132    1.5764   45.5481 LP  0  0  0  0  0  0  0  0  0  0  0  0  # atno 27237 bound_to 18193
  187.7289   -0.0853   45.8007 LP  0  0  0  0  0  0  0  0  0  0  0  0  # atno 27238 bound_to 18265
  188.4852   -2.2186   48.1333 LP  0  0  0  0  0  0  0  0  0  0  0  0  # atno 27239 bound_to 18268
  186.9476   -2.9620   48.4217 LP  0  0  0  0  0  0  0  0  0  0  0  0  # atno 27240 bound_to 18268
  187.3324    0.5155   49.5039 LP  0  0  0  0  0  0  0  0  0  0  0  0  # atno 27241 bound_to 18307
  184.4964   -0.9391   52.2064 LP  0  0  0  0  0  0  0  0  0  0  0  0  # atno 27242 bound_to 18310
  185.1385   -2.1202   51.1143 LP  0  0  0  0  0  0  0  0  0  0  0  0  # atno 27243 bound_to 18310
  186.5762   -1.0743   52.4544 LP  0  0  0  0  0  0  0  0  0  0  0  0  # atno 27244 bound_to 18345
  187.8771    2.2228   55.2678 LP  0  0  0  0  0  0  0  0  0  0  0  0  # atno 27245 bound_to 18348
  187.7147    1.9210   53.5700 LP  0  0  0  0  0  0  0  0  0  0  0  0  # atno 27246 bound_to 18348
  186.0692    1.4868   55.0985 LP  0  0  0  0  0  0  0  0  0  0  0  0  # atno 27247 bound_to 18439
  187.8302    4.3877   56.4234 LP  0  0  0  0  0  0  0  0  0  0  0  0  # atno 27248 bound_to 18519
  182.5822    4.6532   45.1576 LP  0  0  0  0  0  0  0  0  0  0  0  0  # atno 27253 bound_to 17171
  183.8097    5.3904   44.1830 LP  0  0  0  0  0  0  0  0  0  0  0  0  # atno 27254 bound_to 17171
  187.6899    3.5545   42.5314 LP  0  0  0  0  0  0  0  0  0  0  0  0  # atno 27255 bound_to 17213
  186.0890    2.9091   42.3869 LP  0  0  0  0  0  0  0  0  0  0  0  0  # atno 27256 bound_to 17213
  181.0563    3.6866   48.8864 LP  0  0  0  0  0  0  0  0  0  0  0  0  # atno 27257 bound_to 17042
  179.5321    2.9830   49.3127 LP  0  0  0  0  0  0  0  0  0  0  0  0  # atno 27258 bound_to 17042
  184.9589    5.7267   42.7453 LP  0  0  0  0  0  0  0  0  0  0  0  0  # atno 27259 bound_to 17273
  181.0360    7.3396   52.2138 LP  0  0  0  0  0  0  0  0  0  0  0  0  # atno 27260 bound_to 18450
  182.2511    6.8786   51.2250 LP  0  0  0  0  0  0  0  0  0  0  0  0  # atno 27261 bound_to 18450
  187.0862    1.7856   42.8185 LP  0  0  0  0  0  0  0  0  0  0  0  0  # atno 27262 bound_to 18190
  183.7144   -2.2227   47.4991 LP  0  0  0  0  0  0  0  0  0  0  0  0  # atno 27263 bound_to 18270
  185.3063   -2.4806   47.7562 LP  0  0  0  0  0  0  0  0  0  0  0  0  # atno 27264 bound_to 18270
  189.7138   -4.8805   51.6981 LP  0  0  0  0  0  0  0  0  0  0  0  0  # atno 27265 bound_to 10086
  188.8423   -3.6687   51.0358 LP  0  0  0  0  0  0  0  0  0  0  0  0  # atno 27266 bound_to 10086
  188.2376   -2.4445   44.6627 LP  0  0  0  0  0  0  0  0  0  0  0  0  # atno 27267 bound_to 10127
  186.7181   -2.8355   45.3965 LP  0  0  0  0  0  0  0  0  0  0  0  0  # atno 27268 bound_to 10127
  184.9789    8.2712   43.4950 LP  0  0  0  0  0  0  0  0  0  0  0  0  # atno 27269 bound_to 11404
  184.9900    7.7134   41.8552 LP  0  0  0  0  0  0  0  0  0  0  0  0  # atno 27270 bound_to 11404
  180.2200    9.4229   50.4564 LP  0  0  0  0  0  0  0  0  0  0  0  0  # atno 27271 bound_to 16942
  180.0110    8.9967   48.8940 LP  0  0  0  0  0  0  0  0  0  0  0  0  # atno 27272 bound_to 16942
  181.8853    8.5715   42.0459 LP  0  0  0  0  0  0  0  0  0  0  0  0  # atno 27273 bound_to 11448
  180.9121    6.1492   43.5302 LP  0  0  0  0  0  0  0  0  0  0  0  0  # atno 27274 bound_to 11515
  178.9620    7.9897   47.5492 LP  0  0  0  0  0  0  0  0  0  0  0  0  # atno 27275 bound_to 11594
  179.1826    6.2816   47.7326 LP  0  0  0  0  0  0  0  0  0  0  0  0  # atno 27276 bound_to 11594
  179.7160    5.2244   45.3575 LP  0  0  0  0  0  0  0  0  0  0  0  0  # atno 27277 bound_to 11591
  182.4565   12.7017   43.0950 LP  0  0  0  0  0  0  0  0  0  0  0  0  # atno 27282 bound_to 11406
  182.5444   11.2359   43.8093 LP  0  0  0  0  0  0  0  0  0  0  0  0  # atno 27283 bound_to 11406
  185.1296   12.2548   55.1134 LP  0  0  0  0  0  0  0  0  0  0  0  0  # atno 27284 bound_to 18675
  183.4910   12.1519   55.6651 LP  0  0  0  0  0  0  0  0  0  0  0  0  # atno 27285 bound_to 18675

> <Gold.Score>
     Fitness  S(hb_ext) S(vdw_ext)  S(hb_int)    S(int)      intcor
     25.82       6.10      15.53       0.00      -1.63      -0.76

> <Gold.Goldscore.Fitness>
25.8241

> <Gold.Goldscore.Internal.Vdw>
-1.8686

> <Gold.Goldscore.Internal.Torsion>
-0.5244

> <Gold.Goldscore.External.Vdw>
15.5260

> <Gold.Goldscore.Internal.HBond>
0.0000

> <Gold.Goldscore.External.HBond>
6.1038

> <Gold.Goldscore.Internal.Correction>
-0.7650

> <Gold.Goldscore.Hbonds>
donor molecule, donor type, donor heavy atom, donor atom, acceptor molecule, acceptor atom, score
      P1  H 19331 19364       L1     9  0.02
      L1  H    10    23       P1 27095  1.00

> <Gold.Goldscore.Internal.Vdw.Weighted>
-1.8686

> <Gold.Goldscore.Internal.Torsion.Weighted>
-0.5244

> <Gold.Goldscore.External.Vdw.Weighted>
21.3483

> <Gold.Goldscore.Internal.HBond.Weighted>
0.0000

> <Gold.Goldscore.External.HBond.Weighted>
6.1038

> <Gold.Goldscore.Internal.Correction.Weighted>
-0.7650

> <Gold.Rescore>
     Score     S(PLP)   S(hbond)     S(cho)   S(metal)  DE(clash)   DE(tors)     intcor
     17.33     -18.97       0.00       0.00       0.00       1.14       0.25       ----

> <Gold.PLP.Fitness>
17.3253

> <Gold.PLP.PLP>
-18.9724

> <Gold.PLP.part.hbond>
-2.0000

> <Gold.PLP.part.metal>
0.0000

> <Gold.PLP.part.buried>
-3.2463

> <Gold.PLP.part.nonpolar>
-14.4694

> <Gold.PLP.part.repulsive>
0.3443

> <Gold.PLP.ligand.clash>
1.1395

> <Gold.PLP.ligand.torsion>
0.2538

> <Gold.PLP.Chemscore.Hbond>
0.0000

> <Gold.PLP.Chemscore.CHOScore>
0.0000

> <Gold.PLP.Chemscore.Metal>
0.0000

> <Gold.Chemscore.Hbonds>
donor molecule, donor type, donor heavy atom, donor atom, acceptor molecule, acceptor atom, score
      L1  H    10    23       P1 27095  1.00

> <Gold.PLP.Chemscore.Internal.Correction>
   9.000000E+99

