#       Name:                CT1002167954
#       Creating user name   hitesit
#       Creation time:       Sun Apr 16 22:56:39 2023


#       File generated by GOLD software.
#

@<TRIPOS>MOLECULE
CT1002167954|ligand_prepared|mol2|1|dock8
    29    30     1
SMALL
NO_CHARGES


@<TRIPOS>ATOM
      1 C1         186.6876   7.9025  49.8326 C.3            1 RES1               0.0000
      2 C2         187.6873   6.7294  49.8883 C.ar           1 RES1               0.0000
      3 C3         187.4308   9.1244  50.3647 C.2            1 RES1               0.0000
      4 C4         186.2531   8.0240  48.3762 C.2            1 RES1               0.0000
      5 C5         185.4208   7.6852  50.6925 C.3            1 RES1               0.0000
      6 C6         188.8500   6.7523  49.1239 C.ar           1 RES1               0.0000
      7 C7         187.4623   5.6206  50.6999 C.ar           1 RES1               0.0000
      8 N8         187.8178  10.0709  49.4624 N.am           1 RES1               0.0000
      9 O9         187.7078   9.2366  51.5525 O.2            1 RES1               0.0000
     10 N10        186.6069   9.1581  47.6931 N.am           1 RES1               0.0000
     11 O11        185.6220   7.1406  47.8091 O.2            1 RES1               0.0000
     12 C12        184.4663   8.8689  50.6883 C.3            1 RES1               0.0000
     13 C13        189.7564   5.7062  49.1713 C.ar           1 RES1               0.0000
     14 C14        188.3699   4.5754  50.7456 C.ar           1 RES1               0.0000
     15 C15        187.3958  10.1733  48.1612 C.2            1 RES1               0.0000
     16 C16        189.5173   4.6173  49.9823 C.ar           1 RES1               0.0000
     17 O17        187.7155  11.1351  47.4684 O.2            1 RES1               0.0000
     18 H18        184.8886   6.8012  50.3201 H              1 RES1               0.0000
     19 H19        185.7263   7.4818  51.7263 H              1 RES1               0.0000
     20 H20        189.0540   7.5997  48.4779 H              1 RES1               0.0000
     21 H21        186.5659   5.5656  51.3081 H              1 RES1               0.0000
     22 H22        188.4825  10.7669  49.7849 H              1 RES1               0.0000
     23 H23        186.2487   9.2544  46.7483 H              1 RES1               0.0000
     24 H24        183.5949   8.6640  51.3066 H              1 RES1               0.0000
     25 H25        184.9552   9.7601  51.0763 H              1 RES1               0.0000
     26 H26        184.1225   9.0835  49.6785 H              1 RES1               0.0000
     27 H27        190.6573   5.7434  48.5676 H              1 RES1               0.0000
     28 H28        188.1774   3.7201  51.3848 H              1 RES1               0.0000
     29 H29        190.2277   3.7981  50.0196 H              1 RES1               0.0000
@<TRIPOS>BOND
    1    1    2 1     
    2    1    3 1     
    3    1    4 1     
    4    1    5 1     
    5    2    6 ar    
    6    2    7 ar    
    7    3    8 1     
    8    3    9 2     
    9    4   10 1     
   10    4   11 2     
   11    5   12 1     
   12    5   18 1     
   13    5   19 1     
   14    6   13 ar    
   15    6   20 1     
   16    7   14 ar    
   17    7   21 1     
   18    8   15 1     
   19    8   22 1     
   20   10   15 1     
   21   10   23 1     
   22   12   24 1     
   23   12   25 1     
   24   12   26 1     
   25   13   16 ar    
   26   13   27 1     
   27   14   16 ar    
   28   14   28 1     
   29   15   17 2     
   30   16   29 1     
@<TRIPOS>SUBSTRUCTURE
      1 RES1           1
@<TRIPOS>SET
DONOR_HYDROGENS      STATIC     ATOMS    <user>   **** ""
2 22 23
ATOM$RED        STATIC     ATOMS    COLORGROUP SYSTEM
2 22 23
@<TRIPOS>COMMENT
> <Gold.Version>
2022.3.0

> <Gold.Id.Protein>
unknown|4v3u_clean|pdb

> <Gold.Protein.RotatedTorsions>
[  549  517  516  515 ] final   76.45 input   59.99 | X-H torsion
[ 2542 2515 2516 2517 ] final  -45.15 input  113.65 | X-H torsion
[ 2618 2585 2586 2587 ] final -106.63 input   46.31 | X-H torsion
[ 26064 26031 26030 26028 ] final -175.19 input   59.98 | X-H torsion
[ 27154 27102 27101 27097 ] final  -44.13 input   60.00 | X-H torsion
[ 7430 7405 7406 7407 ] final  132.83 input   81.33 | X-H torsion
[ 7467 7446 7447 7448 ] final  -32.38 input   92.53 | X-H torsion
[ 7519 7507 7508 7509 ] final -104.52 input   89.47 | X-H torsion
[ 17183 17168 17169 17170 ] final   84.10 input   55.70 | X-H torsion
[ 17231 17210 17211 17212 ] final -174.58 input  101.26 | X-H torsion
[ 18283 18265 18266 18267 ] final -109.07 input   32.88 | X-H torsion
[ 18322 18307 18308 18309 ] final -172.98 input   53.35 | X-H torsion
[ 18397 18345 18346 18347 ] final  141.53 input   36.30 | X-H torsion
[ 18484 18439 18440 18441 ] final  -79.43 input   98.15 | X-H torsion
[ 18552 18519 18520 18521 ] final -128.97 input   94.34 | X-H torsion
[ 17291 17273 17274 17275 ] final  134.49 input   50.38 | X-H torsion
[ 18492 18450 18449 18447 ] final   67.54 input   59.99 | X-H torsion
[ 18223 18190 18191 18192 ] final -117.08 input   49.82 | X-H torsion
[ 18287 18270 18269 18266 ] final   31.83 input   60.01 | X-H torsion
[ 10108 10086 10085 10082 ] final  166.81 input   60.00 | X-H torsion
[ 16975 16942 16941 16939 ] final   23.74 input   60.00 | X-H torsion
[ 11483 11448 11449 11450 ] final -118.71 input   47.08 | X-H torsion
[ 11550 11515 11516 11517 ] final   61.98 input  121.60 | X-H torsion
[ 11626 11591 11592 11593 ] final  130.73 input   57.19 | X-H torsion
[ 11428 11406 11405 11402 ] final  158.66 input   60.00 | X-H torsion
[ 27156 27104 27103 27101 ] final -102.14 input   60.02 | X-H torsion
[ 10144 10124 10125 10126 ] final   33.06 input   16.22 | X-H torsion
[ 17343 17319 17320 17321 ] final  152.33 input   65.41 | X-H torsion
[ 27203 2518 2517 2516 ] final -136.09 input    0.00 | X-H torsion
[ 27224 7317 7316 7315 ] final  -76.79 input    0.00 | X-H torsion
[ 27227 7408 7407 7406 ] final   56.54 input   -0.00 | X-H torsion
[ 27232 17117 17116 17115 ] final  160.10 input    0.00 | X-H torsion
[ 27236 18193 18192 18191 ] final  -75.32 input    0.00 | X-H torsion
[ 27239 18268 18267 18266 ] final  -86.13 input    0.00 | X-H torsion
[ 27242 18310 18309 18308 ] final  173.61 input   -0.00 | X-H torsion
[ 27245 18348 18347 18346 ] final  -64.78 input    0.00 | X-H torsion
[ 27253 17171 17170 17169 ] final  167.13 input   -0.00 | X-H torsion
[ 27255 17213 17212 17211 ] final  118.74 input    0.00 | X-H torsion
[ 27257 17042 17041 17040 ] final -164.06 input    0.00 | X-H torsion
[ 27267 10127 10126 10125 ] final   85.69 input   -0.00 | X-H torsion
[ 27269 11404 11403 11402 ] final   98.74 input    0.00 | X-H torsion
[ 27275 11594 11593 11592 ] final -170.35 input   -0.00 | X-H torsion
[ 27284 18675 18674 18673 ] final -107.46 input    0.00 | X-H torsion

> <Gold.Protein.ActiveResidues>
 LYS309  TRP311  MET341  HIS342  TRP414  ALA417  ARG419  CYS420  VAL421  GLY422 
 ARG423  SER462  ALA463  SER482  GLN483  LEU484  ILE485  ARG486  ALA502  TRP566 
 TYR567  LEU569  PRO570  ALA571  VAL572  SER573  ASN574  MET575  PHE589  SER590 
 GLY591  TRP592  TYR593  MET594  GLU597  ILE598  ARG601  ASP602  ASP605  ARG608 
 TRP683  HIS697  GLU699  TYR711  HEM750  H4B760 

> <Gold.Protein.RotatedAtoms>
  189.0907   23.4274   43.3443 H   0  0  0  0  0  0  0  0  0  0  0  0  # atno 549  bound_to 517 
  188.5055   24.5799   42.3071 H   0  0  0  0  0  0  0  0  0  0  0  0  # atno 550  bound_to 517 
  189.9737   23.8698   42.0144 H   0  0  0  0  0  0  0  0  0  0  0  0  # atno 551  bound_to 517 
  198.3074   19.4404   45.9674 H   0  0  0  0  0  0  0  0  0  0  0  0  # atno 2542 bound_to 2515
  197.3127   17.8642   44.3479 H   0  0  0  0  0  0  0  0  0  0  0  0  # atno 2618 bound_to 2585
  197.0435    6.0931   49.7371 H   0  0  0  0  0  0  0  0  0  0  0  0  # atno 7430 bound_to 7405
  195.6664    4.2328   53.0127 H   0  0  0  0  0  0  0  0  0  0  0  0  # atno 7467 bound_to 7446
  195.3240    2.9260   55.2421 H   0  0  0  0  0  0  0  0  0  0  0  0  # atno 7519 bound_to 7507
  190.5466   -4.4185   51.2541 H   0  0  0  0  0  0  0  0  0  0  0  0  # atno 10108 bound_to 10086
  187.3905   -3.9203   47.2210 H   0  0  0  0  0  0  0  0  0  0  0  0  # atno 10144 bound_to 10124
  182.7437   12.3748   43.6271 H   0  0  0  0  0  0  0  0  0  0  0  0  # atno 11428 bound_to 11406
  183.1576    8.6339   42.3408 H   0  0  0  0  0  0  0  0  0  0  0  0  # atno 11483 bound_to 11448
  181.3618    5.1385   44.3434 H   0  0  0  0  0  0  0  0  0  0  0  0  # atno 11550 bound_to 11515
  179.2003    4.1414   45.1884 H   0  0  0  0  0  0  0  0  0  0  0  0  # atno 11626 bound_to 11591
  179.9293    9.5632   50.0927 H   0  0  0  0  0  0  0  0  0  0  0  0  # atno 16975 bound_to 16942
  182.4111    3.7207   47.6485 H   0  0  0  0  0  0  0  0  0  0  0  0  # atno 17183 bound_to 17168
  185.6198    4.4731   46.2718 H   0  0  0  0  0  0  0  0  0  0  0  0  # atno 17231 bound_to 17210
  184.9687    5.6086   42.7873 H   0  0  0  0  0  0  0  0  0  0  0  0  # atno 17291 bound_to 17273
  185.7235    7.2443   40.4693 H   0  0  0  0  0  0  0  0  0  0  0  0  # atno 17343 bound_to 17319
  186.6481    0.3304   41.9751 H   0  0  0  0  0  0  0  0  0  0  0  0  # atno 18223 bound_to 18190
  187.4659    0.1314   45.6302 H   0  0  0  0  0  0  0  0  0  0  0  0  # atno 18283 bound_to 18265
  185.3976   -2.4700   47.6134 H   0  0  0  0  0  0  0  0  0  0  0  0  # atno 18287 bound_to 18270
  187.5843   -0.4955   48.8629 H   0  0  0  0  0  0  0  0  0  0  0  0  # atno 18322 bound_to 18307
  187.0106   -1.2975   52.9985 H   0  0  0  0  0  0  0  0  0  0  0  0  # atno 18397 bound_to 18345
  186.0312    1.5818   54.9015 H   0  0  0  0  0  0  0  0  0  0  0  0  # atno 18484 bound_to 18439
  182.5312    7.1101   51.2766 H   0  0  0  0  0  0  0  0  0  0  0  0  # atno 18492 bound_to 18450
  187.1482    3.4295   57.1485 H   0  0  0  0  0  0  0  0  0  0  0  0  # atno 18552 bound_to 18519
  194.9273   13.0311   45.4461 H   0  0  0  0  0  0  0  0  0  0  0  0  # atno 26064 bound_to 26031
  192.3223   19.3006   52.0159 H   0  0  0  0  0  0  0  0  0  0  0  0  # atno 27154 bound_to 27102
  197.1139   18.9437   51.3686 H   0  0  0  0  0  0  0  0  0  0  0  0  # atno 27156 bound_to 27104
  196.8690   20.3008   46.4563 LP  0  0  0  0  0  0  0  0  0  0  0  0  # atno 27202 bound_to 2515
  197.6433   15.9217   43.9749 LP  0  0  0  0  0  0  0  0  0  0  0  0  # atno 27203 bound_to 2518
  196.1731   15.8149   44.8843 LP  0  0  0  0  0  0  0  0  0  0  0  0  # atno 27204 bound_to 2518
  196.6859   19.2994   43.5760 LP  0  0  0  0  0  0  0  0  0  0  0  0  # atno 27205 bound_to 2585
  194.0543   11.6584   45.4738 LP  0  0  0  0  0  0  0  0  0  0  0  0  # atno 27209 bound_to 26031
  193.3022   13.1078   45.4705 LP  0  0  0  0  0  0  0  0  0  0  0  0  # atno 27210 bound_to 26031
  192.8215   20.7596   51.4971 LP  0  0  0  0  0  0  0  0  0  0  0  0  # atno 27213 bound_to 27102
  193.3982   20.1460   52.8962 LP  0  0  0  0  0  0  0  0  0  0  0  0  # atno 27214 bound_to 27102
  196.0267    8.3907   52.4481 LP  0  0  0  0  0  0  0  0  0  0  0  0  # atno 27224 bound_to 7317
  194.8867    8.0503   51.1893 LP  0  0  0  0  0  0  0  0  0  0  0  0  # atno 27225 bound_to 7317
  197.3080    6.9069   51.2573 LP  0  0  0  0  0  0  0  0  0  0  0  0  # atno 27226 bound_to 7405
  198.3618    4.6270   52.4022 LP  0  0  0  0  0  0  0  0  0  0  0  0  # atno 27227 bound_to 7408
  197.5994    3.2288   53.0833 LP  0  0  0  0  0  0  0  0  0  0  0  0  # atno 27228 bound_to 7408
  195.3986    5.8563   53.6096 LP  0  0  0  0  0  0  0  0  0  0  0  0  # atno 27229 bound_to 7446
  194.7597    2.8681   53.5905 LP  0  0  0  0  0  0  0  0  0  0  0  0  # atno 27230 bound_to 7507
  185.2212    1.8643   48.1032 LP  0  0  0  0  0  0  0  0  0  0  0  0  # atno 27232 bound_to 17117
  185.4367    2.3937   49.7382 LP  0  0  0  0  0  0  0  0  0  0  0  0  # atno 27233 bound_to 17117
  183.9600    3.5704   48.4372 LP  0  0  0  0  0  0  0  0  0  0  0  0  # atno 27234 bound_to 17168
  185.4170    3.3376   44.9529 LP  0  0  0  0  0  0  0  0  0  0  0  0  # atno 27235 bound_to 17210
  187.0760    2.2619   45.4624 LP  0  0  0  0  0  0  0  0  0  0  0  0  # atno 27236 bound_to 18193
  185.4867    1.6017   45.2667 LP  0  0  0  0  0  0  0  0  0  0  0  0  # atno 27237 bound_to 18193
  186.7650   -1.4669   45.6895 LP  0  0  0  0  0  0  0  0  0  0  0  0  # atno 27238 bound_to 18265
  186.9481   -2.9622   48.4241 LP  0  0  0  0  0  0  0  0  0  0  0  0  # atno 27239 bound_to 18268
  188.4847   -2.2184   48.1310 LP  0  0  0  0  0  0  0  0  0  0  0  0  # atno 27240 bound_to 18268
  186.1904    0.1102   49.7285 LP  0  0  0  0  0  0  0  0  0  0  0  0  # atno 27241 bound_to 18307
  184.5964   -1.3387   52.4756 LP  0  0  0  0  0  0  0  0  0  0  0  0  # atno 27242 bound_to 18310
  185.0385   -1.7206   50.8450 LP  0  0  0  0  0  0  0  0  0  0  0  0  # atno 27243 bound_to 18310
  187.1979    0.3633   52.4847 LP  0  0  0  0  0  0  0  0  0  0  0  0  # atno 27244 bound_to 18345
  188.1433    1.4007   54.8418 LP  0  0  0  0  0  0  0  0  0  0  0  0  # atno 27245 bound_to 18348
  187.4485    2.7431   53.9960 LP  0  0  0  0  0  0  0  0  0  0  0  0  # atno 27246 bound_to 18348
  184.4460    1.5082   55.6367 LP  0  0  0  0  0  0  0  0  0  0  0  0  # atno 27247 bound_to 18439
  186.9970    5.0366   56.4759 LP  0  0  0  0  0  0  0  0  0  0  0  0  # atno 27248 bound_to 18519
  183.8019    5.5975   44.4434 LP  0  0  0  0  0  0  0  0  0  0  0  0  # atno 27253 bound_to 17171
  182.5900    4.4462   44.8971 LP  0  0  0  0  0  0  0  0  0  0  0  0  # atno 27254 bound_to 17171
  186.1056    2.9746   42.1956 LP  0  0  0  0  0  0  0  0  0  0  0  0  # atno 27255 bound_to 17213
  187.6733    3.4890   42.7227 LP  0  0  0  0  0  0  0  0  0  0  0  0  # atno 27256 bound_to 17213
  181.0598    3.6629   48.8624 LP  0  0  0  0  0  0  0  0  0  0  0  0  # atno 27257 bound_to 17042
  179.5286    3.0068   49.3367 LP  0  0  0  0  0  0  0  0  0  0  0  0  # atno 27258 bound_to 17042
  186.6048    5.9029   42.2554 LP  0  0  0  0  0  0  0  0  0  0  0  0  # atno 27259 bound_to 17273
  182.1265    8.2280   52.3877 LP  0  0  0  0  0  0  0  0  0  0  0  0  # atno 27260 bound_to 18450
  181.0617    7.0611   51.9738 LP  0  0  0  0  0  0  0  0  0  0  0  0  # atno 27261 bound_to 18450
  187.2616    1.7818   42.7346 LP  0  0  0  0  0  0  0  0  0  0  0  0  # atno 27262 bound_to 18190
  184.5921   -2.1624   46.2338 LP  0  0  0  0  0  0  0  0  0  0  0  0  # atno 27263 bound_to 18270
  183.7855   -2.2543   47.6507 LP  0  0  0  0  0  0  0  0  0  0  0  0  # atno 27264 bound_to 18270
  188.9620   -4.5504   51.6012 LP  0  0  0  0  0  0  0  0  0  0  0  0  # atno 27265 bound_to 10086
  189.5002   -3.3073   50.6893 LP  0  0  0  0  0  0  0  0  0  0  0  0  # atno 27266 bound_to 10086
  188.2874   -2.5956   45.3340 LP  0  0  0  0  0  0  0  0  0  0  0  0  # atno 27267 bound_to 10127
  186.6683   -2.6844   44.7252 LP  0  0  0  0  0  0  0  0  0  0  0  0  # atno 27268 bound_to 10127
  185.0941    8.4416   43.4073 LP  0  0  0  0  0  0  0  0  0  0  0  0  # atno 27269 bound_to 11404
  184.8747    7.5430   41.9430 LP  0  0  0  0  0  0  0  0  0  0  0  0  # atno 27270 bound_to 11404
  180.3352    8.6401   48.8159 LP  0  0  0  0  0  0  0  0  0  0  0  0  # atno 27271 bound_to 16942
  181.1053    8.4489   50.2431 LP  0  0  0  0  0  0  0  0  0  0  0  0  # atno 27272 bound_to 16942
  181.6270    9.1812   42.9807 LP  0  0  0  0  0  0  0  0  0  0  0  0  # atno 27273 bound_to 11448
  181.4777    5.7572   42.7123 LP  0  0  0  0  0  0  0  0  0  0  0  0  # atno 27274 bound_to 11515
  178.7411    7.9202   47.7983 LP  0  0  0  0  0  0  0  0  0  0  0  0  # atno 27275 bound_to 11594
  179.4035    6.3511   47.4835 LP  0  0  0  0  0  0  0  0  0  0  0  0  # atno 27276 bound_to 11594
  179.1462    5.6707   44.3442 LP  0  0  0  0  0  0  0  0  0  0  0  0  # atno 27277 bound_to 11591
  182.1362   10.8863   43.3764 LP  0  0  0  0  0  0  0  0  0  0  0  0  # atno 27282 bound_to 11406
  181.7614   12.1065   42.3580 LP  0  0  0  0  0  0  0  0  0  0  0  0  # atno 27283 bound_to 11406
  184.2552   12.6938   56.1009 LP  0  0  0  0  0  0  0  0  0  0  0  0  # atno 27284 bound_to 18675
  184.3654   11.7129   54.6776 LP  0  0  0  0  0  0  0  0  0  0  0  0  # atno 27285 bound_to 18675

> <Gold.Score>
     Fitness  S(hb_ext) S(vdw_ext)  S(hb_int)    S(int)      intcor
     39.79       1.83      27.89       0.00      -0.38      -0.76

> <Gold.Goldscore.Fitness>
39.7903

> <Gold.Goldscore.Internal.Vdw>
-0.7674

> <Gold.Goldscore.Internal.Torsion>
-0.3802

> <Gold.Goldscore.External.Vdw>
27.8886

> <Gold.Goldscore.Internal.HBond>
0.0000

> <Gold.Goldscore.External.HBond>
1.8261

> <Gold.Goldscore.Internal.Correction>
-0.7650

> <Gold.Goldscore.Hbonds>
donor molecule, donor type, donor heavy atom, donor atom, acceptor molecule, acceptor atom, score
      L1  H     8    22       P1 26838  0.30

> <Gold.Goldscore.Internal.Vdw.Weighted>
-0.7674

> <Gold.Goldscore.Internal.Torsion.Weighted>
-0.3802

> <Gold.Goldscore.External.Vdw.Weighted>
38.3468

> <Gold.Goldscore.Internal.HBond.Weighted>
0.0000

> <Gold.Goldscore.External.HBond.Weighted>
1.8261

> <Gold.Goldscore.Internal.Correction.Weighted>
-0.7650

> <Gold.Rescore>
     Score     S(PLP)   S(hbond)     S(cho)   S(metal)  DE(clash)   DE(tors)     intcor
     31.25     -30.52       0.57       0.00       0.00       0.00       0.49       ----

> <Gold.PLP.Fitness>
31.2455

> <Gold.PLP.PLP>
-30.5152

> <Gold.PLP.part.hbond>
-0.5915

> <Gold.PLP.part.metal>
0.0000

> <Gold.PLP.part.buried>
3.1495

> <Gold.PLP.part.nonpolar>
-39.8104

> <Gold.PLP.part.repulsive>
5.1873

> <Gold.PLP.ligand.clash>
0.0000

> <Gold.PLP.ligand.torsion>
0.4880

> <Gold.PLP.Chemscore.Hbond>
0.5688

> <Gold.PLP.Chemscore.CHOScore>
0.0000

> <Gold.PLP.Chemscore.Metal>
0.0000

> <Gold.Chemscore.Hbonds>
donor molecule, donor type, donor heavy atom, donor atom, acceptor molecule, acceptor atom, score
      L1  H     8    22       P1 26838  1.00

> <Gold.PLP.Chemscore.Internal.Correction>
   9.000000E+99

