#       Name:                CT1002167954
#       Creating user name   hitesit
#       Creation time:       Sun Apr 16 22:56:39 2023


#       File generated by GOLD software.
#

@<TRIPOS>MOLECULE
CT1002167954|ligand_prepared|mol2|1|dock7
    29    30     1
SMALL
NO_CHARGES


@<TRIPOS>ATOM
      1 C1         187.5992   9.7771  47.8626 C.3            1 RES1               0.0000
      2 C2         188.0015   8.5292  48.6749 C.ar           1 RES1               0.0000
      3 C3         188.8976  10.3858  47.3411 C.2            1 RES1               0.0000
      4 C4         186.6576   9.2880  46.7676 C.2            1 RES1               0.0000
      5 C5         186.8527  10.8482  48.6914 C.3            1 RES1               0.0000
      6 C6         189.1991   7.8699  48.4144 C.ar           1 RES1               0.0000
      7 C7         187.1882   8.0281  49.6878 C.ar           1 RES1               0.0000
      8 N8         189.1790  10.2336  46.0154 N.am           1 RES1               0.0000
      9 O9         189.6816  10.9563  48.0895 O.2            1 RES1               0.0000
     10 N10        187.0772   9.3900  45.4672 N.am           1 RES1               0.0000
     11 O11        185.5630   8.8000  47.0203 O.2            1 RES1               0.0000
     12 C12        186.6754  12.1721  47.9648 C.3            1 RES1               0.0000
     13 C13        189.5716   6.7518  49.1420 C.ar           1 RES1               0.0000
     14 C14        187.5625   6.9096  50.4141 C.ar           1 RES1               0.0000
     15 C15        188.3078   9.8123  45.0433 C.2            1 RES1               0.0000
     16 C16        188.7539   6.2712  50.1425 C.ar           1 RES1               0.0000
     17 O17        188.6306   9.8243  43.8589 O.2            1 RES1               0.0000
     18 H18        185.8636  10.4589  48.9624 H              1 RES1               0.0000
     19 H19        187.4086  11.0269  49.6201 H              1 RES1               0.0000
     20 H20        189.8543   8.2321  47.6292 H              1 RES1               0.0000
     21 H21        186.2459   8.5135  49.9181 H              1 RES1               0.0000
     22 H22        190.1248  10.4533  45.7195 H              1 RES1               0.0000
     23 H23        186.4104   9.1269  44.7485 H              1 RES1               0.0000
     24 H24        186.1461  12.8877  48.5905 H              1 RES1               0.0000
     25 H25        187.6406  12.6004  47.7024 H              1 RES1               0.0000
     26 H26        186.1047  12.0358  47.0486 H              1 RES1               0.0000
     27 H27        190.5096   6.2522  48.9235 H              1 RES1               0.0000
     28 H28        186.9155   6.5345  51.2002 H              1 RES1               0.0000
     29 H29        189.0461   5.3956  50.7127 H              1 RES1               0.0000
@<TRIPOS>BOND
    1    1    2 1     
    2    1    3 1     
    3    1    4 1     
    4    1    5 1     
    5    2    6 ar    
    6    2    7 ar    
    7    3    8 1     
    8    3    9 2     
    9    4   10 1     
   10    4   11 2     
   11    5   12 1     
   12    5   18 1     
   13    5   19 1     
   14    6   13 ar    
   15    6   20 1     
   16    7   14 ar    
   17    7   21 1     
   18    8   15 1     
   19    8   22 1     
   20   10   15 1     
   21   10   23 1     
   22   12   24 1     
   23   12   25 1     
   24   12   26 1     
   25   13   16 ar    
   26   13   27 1     
   27   14   16 ar    
   28   14   28 1     
   29   15   17 2     
   30   16   29 1     
@<TRIPOS>SUBSTRUCTURE
      1 RES1           1
@<TRIPOS>SET
DONOR_HYDROGENS      STATIC     ATOMS    <user>   **** ""
2 22 23
ATOM$RED        STATIC     ATOMS    COLORGROUP SYSTEM
2 22 23
@<TRIPOS>COMMENT
> <Gold.Version>
2022.3.0

> <Gold.Id.Protein>
unknown|4v3u_clean|pdb

> <Gold.Protein.RotatedTorsions>
[  549  517  516  515 ] final  127.84 input   59.99 | X-H torsion
[ 2542 2515 2516 2517 ] final -101.12 input  113.65 | X-H torsion
[ 2618 2585 2586 2587 ] final   18.64 input   46.31 | X-H torsion
[ 26064 26031 26030 26028 ] final -129.45 input   59.98 | X-H torsion
[ 27154 27102 27101 27097 ] final  151.77 input   60.00 | X-H torsion
[ 7430 7405 7406 7407 ] final   60.12 input   81.33 | X-H torsion
[ 7467 7446 7447 7448 ] final  125.19 input   92.53 | X-H torsion
[ 7519 7507 7508 7509 ] final  174.18 input   89.47 | X-H torsion
[ 17183 17168 17169 17170 ] final -179.06 input   55.70 | X-H torsion
[ 17231 17210 17211 17212 ] final  104.58 input  101.26 | X-H torsion
[ 18283 18265 18266 18267 ] final  133.00 input   32.88 | X-H torsion
[ 18322 18307 18308 18309 ] final   43.67 input   53.35 | X-H torsion
[ 18397 18345 18346 18347 ] final  122.62 input   36.30 | X-H torsion
[ 18484 18439 18440 18441 ] final   17.71 input   98.15 | X-H torsion
[ 18552 18519 18520 18521 ] final  179.47 input   94.34 | X-H torsion
[ 17291 17273 17274 17275 ] final  -37.56 input   50.38 | X-H torsion
[ 18492 18450 18449 18447 ] final  146.70 input   59.99 | X-H torsion
[ 18223 18190 18191 18192 ] final  138.11 input   49.82 | X-H torsion
[ 18287 18270 18269 18266 ] final   90.87 input   60.01 | X-H torsion
[ 10108 10086 10085 10082 ] final  115.52 input   60.00 | X-H torsion
[ 16975 16942 16941 16939 ] final   56.18 input   60.00 | X-H torsion
[ 11483 11448 11449 11450 ] final  171.91 input   47.08 | X-H torsion
[ 11550 11515 11516 11517 ] final  147.49 input  121.60 | X-H torsion
[ 11626 11591 11592 11593 ] final  -74.29 input   57.19 | X-H torsion
[ 11428 11406 11405 11402 ] final  -10.42 input   60.00 | X-H torsion
[ 27156 27104 27103 27101 ] final   57.22 input   60.02 | X-H torsion
[ 10144 10124 10125 10126 ] final   -2.64 input   16.22 | X-H torsion
[ 17343 17319 17320 17321 ] final -160.82 input   65.41 | X-H torsion
[ 27203 2518 2517 2516 ] final  123.08 input    0.00 | X-H torsion
[ 27224 7317 7316 7315 ] final  -56.95 input    0.00 | X-H torsion
[ 27227 7408 7407 7406 ] final  141.26 input   -0.00 | X-H torsion
[ 27232 17117 17116 17115 ] final   84.49 input    0.00 | X-H torsion
[ 27236 18193 18192 18191 ] final  -87.27 input    0.00 | X-H torsion
[ 27239 18268 18267 18266 ] final  132.24 input    0.00 | X-H torsion
[ 27242 18310 18309 18308 ] final -179.13 input   -0.00 | X-H torsion
[ 27245 18348 18347 18346 ] final -178.85 input    0.00 | X-H torsion
[ 27253 17171 17170 17169 ] final  -16.34 input   -0.00 | X-H torsion
[ 27255 17213 17212 17211 ] final  -20.81 input    0.00 | X-H torsion
[ 27257 17042 17041 17040 ] final  -27.30 input    0.00 | X-H torsion
[ 27267 10127 10126 10125 ] final   76.98 input   -0.00 | X-H torsion
[ 27269 11404 11403 11402 ] final   79.30 input    0.00 | X-H torsion
[ 27275 11594 11593 11592 ] final -158.06 input   -0.00 | X-H torsion
[ 27284 18675 18674 18673 ] final  -70.87 input    0.00 | X-H torsion

> <Gold.Protein.ActiveResidues>
 LYS309  TRP311  MET341  HIS342  TRP414  ALA417  ARG419  CYS420  VAL421  GLY422 
 ARG423  SER462  ALA463  SER482  GLN483  LEU484  ILE485  ARG486  ALA502  TRP566 
 TYR567  LEU569  PRO570  ALA571  VAL572  SER573  ASN574  MET575  PHE589  SER590 
 GLY591  TRP592  TYR593  MET594  GLU597  ILE598  ARG601  ASP602  ASP605  ARG608 
 TRP683  HIS697  GLU699  TYR711  HEM750  H4B760 

> <Gold.Protein.RotatedAtoms>
  188.4658   23.9475   43.1801 H   0  0  0  0  0  0  0  0  0  0  0  0  # atno 549  bound_to 517 
  189.1616   24.5461   41.8001 H   0  0  0  0  0  0  0  0  0  0  0  0  # atno 550  bound_to 517 
  189.9428   23.3836   42.6854 H   0  0  0  0  0  0  0  0  0  0  0  0  # atno 551  bound_to 517 
  198.0913   19.4131   46.7648 H   0  0  0  0  0  0  0  0  0  0  0  0  # atno 2542 bound_to 2515
  197.4661   19.3087   43.7645 H   0  0  0  0  0  0  0  0  0  0  0  0  # atno 2618 bound_to 2585
  197.7617    5.8501   50.4501 H   0  0  0  0  0  0  0  0  0  0  0  0  # atno 7430 bound_to 7405
  195.0883    5.7344   53.6860 H   0  0  0  0  0  0  0  0  0  0  0  0  # atno 7467 bound_to 7446
  194.3037    3.1968   54.7903 H   0  0  0  0  0  0  0  0  0  0  0  0  # atno 7519 bound_to 7507
  189.9779   -4.8530   51.6346 H   0  0  0  0  0  0  0  0  0  0  0  0  # atno 10108 bound_to 10086
  187.9253   -3.9100   47.1546 H   0  0  0  0  0  0  0  0  0  0  0  0  # atno 10144 bound_to 10124
  181.7387   11.0841   42.7347 H   0  0  0  0  0  0  0  0  0  0  0  0  # atno 11428 bound_to 11406
  183.0491    9.1720   43.1832 H   0  0  0  0  0  0  0  0  0  0  0  0  # atno 11483 bound_to 11448
  181.9640    4.7686   43.3714 H   0  0  0  0  0  0  0  0  0  0  0  0  # atno 11550 bound_to 11515
  178.9108    5.4699   44.1254 H   0  0  0  0  0  0  0  0  0  0  0  0  # atno 11626 bound_to 11591
  180.2480    9.3985   50.4731 H   0  0  0  0  0  0  0  0  0  0  0  0  # atno 16975 bound_to 16942
  183.0793    2.8249   48.3401 H   0  0  0  0  0  0  0  0  0  0  0  0  # atno 17183 bound_to 17168
  186.3434    3.6721   45.8529 H   0  0  0  0  0  0  0  0  0  0  0  0  # atno 17231 bound_to 17210
  186.5810    6.0189   42.2262 H   0  0  0  0  0  0  0  0  0  0  0  0  # atno 17291 bound_to 17273
  185.6166    6.7737   39.9613 H   0  0  0  0  0  0  0  0  0  0  0  0  # atno 17343 bound_to 17319
  187.7873    1.1522   42.0514 H   0  0  0  0  0  0  0  0  0  0  0  0  # atno 18223 bound_to 18190
  186.3054   -0.7848   45.3228 H   0  0  0  0  0  0  0  0  0  0  0  0  # atno 18283 bound_to 18265
  184.6110   -2.4298   48.0931 H   0  0  0  0  0  0  0  0  0  0  0  0  # atno 18287 bound_to 18270
  186.5858    0.4870   49.7975 H   0  0  0  0  0  0  0  0  0  0  0  0  # atno 18322 bound_to 18307
  187.2244   -1.2156   53.1784 H   0  0  0  0  0  0  0  0  0  0  0  0  # atno 18397 bound_to 18345
  185.4844    1.2175   56.0578 H   0  0  0  0  0  0  0  0  0  0  0  0  # atno 18484 bound_to 18439
  181.4262    6.7407   51.5331 H   0  0  0  0  0  0  0  0  0  0  0  0  # atno 18492 bound_to 18450
  187.7670    3.6956   56.7736 H   0  0  0  0  0  0  0  0  0  0  0  0  # atno 18552 bound_to 18519
  194.3675   13.4959   45.4494 H   0  0  0  0  0  0  0  0  0  0  0  0  # atno 26064 bound_to 26031
  193.2617   20.8987   52.0303 H   0  0  0  0  0  0  0  0  0  0  0  0  # atno 27154 bound_to 27102
  196.3076   19.3633   49.7673 H   0  0  0  0  0  0  0  0  0  0  0  0  # atno 27156 bound_to 27104
  197.0813   20.3275   45.6730 LP  0  0  0  0  0  0  0  0  0  0  0  0  # atno 27202 bound_to 2515
  196.3213   15.8906   43.7932 LP  0  0  0  0  0  0  0  0  0  0  0  0  # atno 27203 bound_to 2518
  197.4951   15.8460   45.0661 LP  0  0  0  0  0  0  0  0  0  0  0  0  # atno 27204 bound_to 2518
  196.5354   17.8821   44.1485 LP  0  0  0  0  0  0  0  0  0  0  0  0  # atno 27205 bound_to 2585
  194.7416   11.9126   45.4619 LP  0  0  0  0  0  0  0  0  0  0  0  0  # atno 27209 bound_to 26031
  193.1787   12.3854   45.4790 LP  0  0  0  0  0  0  0  0  0  0  0  0  # atno 27210 bound_to 26031
  193.0395   19.5358   52.8907 LP  0  0  0  0  0  0  0  0  0  0  0  0  # atno 27213 bound_to 27102
  192.2339   19.7599   51.4881 LP  0  0  0  0  0  0  0  0  0  0  0  0  # atno 27214 bound_to 27102
  196.0485    8.6425   52.2895 LP  0  0  0  0  0  0  0  0  0  0  0  0  # atno 27224 bound_to 7317
  194.8649    7.7985   51.3478 LP  0  0  0  0  0  0  0  0  0  0  0  0  # atno 27225 bound_to 7317
  196.5991    7.1467   50.5535 LP  0  0  0  0  0  0  0  0  0  0  0  0  # atno 27226 bound_to 7405
  198.1553    4.3021   53.5039 LP  0  0  0  0  0  0  0  0  0  0  0  0  # atno 27227 bound_to 7408
  197.8058    3.5536   51.9815 LP  0  0  0  0  0  0  0  0  0  0  0  0  # atno 27228 bound_to 7408
  195.9585    4.4020   52.9574 LP  0  0  0  0  0  0  0  0  0  0  0  0  # atno 27229 bound_to 7446
  195.7610    2.6024   54.0339 LP  0  0  0  0  0  0  0  0  0  0  0  0  # atno 27230 bound_to 7507
  184.8384    1.4185   48.9875 LP  0  0  0  0  0  0  0  0  0  0  0  0  # atno 27232 bound_to 17117
  185.8195    2.8396   48.8539 LP  0  0  0  0  0  0  0  0  0  0  0  0  # atno 27233 bound_to 17117
  183.3013    4.4535   47.7554 LP  0  0  0  0  0  0  0  0  0  0  0  0  # atno 27234 bound_to 17168
  184.7209    4.1082   45.3558 LP  0  0  0  0  0  0  0  0  0  0  0  0  # atno 27235 bound_to 17210
  187.0484    2.2272   45.6371 LP  0  0  0  0  0  0  0  0  0  0  0  0  # atno 27236 bound_to 18193
  185.5142    1.6364   45.0920 LP  0  0  0  0  0  0  0  0  0  0  0  0  # atno 27237 bound_to 18193
  187.9040   -0.5676   45.9911 LP  0  0  0  0  0  0  0  0  0  0  0  0  # atno 27238 bound_to 18265
  188.4359   -2.3347   48.6861 LP  0  0  0  0  0  0  0  0  0  0  0  0  # atno 27239 bound_to 18268
  186.9969   -2.8459   47.8689 LP  0  0  0  0  0  0  0  0  0  0  0  0  # atno 27240 bound_to 18268
  187.1608   -0.8446   48.8202 LP  0  0  0  0  0  0  0  0  0  0  0  0  # atno 27241 bound_to 18307
  184.5667   -1.2403   52.4371 LP  0  0  0  0  0  0  0  0  0  0  0  0  # atno 27242 bound_to 18310
  185.0682   -1.8190   50.8835 LP  0  0  0  0  0  0  0  0  0  0  0  0  # atno 27243 bound_to 18310
  186.9899    0.2836   52.3097 LP  0  0  0  0  0  0  0  0  0  0  0  0  # atno 27244 bound_to 18345
  187.6036    2.7474   54.9256 LP  0  0  0  0  0  0  0  0  0  0  0  0  # atno 27245 bound_to 18348
  187.9882    1.3964   53.9123 LP  0  0  0  0  0  0  0  0  0  0  0  0  # atno 27246 bound_to 18348
  184.9775    1.8623   54.5130 LP  0  0  0  0  0  0  0  0  0  0  0  0  # atno 27247 bound_to 18439
  186.3949    4.7777   56.8407 LP  0  0  0  0  0  0  0  0  0  0  0  0  # atno 27248 bound_to 18519
  182.5995    4.4209   44.8523 LP  0  0  0  0  0  0  0  0  0  0  0  0  # atno 27253 bound_to 17171
  183.7924    5.6228   44.4882 LP  0  0  0  0  0  0  0  0  0  0  0  0  # atno 27254 bound_to 17171
  187.3796    3.2252   43.1731 LP  0  0  0  0  0  0  0  0  0  0  0  0  # atno 27255 bound_to 17213
  186.3993    3.2383   41.7453 LP  0  0  0  0  0  0  0  0  0  0  0  0  # atno 27256 bound_to 17213
  179.7870    2.6766   48.8556 LP  0  0  0  0  0  0  0  0  0  0  0  0  # atno 27257 bound_to 17042
  180.8014    3.9930   49.3435 LP  0  0  0  0  0  0  0  0  0  0  0  0  # atno 27258 bound_to 17042
  185.0193    5.4994   42.8072 LP  0  0  0  0  0  0  0  0  0  0  0  0  # atno 27259 bound_to 17273
  182.7838    7.6368   51.5742 LP  0  0  0  0  0  0  0  0  0  0  0  0  # atno 27260 bound_to 18450
  181.5171    8.0243   52.5291 LP  0  0  0  0  0  0  0  0  0  0  0  0  # atno 27261 bound_to 18450
  186.1561    0.9843   42.6605 LP  0  0  0  0  0  0  0  0  0  0  0  0  # atno 27262 bound_to 18190
  185.3938   -2.3365   46.6700 LP  0  0  0  0  0  0  0  0  0  0  0  0  # atno 27263 bound_to 18270
  183.7763   -2.1208   46.7313 LP  0  0  0  0  0  0  0  0  0  0  0  0  # atno 27264 bound_to 18270
  188.7537   -3.8777   51.1888 LP  0  0  0  0  0  0  0  0  0  0  0  0  # atno 27265 bound_to 10086
  190.2811   -3.5425   50.7185 LP  0  0  0  0  0  0  0  0  0  0  0  0  # atno 27266 bound_to 10086
  188.2351   -2.6304   45.4496 LP  0  0  0  0  0  0  0  0  0  0  0  0  # atno 27267 bound_to 10127
  186.7206   -2.6496   44.6096 LP  0  0  0  0  0  0  0  0  0  0  0  0  # atno 27268 bound_to 10127
  185.2329    8.6180   43.2198 LP  0  0  0  0  0  0  0  0  0  0  0  0  # atno 27269 bound_to 11404
  184.7359    7.3665   42.1304 LP  0  0  0  0  0  0  0  0  0  0  0  0  # atno 27270 bound_to 11404
  179.9890    9.0256   48.9107 LP  0  0  0  0  0  0  0  0  0  0  0  0  # atno 27271 bound_to 16942
  181.1304    8.2293   49.7650 LP  0  0  0  0  0  0  0  0  0  0  0  0  # atno 27272 bound_to 16942
  181.7332    8.6551   42.1571 LP  0  0  0  0  0  0  0  0  0  0  0  0  # atno 27273 bound_to 11448
  180.8904    6.1179   43.6601 LP  0  0  0  0  0  0  0  0  0  0  0  0  # atno 27274 bound_to 11515
  178.6407    7.8303   47.9257 LP  0  0  0  0  0  0  0  0  0  0  0  0  # atno 27275 bound_to 11594
  179.5039    6.4409   47.3561 LP  0  0  0  0  0  0  0  0  0  0  0  0  # atno 27276 bound_to 11594
  179.4292    4.3726   45.3829 LP  0  0  0  0  0  0  0  0  0  0  0  0  # atno 27277 bound_to 11591
  182.1839   12.6491   42.7331 LP  0  0  0  0  0  0  0  0  0  0  0  0  # atno 27282 bound_to 11406
  182.7262   11.6441   43.9004 LP  0  0  0  0  0  0  0  0  0  0  0  0  # atno 27283 bound_to 11406
  184.7663   12.7172   55.9166 LP  0  0  0  0  0  0  0  0  0  0  0  0  # atno 27284 bound_to 18675
  183.8543   11.6895   54.8620 LP  0  0  0  0  0  0  0  0  0  0  0  0  # atno 27285 bound_to 18675

> <Gold.Score>
     Fitness  S(hb_ext) S(vdw_ext)  S(hb_int)    S(int)      intcor
     37.01       4.73      24.13       0.00      -0.89      -0.76

> <Gold.Goldscore.Fitness>
37.0122

> <Gold.Goldscore.Internal.Vdw>
-1.1197

> <Gold.Goldscore.Internal.Torsion>
-0.5377

> <Gold.Goldscore.External.Vdw>
24.1268

> <Gold.Goldscore.Internal.HBond>
0.0000

> <Gold.Goldscore.External.HBond>
4.7304

> <Gold.Goldscore.Internal.Correction>
-0.7650

> <Gold.Goldscore.Hbonds>
donor molecule, donor type, donor heavy atom, donor atom, acceptor molecule, acceptor atom, score
      L1  H     8    22       P1 26833  0.66
      L1  H    10    23       P1 11404  0.37

> <Gold.Goldscore.Internal.Vdw.Weighted>
-1.1197

> <Gold.Goldscore.Internal.Torsion.Weighted>
-0.5377

> <Gold.Goldscore.External.Vdw.Weighted>
33.1743

> <Gold.Goldscore.Internal.HBond.Weighted>
0.0000

> <Gold.Goldscore.External.HBond.Weighted>
4.7304

> <Gold.Goldscore.Internal.Correction.Weighted>
-0.7650

> <Gold.Rescore>
     Score     S(PLP)   S(hbond)     S(cho)   S(metal)  DE(clash)   DE(tors)     intcor
     14.40     -13.97       0.91       0.00       0.00       0.69       0.81       ----

> <Gold.PLP.Fitness>
14.4036

> <Gold.PLP.PLP>
-13.9708

> <Gold.PLP.part.hbond>
-1.5283

> <Gold.PLP.part.metal>
0.0000

> <Gold.PLP.part.buried>
7.8293

> <Gold.PLP.part.nonpolar>
-29.8685

> <Gold.PLP.part.repulsive>
9.0921

> <Gold.PLP.ligand.clash>
0.6854

> <Gold.PLP.ligand.torsion>
0.8089

> <Gold.PLP.Chemscore.Hbond>
0.9120

> <Gold.PLP.Chemscore.CHOScore>
0.0000

> <Gold.PLP.Chemscore.Metal>
0.0000

> <Gold.Chemscore.Hbonds>
donor molecule, donor type, donor heavy atom, donor atom, acceptor molecule, acceptor atom, score
      L1  H     8    22       P1 26833  0.70

> <Gold.PLP.Chemscore.Internal.Correction>
   9.000000E+99

