#       Name:                CT1002167954
#       Creating user name   hitesit
#       Creation time:       Sun Apr 16 22:56:41 2023


#       File generated by GOLD software.
#

@<TRIPOS>MOLECULE
CT1002167954|ligand_prepared|mol2|1|dock10
    29    30     1
SMALL
NO_CHARGES


@<TRIPOS>ATOM
      1 C1         187.6998   9.1399  48.2098 C.3            1 RES1               0.0000
      2 C2         188.1516   7.7798  48.7796 C.ar           1 RES1               0.0000
      3 C3         188.9587   9.8241  47.6852 C.2            1 RES1               0.0000
      4 C4         186.6659   8.8291  47.1331 C.2            1 RES1               0.0000
      5 C5         187.0367  10.0663  49.2556 C.3            1 RES1               0.0000
      6 C6         189.3404   7.1935  48.3556 C.ar           1 RES1               0.0000
      7 C7         187.3930   7.1018  49.7302 C.ar           1 RES1               0.0000
      8 N8         189.1290   9.8832  46.3333 N.am           1 RES1               0.0000
      9 O9         189.8082  10.2700  48.4466 O.2            1 RES1               0.0000
     10 N10        186.9792   9.1353  45.8347 N.am           1 RES1               0.0000
     11 O11        185.5896   8.3065  47.3954 O.2            1 RES1               0.0000
     12 C12        186.7943  11.4815  48.7550 C.3            1 RES1               0.0000
     13 C13        189.7573   5.9751  48.8655 C.ar           1 RES1               0.0000
     14 C14        187.8117   5.8833  50.2386 C.ar           1 RES1               0.0000
     15 C15        188.1761   9.6200  45.3823 C.2            1 RES1               0.0000
     16 C16        188.9936   5.3194  49.8075 C.ar           1 RES1               0.0000
     17 O17        188.4012   9.8190  44.1920 O.2            1 RES1               0.0000
     18 H18        186.0767   9.6289  49.5565 H              1 RES1               0.0000
     19 H19        187.6780  10.1113  50.1445 H              1 RES1               0.0000
     20 H20        189.9534   7.6935  47.6131 H              1 RES1               0.0000
     21 H21        186.4592   7.5260  50.0832 H              1 RES1               0.0000
     22 H22        190.0501  10.1475  45.9986 H              1 RES1               0.0000
     23 H23        186.2527   8.9883  45.1411 H              1 RES1               0.0000
     24 H24        186.3277  12.0892  49.5273 H              1 RES1               0.0000
     25 H25        187.7313  11.9558  48.4705 H              1 RES1               0.0000
     26 H26        186.1395  11.4763  47.8860 H              1 RES1               0.0000
     27 H27        190.6876   5.5349  48.5219 H              1 RES1               0.0000
     28 H28        187.2071   5.3705  50.9794 H              1 RES1               0.0000
     29 H29        189.3206   4.3651  50.2070 H              1 RES1               0.0000
@<TRIPOS>BOND
    1    1    2 1     
    2    1    3 1     
    3    1    4 1     
    4    1    5 1     
    5    2    6 ar    
    6    2    7 ar    
    7    3    8 1     
    8    3    9 2     
    9    4   10 1     
   10    4   11 2     
   11    5   12 1     
   12    5   18 1     
   13    5   19 1     
   14    6   13 ar    
   15    6   20 1     
   16    7   14 ar    
   17    7   21 1     
   18    8   15 1     
   19    8   22 1     
   20   10   15 1     
   21   10   23 1     
   22   12   24 1     
   23   12   25 1     
   24   12   26 1     
   25   13   16 ar    
   26   13   27 1     
   27   14   16 ar    
   28   14   28 1     
   29   15   17 2     
   30   16   29 1     
@<TRIPOS>SUBSTRUCTURE
      1 RES1           1
@<TRIPOS>SET
DONOR_HYDROGENS      STATIC     ATOMS    <user>   **** ""
2 22 23
ATOM$RED        STATIC     ATOMS    COLORGROUP SYSTEM
2 22 23
@<TRIPOS>COMMENT
> <Gold.Version>
2022.3.0

> <Gold.Id.Protein>
unknown|4v3u_clean|pdb

> <Gold.Protein.RotatedTorsions>
[  549  517  516  515 ] final -179.81 input   59.99 | X-H torsion
[ 2542 2515 2516 2517 ] final  -11.01 input  113.65 | X-H torsion
[ 2618 2585 2586 2587 ] final   25.29 input   46.31 | X-H torsion
[ 26064 26031 26030 26028 ] final   42.45 input   59.98 | X-H torsion
[ 27154 27102 27101 27097 ] final  -51.88 input   60.00 | X-H torsion
[ 7430 7405 7406 7407 ] final  152.26 input   81.33 | X-H torsion
[ 7467 7446 7447 7448 ] final   51.03 input   92.53 | X-H torsion
[ 7519 7507 7508 7509 ] final   29.69 input   89.47 | X-H torsion
[ 17183 17168 17169 17170 ] final  -61.19 input   55.70 | X-H torsion
[ 17231 17210 17211 17212 ] final  163.19 input  101.26 | X-H torsion
[ 18283 18265 18266 18267 ] final  -58.00 input   32.88 | X-H torsion
[ 18322 18307 18308 18309 ] final  124.95 input   53.35 | X-H torsion
[ 18397 18345 18346 18347 ] final  -53.16 input   36.30 | X-H torsion
[ 18484 18439 18440 18441 ] final  106.41 input   98.15 | X-H torsion
[ 18552 18519 18520 18521 ] final  -90.84 input   94.34 | X-H torsion
[ 17291 17273 17274 17275 ] final -113.44 input   50.38 | X-H torsion
[ 18492 18450 18449 18447 ] final   15.97 input   59.99 | X-H torsion
[ 18223 18190 18191 18192 ] final   -2.00 input   49.82 | X-H torsion
[ 18287 18270 18269 18266 ] final  -62.24 input   60.01 | X-H torsion
[ 10108 10086 10085 10082 ] final  133.20 input   60.00 | X-H torsion
[ 16975 16942 16941 16939 ] final   -7.59 input   60.00 | X-H torsion
[ 11483 11448 11449 11450 ] final  167.26 input   47.08 | X-H torsion
[ 11550 11515 11516 11517 ] final  -10.73 input  121.60 | X-H torsion
[ 11626 11591 11592 11593 ] final   80.78 input   57.19 | X-H torsion
[ 11428 11406 11405 11402 ] final  116.01 input   60.00 | X-H torsion
[ 27156 27104 27103 27101 ] final  111.55 input   60.02 | X-H torsion
[ 10144 10124 10125 10126 ] final  173.30 input   16.22 | X-H torsion
[ 17343 17319 17320 17321 ] final  -65.62 input   65.41 | X-H torsion
[ 27203 2518 2517 2516 ] final -130.18 input    0.00 | X-H torsion
[ 27224 7317 7316 7315 ] final  169.41 input    0.00 | X-H torsion
[ 27227 7408 7407 7406 ] final -123.20 input   -0.00 | X-H torsion
[ 27232 17117 17116 17115 ] final   15.96 input    0.00 | X-H torsion
[ 27236 18193 18192 18191 ] final -172.39 input    0.00 | X-H torsion
[ 27239 18268 18267 18266 ] final  107.31 input    0.00 | X-H torsion
[ 27242 18310 18309 18308 ] final    6.12 input   -0.00 | X-H torsion
[ 27245 18348 18347 18346 ] final  -93.23 input    0.00 | X-H torsion
[ 27253 17171 17170 17169 ] final -174.04 input   -0.00 | X-H torsion
[ 27255 17213 17212 17211 ] final   52.64 input    0.00 | X-H torsion
[ 27257 17042 17041 17040 ] final  -28.58 input    0.00 | X-H torsion
[ 27267 10127 10126 10125 ] final  -56.89 input   -0.00 | X-H torsion
[ 27269 11404 11403 11402 ] final   35.43 input    0.00 | X-H torsion
[ 27275 11594 11593 11592 ] final  -61.17 input   -0.00 | X-H torsion
[ 27284 18675 18674 18673 ] final  -84.80 input    0.00 | X-H torsion

> <Gold.Protein.ActiveResidues>
 LYS309  TRP311  MET341  HIS342  TRP414  ALA417  ARG419  CYS420  VAL421  GLY422 
 ARG423  SER462  ALA463  SER482  GLN483  LEU484  ILE485  ARG486  ALA502  TRP566 
 TYR567  LEU569  PRO570  ALA571  VAL572  SER573  ASN574  MET575  PHE589  SER590 
 GLY591  TRP592  TYR593  MET594  GLU597  ILE598  ARG601  ASP602  ASP605  ARG608 
 TRP683  HIS697  GLU699  TYR711  HEM750  H4B760 

> <Gold.Protein.RotatedAtoms>
  188.3905   24.4836   42.5324 H   0  0  0  0  0  0  0  0  0  0  0  0  # atno 549  bound_to 517 
  189.8483   24.0595   41.8679 H   0  0  0  0  0  0  0  0  0  0  0  0  # atno 550  bound_to 517 
  189.3317   23.3340   43.2651 H   0  0  0  0  0  0  0  0  0  0  0  0  # atno 551  bound_to 517 
  198.1127   19.6636   45.5437 H   0  0  0  0  0  0  0  0  0  0  0  0  # atno 2542 bound_to 2515
  197.3795   19.3476   43.7265 H   0  0  0  0  0  0  0  0  0  0  0  0  # atno 2618 bound_to 2585
  196.8344    6.3024   49.7188 H   0  0  0  0  0  0  0  0  0  0  0  0  # atno 7430 bound_to 7405
  194.7117    4.7520   53.4804 H   0  0  0  0  0  0  0  0  0  0  0  0  # atno 7467 bound_to 7446
  195.4059    2.6638   53.6417 H   0  0  0  0  0  0  0  0  0  0  0  0  # atno 7519 bound_to 7507
  190.2294   -4.7588   51.5313 H   0  0  0  0  0  0  0  0  0  0  0  0  # atno 10108 bound_to 10086
  187.4334   -5.4675   47.8035 H   0  0  0  0  0  0  0  0  0  0  0  0  # atno 10144 bound_to 10124
  182.7497   11.7464   43.8888 H   0  0  0  0  0  0  0  0  0  0  0  0  # atno 11428 bound_to 11406
  183.0002    9.2029   43.2254 H   0  0  0  0  0  0  0  0  0  0  0  0  # atno 11483 bound_to 11448
  180.8737    5.9862   43.9634 H   0  0  0  0  0  0  0  0  0  0  0  0  # atno 11550 bound_to 11515
  179.6134    4.6837   45.4921 H   0  0  0  0  0  0  0  0  0  0  0  0  # atno 11626 bound_to 11591
  179.7763    9.5212   49.6128 H   0  0  0  0  0  0  0  0  0  0  0  0  # atno 16975 bound_to 16942
  183.9458    4.0512   48.2383 H   0  0  0  0  0  0  0  0  0  0  0  0  # atno 17183 bound_to 17168
  185.9213    4.3070   46.2802 H   0  0  0  0  0  0  0  0  0  0  0  0  # atno 17231 bound_to 17210
  186.3086    5.0517   42.6279 H   0  0  0  0  0  0  0  0  0  0  0  0  # atno 17291 bound_to 17273
  186.7119    6.0953   39.7754 H   0  0  0  0  0  0  0  0  0  0  0  0  # atno 17343 bound_to 17319
  186.3981    1.4637   42.9224 H   0  0  0  0  0  0  0  0  0  0  0  0  # atno 18223 bound_to 18190
  187.8995   -0.4048   45.9490 H   0  0  0  0  0  0  0  0  0  0  0  0  # atno 18283 bound_to 18265
  184.9981   -2.2292   46.3259 H   0  0  0  0  0  0  0  0  0  0  0  0  # atno 18287 bound_to 18270
  187.6116    0.3094   49.2966 H   0  0  0  0  0  0  0  0  0  0  0  0  # atno 18322 bound_to 18307
  187.0254    0.3337   52.3431 H   0  0  0  0  0  0  0  0  0  0  0  0  # atno 18397 bound_to 18345
  184.3928    1.5539   55.5749 H   0  0  0  0  0  0  0  0  0  0  0  0  # atno 18484 bound_to 18439
  182.7739    7.7682   51.6906 H   0  0  0  0  0  0  0  0  0  0  0  0  # atno 18492 bound_to 18450
  186.6223    3.6376   57.2722 H   0  0  0  0  0  0  0  0  0  0  0  0  # atno 18552 bound_to 18519
  193.7021   11.7514   45.4750 H   0  0  0  0  0  0  0  0  0  0  0  0  # atno 26064 bound_to 26031
  192.2826   19.3550   51.9089 H   0  0  0  0  0  0  0  0  0  0  0  0  # atno 27154 bound_to 27102
  196.8245   20.0151   49.9625 H   0  0  0  0  0  0  0  0  0  0  0  0  # atno 27156 bound_to 27104
  197.0603   20.0814   46.8726 LP  0  0  0  0  0  0  0  0  0  0  0  0  # atno 27202 bound_to 2515
  197.6865   15.9180   44.0531 LP  0  0  0  0  0  0  0  0  0  0  0  0  # atno 27203 bound_to 2518
  196.1299   15.8186   44.8061 LP  0  0  0  0  0  0  0  0  0  0  0  0  # atno 27204 bound_to 2518
  196.6203   17.8439   44.1858 LP  0  0  0  0  0  0  0  0  0  0  0  0  # atno 27205 bound_to 2585
  193.5549   13.3718   45.4645 LP  0  0  0  0  0  0  0  0  0  0  0  0  # atno 27209 bound_to 26031
  195.0356   12.6833   45.4506 LP  0  0  0  0  0  0  0  0  0  0  0  0  # atno 27210 bound_to 26031
  192.9059   20.8194   51.5714 LP  0  0  0  0  0  0  0  0  0  0  0  0  # atno 27213 bound_to 27102
  193.3538   20.0314   52.9297 LP  0  0  0  0  0  0  0  0  0  0  0  0  # atno 27214 bound_to 27102
  195.0767    7.4457   51.8914 LP  0  0  0  0  0  0  0  0  0  0  0  0  # atno 27224 bound_to 7317
  195.8367    8.9953   51.7459 LP  0  0  0  0  0  0  0  0  0  0  0  0  # atno 27225 bound_to 7317
  197.5144    6.7003   51.2753 LP  0  0  0  0  0  0  0  0  0  0  0  0  # atno 27226 bound_to 7405
  197.5988    3.2274   53.0797 LP  0  0  0  0  0  0  0  0  0  0  0  0  # atno 27227 bound_to 7408
  198.3624    4.6284   52.4058 LP  0  0  0  0  0  0  0  0  0  0  0  0  # atno 27228 bound_to 7408
  196.3232    5.3535   53.1566 LP  0  0  0  0  0  0  0  0  0  0  0  0  # atno 27229 bound_to 7446
  194.6794    3.1254   55.1611 LP  0  0  0  0  0  0  0  0  0  0  0  0  # atno 27230 bound_to 7507
  185.1358    1.9536   49.7465 LP  0  0  0  0  0  0  0  0  0  0  0  0  # atno 27232 bound_to 17117
  185.5221    2.3045   48.0949 LP  0  0  0  0  0  0  0  0  0  0  0  0  # atno 27233 bound_to 17117
  182.4470    3.2446   47.8558 LP  0  0  0  0  0  0  0  0  0  0  0  0  # atno 27234 bound_to 17168
  185.1270    3.4974   44.9448 LP  0  0  0  0  0  0  0  0  0  0  0  0  # atno 27235 bound_to 17210
  186.1340    1.7590   46.2003 LP  0  0  0  0  0  0  0  0  0  0  0  0  # atno 27236 bound_to 18193
  186.4286    2.1046   44.5288 LP  0  0  0  0  0  0  0  0  0  0  0  0  # atno 27237 bound_to 18193
  186.3393   -0.9406   45.3765 LP  0  0  0  0  0  0  0  0  0  0  0  0  # atno 27238 bound_to 18265
  188.5075   -2.2421   48.3311 LP  0  0  0  0  0  0  0  0  0  0  0  0  # atno 27239 bound_to 18268
  186.9253   -2.9385   48.2240 LP  0  0  0  0  0  0  0  0  0  0  0  0  # atno 27240 bound_to 18268
  186.1638   -0.6720   49.3070 LP  0  0  0  0  0  0  0  0  0  0  0  0  # atno 27241 bound_to 18307
  185.0872   -1.8871   50.9191 LP  0  0  0  0  0  0  0  0  0  0  0  0  # atno 27242 bound_to 18310
  184.5477   -1.1721   52.4015 LP  0  0  0  0  0  0  0  0  0  0  0  0  # atno 27243 bound_to 18310
  187.1835   -1.2236   53.1224 LP  0  0  0  0  0  0  0  0  0  0  0  0  # atno 27244 bound_to 18345
  188.0749    1.6914   55.1451 LP  0  0  0  0  0  0  0  0  0  0  0  0  # atno 27245 bound_to 18348
  187.5169    2.4524   53.6927 LP  0  0  0  0  0  0  0  0  0  0  0  0  # atno 27246 bound_to 18348
  186.0383    1.5354   54.9823 LP  0  0  0  0  0  0  0  0  0  0  0  0  # atno 27247 bound_to 18439
  187.5088    4.8342   56.3556 LP  0  0  0  0  0  0  0  0  0  0  0  0  # atno 27248 bound_to 18519
  183.8144    5.4258   44.2183 LP  0  0  0  0  0  0  0  0  0  0  0  0  # atno 27253 bound_to 17171
  182.5775    4.6179   45.1223 LP  0  0  0  0  0  0  0  0  0  0  0  0  # atno 27254 bound_to 17171
  186.4222    2.8426   43.0758 LP  0  0  0  0  0  0  0  0  0  0  0  0  # atno 27255 bound_to 17213
  187.3567    3.6210   41.8426 LP  0  0  0  0  0  0  0  0  0  0  0  0  # atno 27256 bound_to 17213
  179.8000    2.6719   48.8421 LP  0  0  0  0  0  0  0  0  0  0  0  0  # atno 27257 bound_to 17042
  180.7884    3.9978   49.3569 LP  0  0  0  0  0  0  0  0  0  0  0  0  # atno 27258 bound_to 17042
  185.2872    6.4505   42.4122 LP  0  0  0  0  0  0  0  0  0  0  0  0  # atno 27259 bound_to 17273
  181.3777    7.9180   52.5128 LP  0  0  0  0  0  0  0  0  0  0  0  0  # atno 27260 bound_to 18450
  181.5663    6.7086   51.4319 LP  0  0  0  0  0  0  0  0  0  0  0  0  # atno 27261 bound_to 18450
  187.5042    0.6821   41.8153 LP  0  0  0  0  0  0  0  0  0  0  0  0  # atno 27262 bound_to 18190
  183.6621   -2.1799   47.2528 LP  0  0  0  0  0  0  0  0  0  0  0  0  # atno 27263 bound_to 18270
  185.1180   -2.4794   47.9289 LP  0  0  0  0  0  0  0  0  0  0  0  0  # atno 27264 bound_to 18270
  188.7443   -4.1183   51.3500 LP  0  0  0  0  0  0  0  0  0  0  0  0  # atno 27265 bound_to 10086
  190.0372   -3.3967   50.6614 LP  0  0  0  0  0  0  0  0  0  0  0  0  # atno 27266 bound_to 10086
  186.6627   -2.8126   45.2658 LP  0  0  0  0  0  0  0  0  0  0  0  0  # atno 27267 bound_to 10127
  188.2930   -2.4674   44.7934 LP  0  0  0  0  0  0  0  0  0  0  0  0  # atno 27268 bound_to 10127
  185.4230    8.7364   42.6128 LP  0  0  0  0  0  0  0  0  0  0  0  0  # atno 27269 bound_to 11404
  184.5459    7.2481   42.7374 LP  0  0  0  0  0  0  0  0  0  0  0  0  # atno 27270 bound_to 11404
  180.7065    8.3396   48.9919 LP  0  0  0  0  0  0  0  0  0  0  0  0  # atno 27271 bound_to 16942
  180.8880    8.7917   50.5505 LP  0  0  0  0  0  0  0  0  0  0  0  0  # atno 27272 bound_to 16942
  181.7810    8.6248   42.1158 LP  0  0  0  0  0  0  0  0  0  0  0  0  # atno 27273 bound_to 11448
  181.9538    4.9304   43.0828 LP  0  0  0  0  0  0  0  0  0  0  0  0  # atno 27274 bound_to 11515
  178.7020    6.5590   48.1704 LP  0  0  0  0  0  0  0  0  0  0  0  0  # atno 27275 bound_to 11594
  179.4426    7.7123   47.1114 LP  0  0  0  0  0  0  0  0  0  0  0  0  # atno 27276 bound_to 11594
  178.7426    5.1408   44.0475 LP  0  0  0  0  0  0  0  0  0  0  0  0  # atno 27277 bound_to 11591
  181.7718   11.0188   42.8108 LP  0  0  0  0  0  0  0  0  0  0  0  0  # atno 27282 bound_to 11406
  182.1198   12.6071   42.6599 LP  0  0  0  0  0  0  0  0  0  0  0  0  # atno 27283 bound_to 11406
  184.5827   12.7335   56.0175 LP  0  0  0  0  0  0  0  0  0  0  0  0  # atno 27284 bound_to 18675
  184.0379   11.6731   54.7610 LP  0  0  0  0  0  0  0  0  0  0  0  0  # atno 27285 bound_to 18675

> <Gold.Score>
     Fitness  S(hb_ext) S(vdw_ext)  S(hb_int)    S(int)      intcor
     38.96       6.17      24.61       0.00      -1.05      -0.76

> <Gold.Goldscore.Fitness>
38.9580

> <Gold.Goldscore.Internal.Vdw>
-1.2977

> <Gold.Goldscore.Internal.Torsion>
-0.5060

> <Gold.Goldscore.External.Vdw>
24.6052

> <Gold.Goldscore.Internal.HBond>
0.0000

> <Gold.Goldscore.External.HBond>
6.1710

> <Gold.Goldscore.Internal.Correction>
-0.7585

> <Gold.Goldscore.Hbonds>
donor molecule, donor type, donor heavy atom, donor atom, acceptor molecule, acceptor atom, score
      L1  H     8    22       P1 26833  1.00
      L1  H    10    23       P1 11404  0.09

> <Gold.Goldscore.Internal.Vdw.Weighted>
-1.2977

> <Gold.Goldscore.Internal.Torsion.Weighted>
-0.5060

> <Gold.Goldscore.External.Vdw.Weighted>
33.8322

> <Gold.Goldscore.Internal.HBond.Weighted>
0.0000

> <Gold.Goldscore.External.HBond.Weighted>
6.1710

> <Gold.Goldscore.Internal.Correction.Weighted>
-0.7585

> <Gold.Rescore>
     Score     S(PLP)   S(hbond)     S(cho)   S(metal)  DE(clash)   DE(tors)     intcor
     19.89     -19.51       0.96       0.00       0.00       0.00       1.25       ----

> <Gold.PLP.Fitness>
19.8939

> <Gold.PLP.PLP>
-19.5108

> <Gold.PLP.part.hbond>
-2.0000

> <Gold.PLP.part.metal>
0.0000

> <Gold.PLP.part.buried>
7.8340

> <Gold.PLP.part.nonpolar>
-32.6663

> <Gold.PLP.part.repulsive>
5.8179

> <Gold.PLP.ligand.clash>
0.0000

> <Gold.PLP.ligand.torsion>
1.2466

> <Gold.PLP.Chemscore.Hbond>
0.9588

> <Gold.PLP.Chemscore.CHOScore>
0.0000

> <Gold.PLP.Chemscore.Metal>
0.0000

> <Gold.Chemscore.Hbonds>
donor molecule, donor type, donor heavy atom, donor atom, acceptor molecule, acceptor atom, score
      L1  H     8    22       P1 26833  1.00

> <Gold.PLP.Chemscore.Internal.Correction>
   9.000000E+99

