#       Name:                CT1002167954
#       Creating user name   hitesit
#       Creation time:       Sun Apr 16 22:56:36 2023


#       File generated by GOLD software.
#

@<TRIPOS>MOLECULE
CT1002167954|ligand_prepared|mol2|1|dock4
    29    30     1
SMALL
NO_CHARGES


@<TRIPOS>ATOM
      1 C1         186.0827  10.9440  50.8181 C.3            1 RES1               0.0000
      2 C2         186.7827  10.3738  49.5677 C.ar           1 RES1               0.0000
      3 C3         185.3756  12.2194  50.3691 C.2            1 RES1               0.0000
      4 C4         185.1411   9.8526  51.3149 C.2            1 RES1               0.0000
      5 C5         187.0521  11.2991  51.9695 C.3            1 RES1               0.0000
      6 C6         186.4147  10.7979  48.2943 C.ar           1 RES1               0.0000
      7 C7         187.7980   9.4267  49.6715 C.ar           1 RES1               0.0000
      8 N8         184.0179  12.1794  50.2462 N.am           1 RES1               0.0000
      9 O9         186.0032  13.2333  50.0891 O.2            1 RES1               0.0000
     10 N10        183.7933  10.0942  51.2618 N.am           1 RES1               0.0000
     11 O11        185.5535   8.7790  51.7364 O.2            1 RES1               0.0000
     12 C12        186.3770  11.9735  53.1534 C.3            1 RES1               0.0000
     13 C13        187.0412  10.2958  47.1657 C.ar           1 RES1               0.0000
     14 C14        188.4230   8.9257  48.5415 C.ar           1 RES1               0.0000
     15 C15        183.1880  11.1960  50.7214 C.2            1 RES1               0.0000
     16 C16        188.0459   9.3598  47.2885 C.ar           1 RES1               0.0000
     17 O17        181.9678  11.3168  50.6608 O.2            1 RES1               0.0000
     18 H18        187.5391  10.3798  52.3173 H              1 RES1               0.0000
     19 H19        187.8322  11.9656  51.5814 H              1 RES1               0.0000
     20 H20        185.6245  11.5321  48.1778 H              1 RES1               0.0000
     21 H21        188.1104   9.0699  50.6470 H              1 RES1               0.0000
     22 H22        183.5792  12.9520  49.7554 H              1 RES1               0.0000
     23 H23        183.1848   9.3874  51.6623 H              1 RES1               0.0000
     24 H24        187.1017  12.2010  53.9324 H              1 RES1               0.0000
     25 H25        185.9035  12.9044  52.8486 H              1 RES1               0.0000
     26 H26        185.6121  11.3280  53.5802 H              1 RES1               0.0000
     27 H27        186.7397  10.6396  46.1817 H              1 RES1               0.0000
     28 H28        189.2128   8.1887  48.6429 H              1 RES1               0.0000
     29 H29        188.5367   8.9668  46.4042 H              1 RES1               0.0000
@<TRIPOS>BOND
    1    1    2 1     
    2    1    3 1     
    3    1    4 1     
    4    1    5 1     
    5    2    6 ar    
    6    2    7 ar    
    7    3    8 1     
    8    3    9 2     
    9    4   10 1     
   10    4   11 2     
   11    5   12 1     
   12    5   18 1     
   13    5   19 1     
   14    6   13 ar    
   15    6   20 1     
   16    7   14 ar    
   17    7   21 1     
   18    8   15 1     
   19    8   22 1     
   20   10   15 1     
   21   10   23 1     
   22   12   24 1     
   23   12   25 1     
   24   12   26 1     
   25   13   16 ar    
   26   13   27 1     
   27   14   16 ar    
   28   14   28 1     
   29   15   17 2     
   30   16   29 1     
@<TRIPOS>SUBSTRUCTURE
      1 RES1           1
@<TRIPOS>SET
DONOR_HYDROGENS      STATIC     ATOMS    <user>   **** ""
2 22 23
ATOM$RED        STATIC     ATOMS    COLORGROUP SYSTEM
2 22 23
@<TRIPOS>COMMENT
> <Gold.Version>
2022.3.0

> <Gold.Id.Protein>
unknown|4v3u_clean|pdb

> <Gold.Protein.RotatedTorsions>
[  549  517  516  515 ] final  152.45 input   59.99 | X-H torsion
[ 2542 2515 2516 2517 ] final -176.44 input  113.65 | X-H torsion
[ 2618 2585 2586 2587 ] final -156.20 input   46.31 | X-H torsion
[ 26064 26031 26030 26028 ] final  -93.45 input   59.98 | X-H torsion
[ 27154 27102 27101 27097 ] final  121.87 input   60.00 | X-H torsion
[ 7430 7405 7406 7407 ] final  -46.47 input   81.33 | X-H torsion
[ 7467 7446 7447 7448 ] final  109.75 input   92.53 | X-H torsion
[ 7519 7507 7508 7509 ] final  179.87 input   89.47 | X-H torsion
[ 17183 17168 17169 17170 ] final   39.61 input   55.70 | X-H torsion
[ 17231 17210 17211 17212 ] final  161.22 input  101.26 | X-H torsion
[ 18283 18265 18266 18267 ] final  112.98 input   32.88 | X-H torsion
[ 18322 18307 18308 18309 ] final -109.71 input   53.35 | X-H torsion
[ 18397 18345 18346 18347 ] final -101.61 input   36.30 | X-H torsion
[ 18484 18439 18440 18441 ] final -159.12 input   98.15 | X-H torsion
[ 18552 18519 18520 18521 ] final -161.63 input   94.34 | X-H torsion
[ 17291 17273 17274 17275 ] final  102.23 input   50.38 | X-H torsion
[ 18492 18450 18449 18447 ] final -119.42 input   59.99 | X-H torsion
[ 18223 18190 18191 18192 ] final  103.18 input   49.82 | X-H torsion
[ 18287 18270 18269 18266 ] final  -84.73 input   60.01 | X-H torsion
[ 10108 10086 10085 10082 ] final  168.46 input   60.00 | X-H torsion
[ 16975 16942 16941 16939 ] final   66.51 input   60.00 | X-H torsion
[ 11483 11448 11449 11450 ] final -137.15 input   47.08 | X-H torsion
[ 11550 11515 11516 11517 ] final  163.71 input  121.60 | X-H torsion
[ 11626 11591 11592 11593 ] final  -32.91 input   57.19 | X-H torsion
[ 11428 11406 11405 11402 ] final -106.09 input   60.00 | X-H torsion
[ 27156 27104 27103 27101 ] final  170.91 input   60.02 | X-H torsion
[ 10144 10124 10125 10126 ] final -155.78 input   16.22 | X-H torsion
[ 17343 17319 17320 17321 ] final   30.92 input   65.41 | X-H torsion
[ 27203 2518 2517 2516 ] final  -59.44 input    0.00 | X-H torsion
[ 27224 7317 7316 7315 ] final -151.34 input    0.00 | X-H torsion
[ 27227 7408 7407 7406 ] final   -9.31 input   -0.00 | X-H torsion
[ 27232 17117 17116 17115 ] final   59.42 input    0.00 | X-H torsion
[ 27236 18193 18192 18191 ] final  -90.83 input    0.00 | X-H torsion
[ 27239 18268 18267 18266 ] final  -85.40 input    0.00 | X-H torsion
[ 27242 18310 18309 18308 ] final   31.01 input   -0.00 | X-H torsion
[ 27245 18348 18347 18346 ] final   70.34 input    0.00 | X-H torsion
[ 27253 17171 17170 17169 ] final    4.31 input   -0.00 | X-H torsion
[ 27255 17213 17212 17211 ] final   52.00 input    0.00 | X-H torsion
[ 27257 17042 17041 17040 ] final -163.47 input    0.00 | X-H torsion
[ 27267 10127 10126 10125 ] final   13.29 input   -0.00 | X-H torsion
[ 27269 11404 11403 11402 ] final   11.28 input    0.00 | X-H torsion
[ 27275 11594 11593 11592 ] final   60.66 input   -0.00 | X-H torsion
[ 27284 18675 18674 18673 ] final   79.28 input    0.00 | X-H torsion

> <Gold.Protein.ActiveResidues>
 LYS309  TRP311  MET341  HIS342  TRP414  ALA417  ARG419  CYS420  VAL421  GLY422 
 ARG423  SER462  ALA463  SER482  GLN483  LEU484  ILE485  ARG486  ALA502  TRP566 
 TYR567  LEU569  PRO570  ALA571  VAL572  SER573  ASN574  MET575  PHE589  SER590 
 GLY591  TRP592  TYR593  MET594  GLU597  ILE598  ARG601  ASP602  ASP605  ARG608 
 TRP683  HIS697  GLU699  TYR711  HEM750  H4B760 

> <Gold.Protein.RotatedAtoms>
  188.3437   24.2282   42.9105 H   0  0  0  0  0  0  0  0  0  0  0  0  # atno 549  bound_to 517 
  189.5196   24.3570   41.7498 H   0  0  0  0  0  0  0  0  0  0  0  0  # atno 550  bound_to 517 
  189.7070   23.2920   43.0052 H   0  0  0  0  0  0  0  0  0  0  0  0  # atno 551  bound_to 517 
  197.1979   19.9644   47.0015 H   0  0  0  0  0  0  0  0  0  0  0  0  # atno 2542 bound_to 2515
  196.5931   17.8377   44.1824 H   0  0  0  0  0  0  0  0  0  0  0  0  # atno 2618 bound_to 2585
  197.3246    6.9117   51.2647 H   0  0  0  0  0  0  0  0  0  0  0  0  # atno 7430 bound_to 7405
  194.9107    5.5748   53.6888 H   0  0  0  0  0  0  0  0  0  0  0  0  # atno 7467 bound_to 7446
  194.3470    3.1936   54.8661 H   0  0  0  0  0  0  0  0  0  0  0  0  # atno 7519 bound_to 7507
  190.5551   -4.3978   51.2390 H   0  0  0  0  0  0  0  0  0  0  0  0  # atno 10108 bound_to 10086
  187.8989   -5.5079   47.7644 H   0  0  0  0  0  0  0  0  0  0  0  0  # atno 10144 bound_to 10124
  181.9539   12.4333   42.4934 H   0  0  0  0  0  0  0  0  0  0  0  0  # atno 11428 bound_to 11406
  183.2507    8.7697   42.5710 H   0  0  0  0  0  0  0  0  0  0  0  0  # atno 11483 bound_to 11448
  181.9700    4.8679   43.1424 H   0  0  0  0  0  0  0  0  0  0  0  0  # atno 11550 bound_to 11515
  179.2990    5.7564   44.5220 H   0  0  0  0  0  0  0  0  0  0  0  0  # atno 11626 bound_to 11591
  180.3686    9.3084   50.5486 H   0  0  0  0  0  0  0  0  0  0  0  0  # atno 16975 bound_to 16942
  182.7774    4.2729   47.5913 H   0  0  0  0  0  0  0  0  0  0  0  0  # atno 17183 bound_to 17168
  185.9457    4.2890   46.2759 H   0  0  0  0  0  0  0  0  0  0  0  0  # atno 17231 bound_to 17210
  184.9784    6.0703   42.6269 H   0  0  0  0  0  0  0  0  0  0  0  0  # atno 17291 bound_to 17273
  187.1885    6.8603   40.7336 H   0  0  0  0  0  0  0  0  0  0  0  0  # atno 17343 bound_to 17319
  187.6999    1.5559   42.3881 H   0  0  0  0  0  0  0  0  0  0  0  0  # atno 18223 bound_to 18190
  186.3638   -1.0711   45.4154 H   0  0  0  0  0  0  0  0  0  0  0  0  # atno 18283 bound_to 18265
  184.6482   -2.1686   46.2417 H   0  0  0  0  0  0  0  0  0  0  0  0  # atno 18287 bound_to 18270
  186.7903   -0.9782   48.9080 H   0  0  0  0  0  0  0  0  0  0  0  0  # atno 18322 bound_to 18307
  186.5672   -0.1728   52.0934 H   0  0  0  0  0  0  0  0  0  0  0  0  # atno 18397 bound_to 18345
  185.0191    1.8832   54.4815 H   0  0  0  0  0  0  0  0  0  0  0  0  # atno 18484 bound_to 18439
  181.2167    7.7350   52.4492 H   0  0  0  0  0  0  0  0  0  0  0  0  # atno 18492 bound_to 18450
  187.5822    3.5291   56.9247 H   0  0  0  0  0  0  0  0  0  0  0  0  # atno 18552 bound_to 18519
  193.7892   13.4842   45.4575 H   0  0  0  0  0  0  0  0  0  0  0  0  # atno 26064 bound_to 26031
  193.4367   20.7238   52.4450 H   0  0  0  0  0  0  0  0  0  0  0  0  # atno 27154 bound_to 27102
  197.3439   20.0377   50.7296 H   0  0  0  0  0  0  0  0  0  0  0  0  # atno 27156 bound_to 27104
  197.9590   19.7860   45.4405 LP  0  0  0  0  0  0  0  0  0  0  0  0  # atno 27202 bound_to 2515
  197.5225   15.8486   45.0397 LP  0  0  0  0  0  0  0  0  0  0  0  0  # atno 27203 bound_to 2518
  196.2939   15.8880   43.8195 LP  0  0  0  0  0  0  0  0  0  0  0  0  # atno 27204 bound_to 2518
  197.3919   19.3254   43.7384 LP  0  0  0  0  0  0  0  0  0  0  0  0  # atno 27205 bound_to 2585
  195.0225   12.4229   45.4533 LP  0  0  0  0  0  0  0  0  0  0  0  0  # atno 27209 bound_to 26031
  193.4802   11.8869   45.4796 LP  0  0  0  0  0  0  0  0  0  0  0  0  # atno 27210 bound_to 26031
  192.7175   19.2767   52.6341 LP  0  0  0  0  0  0  0  0  0  0  0  0  # atno 27213 bound_to 27102
  192.3796   20.1952   51.3269 LP  0  0  0  0  0  0  0  0  0  0  0  0  # atno 27214 bound_to 27102
  195.4506    7.5220   52.3306 LP  0  0  0  0  0  0  0  0  0  0  0  0  # atno 27224 bound_to 7317
  195.4627    8.9190   51.3067 LP  0  0  0  0  0  0  0  0  0  0  0  0  # atno 27225 bound_to 7317
  197.0305    6.0988   49.7494 LP  0  0  0  0  0  0  0  0  0  0  0  0  # atno 27226 bound_to 7405
  198.0086    3.9300   51.8772 LP  0  0  0  0  0  0  0  0  0  0  0  0  # atno 27227 bound_to 7408
  197.9526    3.9258   53.6083 LP  0  0  0  0  0  0  0  0  0  0  0  0  # atno 27228 bound_to 7408
  196.1305    4.5566   52.9547 LP  0  0  0  0  0  0  0  0  0  0  0  0  # atno 27229 bound_to 7446
  195.7186    2.6055   53.9595 LP  0  0  0  0  0  0  0  0  0  0  0  0  # atno 27230 bound_to 7507
  184.8784    1.5240   49.3460 LP  0  0  0  0  0  0  0  0  0  0  0  0  # atno 27232 bound_to 17117
  185.7795    2.7341   48.4953 LP  0  0  0  0  0  0  0  0  0  0  0  0  # atno 27233 bound_to 17117
  183.5989    3.0260   48.4936 LP  0  0  0  0  0  0  0  0  0  0  0  0  # atno 27234 bound_to 17168
  185.1034    3.5147   44.9489 LP  0  0  0  0  0  0  0  0  0  0  0  0  # atno 27235 bound_to 17210
  187.0337    2.2143   45.6873 LP  0  0  0  0  0  0  0  0  0  0  0  0  # atno 27236 bound_to 18193
  185.5289    1.6493   45.0419 LP  0  0  0  0  0  0  0  0  0  0  0  0  # atno 27237 bound_to 18193
  187.8467   -0.2866   45.9002 LP  0  0  0  0  0  0  0  0  0  0  0  0  # atno 27238 bound_to 18265
  186.9458   -2.9614   48.4132 LP  0  0  0  0  0  0  0  0  0  0  0  0  # atno 27239 bound_to 18268
  188.4870   -2.2192   48.1418 LP  0  0  0  0  0  0  0  0  0  0  0  0  # atno 27240 bound_to 18268
  186.9621    0.5795   49.6846 LP  0  0  0  0  0  0  0  0  0  0  0  0  # atno 27241 bound_to 18307
  185.1444   -2.1612   51.1661 LP  0  0  0  0  0  0  0  0  0  0  0  0  # atno 27242 bound_to 18310
  184.4906   -0.8981   52.1545 LP  0  0  0  0  0  0  0  0  0  0  0  0  # atno 27243 bound_to 18310
  187.6293   -0.7308   53.3653 LP  0  0  0  0  0  0  0  0  0  0  0  0  # atno 27244 bound_to 18345
  187.5889    2.2370   53.5944 LP  0  0  0  0  0  0  0  0  0  0  0  0  # atno 27245 bound_to 18348
  188.0029    1.9068   55.2435 LP  0  0  0  0  0  0  0  0  0  0  0  0  # atno 27246 bound_to 18348
  185.4297    1.2154   56.0449 LP  0  0  0  0  0  0  0  0  0  0  0  0  # atno 27247 bound_to 18439
  186.5747    4.9397   56.6937 LP  0  0  0  0  0  0  0  0  0  0  0  0  # atno 27248 bound_to 18519
  182.5759    4.6007   45.1041 LP  0  0  0  0  0  0  0  0  0  0  0  0  # atno 27253 bound_to 17171
  183.8160    5.4429   44.2364 LP  0  0  0  0  0  0  0  0  0  0  0  0  # atno 27254 bound_to 17171
  186.4295    2.8438   43.0820 LP  0  0  0  0  0  0  0  0  0  0  0  0  # atno 27255 bound_to 17213
  187.3494    3.6198   41.8364 LP  0  0  0  0  0  0  0  0  0  0  0  0  # atno 27256 bound_to 17213
  181.0605    3.6565   48.8561 LP  0  0  0  0  0  0  0  0  0  0  0  0  # atno 27257 bound_to 17042
  179.5279    3.0131   49.3430 LP  0  0  0  0  0  0  0  0  0  0  0  0  # atno 27258 bound_to 17042
  186.5953    5.4488   42.4131 LP  0  0  0  0  0  0  0  0  0  0  0  0  # atno 27259 bound_to 17273
  181.7932    6.7134   51.3214 LP  0  0  0  0  0  0  0  0  0  0  0  0  # atno 27260 bound_to 18450
  182.7186    7.9466   51.8596 LP  0  0  0  0  0  0  0  0  0  0  0  0  # atno 27261 bound_to 18450
  186.2409    0.5926   42.3338 LP  0  0  0  0  0  0  0  0  0  0  0  0  # atno 27262 bound_to 18190
  183.7588   -2.2436   47.6018 LP  0  0  0  0  0  0  0  0  0  0  0  0  # atno 27263 bound_to 18270
  185.3738   -2.4768   47.6647 LP  0  0  0  0  0  0  0  0  0  0  0  0  # atno 27264 bound_to 18270
  188.9798   -4.5687   51.6105 LP  0  0  0  0  0  0  0  0  0  0  0  0  # atno 27265 bound_to 10086
  189.4738   -3.3098   50.6953 LP  0  0  0  0  0  0  0  0  0  0  0  0  # atno 27266 bound_to 10086
  187.4526   -2.8421   45.8714 LP  0  0  0  0  0  0  0  0  0  0  0  0  # atno 27267 bound_to 10127
  187.5031   -2.4380   44.1879 LP  0  0  0  0  0  0  0  0  0  0  0  0  # atno 27268 bound_to 10127
  185.4246    8.6186   42.2702 LP  0  0  0  0  0  0  0  0  0  0  0  0  # atno 27269 bound_to 11404
  184.5443    7.3660   43.0801 LP  0  0  0  0  0  0  0  0  0  0  0  0  # atno 27270 bound_to 11404
  179.9052    9.1449   48.9976 LP  0  0  0  0  0  0  0  0  0  0  0  0  # atno 27271 bound_to 16942
  181.0926    8.2008   49.6020 LP  0  0  0  0  0  0  0  0  0  0  0  0  # atno 27272 bound_to 16942
  181.5360    9.0484   42.7556 LP  0  0  0  0  0  0  0  0  0  0  0  0  # atno 27273 bound_to 11448
  180.8847    6.0210   43.8835 LP  0  0  0  0  0  0  0  0  0  0  0  0  # atno 27274 bound_to 11515
  179.6750    6.9044   47.0635 LP  0  0  0  0  0  0  0  0  0  0  0  0  # atno 27275 bound_to 11594
  178.4696    7.3669   48.2182 LP  0  0  0  0  0  0  0  0  0  0  0  0  # atno 27276 bound_to 11594
  179.0498    4.0927   44.9954 LP  0  0  0  0  0  0  0  0  0  0  0  0  # atno 27277 bound_to 11591
  182.7879   12.0305   43.8312 LP  0  0  0  0  0  0  0  0  0  0  0  0  # atno 27282 bound_to 11406
  181.9055   10.9034   43.0453 LP  0  0  0  0  0  0  0  0  0  0  0  0  # atno 27283 bound_to 11406
  184.2666   11.6926   54.6912 LP  0  0  0  0  0  0  0  0  0  0  0  0  # atno 27284 bound_to 18675
  184.3540   12.7141   56.0873 LP  0  0  0  0  0  0  0  0  0  0  0  0  # atno 27285 bound_to 18675

> <Gold.Score>
     Fitness  S(hb_ext) S(vdw_ext)  S(hb_int)    S(int)      intcor
     38.66       6.44      24.46       0.00      -1.42      -0.80

> <Gold.Goldscore.Fitness>
38.6557

> <Gold.Goldscore.Internal.Vdw>
-1.8077

> <Gold.Goldscore.Internal.Torsion>
-0.4098

> <Gold.Goldscore.External.Vdw>
24.4579

> <Gold.Goldscore.Internal.HBond>
0.0000

> <Gold.Goldscore.External.HBond>
6.4433

> <Gold.Goldscore.Internal.Correction>
-0.8003

> <Gold.Goldscore.Hbonds>
donor molecule, donor type, donor heavy atom, donor atom, acceptor molecule, acceptor atom, score
      P1  H 19332 19366       L1    17  0.88
      L1  H    10    23       P1 18450  0.58

> <Gold.Goldscore.Internal.Vdw.Weighted>
-1.8077

> <Gold.Goldscore.Internal.Torsion.Weighted>
-0.4098

> <Gold.Goldscore.External.Vdw.Weighted>
33.6296

> <Gold.Goldscore.Internal.HBond.Weighted>
0.0000

> <Gold.Goldscore.External.HBond.Weighted>
6.4433

> <Gold.Goldscore.Internal.Correction.Weighted>
-0.8003

> <Gold.Rescore>
     Score     S(PLP)   S(hbond)     S(cho)   S(metal)  DE(clash)   DE(tors)     intcor
     24.34     -23.51       0.98       0.00       0.00       2.04       0.04       ----

> <Gold.PLP.Fitness>
24.3355

> <Gold.PLP.PLP>
-23.5093

> <Gold.PLP.part.hbond>
-3.4310

> <Gold.PLP.part.metal>
0.0000

> <Gold.PLP.part.buried>
0.6674

> <Gold.PLP.part.nonpolar>
-22.3648

> <Gold.PLP.part.repulsive>
2.0311

> <Gold.PLP.ligand.clash>
2.0375

> <Gold.PLP.ligand.torsion>
0.0437

> <Gold.PLP.Chemscore.Hbond>
0.9837

> <Gold.PLP.Chemscore.CHOScore>
0.0000

> <Gold.PLP.Chemscore.Metal>
0.0000

> <Gold.Chemscore.Hbonds>
donor molecule, donor type, donor heavy atom, donor atom, acceptor molecule, acceptor atom, score
      L1  H    10    23       P1 18450  0.07
      P1  H 19332 19366       L1    17  1.00

> <Gold.PLP.Chemscore.Internal.Correction>
   9.000000E+99

