#       Name:                CT1002167954
#       Creating user name   hitesit
#       Creation time:       Sun Apr 16 22:56:37 2023


#       File generated by GOLD software.
#

@<TRIPOS>MOLECULE
CT1002167954|ligand_prepared|mol2|1|dock5
    29    30     1
SMALL
NO_CHARGES


@<TRIPOS>ATOM
      1 C1         187.4331   9.7109  47.0190 C.3            1 RES1               0.0000
      2 C2         187.4321   8.5292  48.0102 C.ar           1 RES1               0.0000
      3 C3         186.9341  10.9242  47.7983 C.2            1 RES1               0.0000
      4 C4         188.8655   9.8424  46.5135 C.2            1 RES1               0.0000
      5 C5         186.5119   9.5005  45.7949 C.3            1 RES1               0.0000
      6 C6         186.2691   7.8015  48.2440 C.ar           1 RES1               0.0000
      7 C7         188.5849   8.1539  48.6949 C.ar           1 RES1               0.0000
      8 N8         187.8510  11.8713  48.1479 N.am           1 RES1               0.0000
      9 O9         185.7612  11.0290  48.1353 O.2            1 RES1               0.0000
     10 N10        189.5610  10.9764  46.8423 N.am           1 RES1               0.0000
     11 O11        189.4038   8.9667  45.8473 O.2            1 RES1               0.0000
     12 C12        186.7046  10.5351  44.6974 C.3            1 RES1               0.0000
     13 C13        186.2595   6.7354  49.1281 C.ar           1 RES1               0.0000
     14 C14        188.5730   7.0875  49.5787 C.ar           1 RES1               0.0000
     15 C15        189.1290  11.9829  47.6624 C.2            1 RES1               0.0000
     16 C16        187.4114   6.3774  49.7956 C.ar           1 RES1               0.0000
     17 O17        189.8332  12.9449  47.9553 O.2            1 RES1               0.0000
     18 H18        186.7011   8.5038  45.3777 H              1 RES1               0.0000
     19 H19        185.4676   9.5312  46.1295 H              1 RES1               0.0000
     20 H20        185.3524   8.0701  47.7297 H              1 RES1               0.0000
     21 H21        189.5100   8.6988  48.5407 H              1 RES1               0.0000
     22 H22        187.5593  12.5604  48.8339 H              1 RES1               0.0000
     23 H23        190.4864  11.0798  46.4383 H              1 RES1               0.0000
     24 H24        186.0344  10.3413  43.8626 H              1 RES1               0.0000
     25 H25        186.5000  11.5364  45.0709 H              1 RES1               0.0000
     26 H26        187.7263  10.5150  44.3236 H              1 RES1               0.0000
     27 H27        185.3424   6.1806  49.2963 H              1 RES1               0.0000
     28 H28        189.4818   6.8096  50.1023 H              1 RES1               0.0000
     29 H29        187.4037   5.5419  50.4878 H              1 RES1               0.0000
@<TRIPOS>BOND
    1    1    2 1     
    2    1    3 1     
    3    1    4 1     
    4    1    5 1     
    5    2    6 ar    
    6    2    7 ar    
    7    3    8 1     
    8    3    9 2     
    9    4   10 1     
   10    4   11 2     
   11    5   12 1     
   12    5   18 1     
   13    5   19 1     
   14    6   13 ar    
   15    6   20 1     
   16    7   14 ar    
   17    7   21 1     
   18    8   15 1     
   19    8   22 1     
   20   10   15 1     
   21   10   23 1     
   22   12   24 1     
   23   12   25 1     
   24   12   26 1     
   25   13   16 ar    
   26   13   27 1     
   27   14   16 ar    
   28   14   28 1     
   29   15   17 2     
   30   16   29 1     
@<TRIPOS>SUBSTRUCTURE
      1 RES1           1
@<TRIPOS>SET
DONOR_HYDROGENS      STATIC     ATOMS    <user>   **** ""
2 22 23
ATOM$RED        STATIC     ATOMS    COLORGROUP SYSTEM
2 22 23
@<TRIPOS>COMMENT
> <Gold.Version>
2022.3.0

> <Gold.Id.Protein>
unknown|4v3u_clean|pdb

> <Gold.Protein.RotatedTorsions>
[  549  517  516  515 ] final  166.24 input   59.99 | X-H torsion
[ 2542 2515 2516 2517 ] final   37.40 input  113.65 | X-H torsion
[ 2618 2585 2586 2587 ] final    0.02 input   46.31 | X-H torsion
[ 26064 26031 26030 26028 ] final   88.94 input   59.98 | X-H torsion
[ 27154 27102 27101 27097 ] final -174.78 input   60.00 | X-H torsion
[ 7430 7405 7406 7407 ] final   58.51 input   81.33 | X-H torsion
[ 7467 7446 7447 7448 ] final  175.97 input   92.53 | X-H torsion
[ 7519 7507 7508 7509 ] final  125.16 input   89.47 | X-H torsion
[ 17183 17168 17169 17170 ] final -158.21 input   55.70 | X-H torsion
[ 17231 17210 17211 17212 ] final  151.58 input  101.26 | X-H torsion
[ 18283 18265 18266 18267 ] final -174.72 input   32.88 | X-H torsion
[ 18322 18307 18308 18309 ] final -139.10 input   53.35 | X-H torsion
[ 18397 18345 18346 18347 ] final   -6.07 input   36.30 | X-H torsion
[ 18484 18439 18440 18441 ] final  -14.62 input   98.15 | X-H torsion
[ 18552 18519 18520 18521 ] final  148.97 input   94.34 | X-H torsion
[ 17291 17273 17274 17275 ] final   94.85 input   50.38 | X-H torsion
[ 18492 18450 18449 18447 ] final   10.32 input   59.99 | X-H torsion
[ 18223 18190 18191 18192 ] final   47.59 input   49.82 | X-H torsion
[ 18287 18270 18269 18266 ] final -157.15 input   60.01 | X-H torsion
[ 10108 10086 10085 10082 ] final  -59.02 input   60.00 | X-H torsion
[ 16975 16942 16941 16939 ] final   19.50 input   60.00 | X-H torsion
[ 11483 11448 11449 11450 ] final -135.66 input   47.08 | X-H torsion
[ 11550 11515 11516 11517 ] final -155.37 input  121.60 | X-H torsion
[ 11626 11591 11592 11593 ] final -118.13 input   57.19 | X-H torsion
[ 11428 11406 11405 11402 ] final -157.13 input   60.00 | X-H torsion
[ 27156 27104 27103 27101 ] final  -90.24 input   60.02 | X-H torsion
[ 10144 10124 10125 10126 ] final   31.49 input   16.22 | X-H torsion
[ 17343 17319 17320 17321 ] final   80.94 input   65.41 | X-H torsion
[ 27203 2518 2517 2516 ] final -160.77 input    0.00 | X-H torsion
[ 27224 7317 7316 7315 ] final  -32.43 input    0.00 | X-H torsion
[ 27227 7408 7407 7406 ] final   -2.93 input   -0.00 | X-H torsion
[ 27232 17117 17116 17115 ] final   83.64 input    0.00 | X-H torsion
[ 27236 18193 18192 18191 ] final  -95.22 input    0.00 | X-H torsion
[ 27239 18268 18267 18266 ] final  -55.67 input    0.00 | X-H torsion
[ 27242 18310 18309 18308 ] final -127.44 input   -0.00 | X-H torsion
[ 27245 18348 18347 18346 ] final  179.45 input    0.00 | X-H torsion
[ 27253 17171 17170 17169 ] final  -38.21 input   -0.00 | X-H torsion
[ 27255 17213 17212 17211 ] final -177.20 input    0.00 | X-H torsion
[ 27257 17042 17041 17040 ] final   21.15 input    0.00 | X-H torsion
[ 27267 10127 10126 10125 ] final  121.83 input   -0.00 | X-H torsion
[ 27269 11404 11403 11402 ] final   21.67 input    0.00 | X-H torsion
[ 27275 11594 11593 11592 ] final   93.33 input   -0.00 | X-H torsion
[ 27284 18675 18674 18673 ] final   67.15 input    0.00 | X-H torsion

> <Gold.Protein.ActiveResidues>
 LYS309  TRP311  MET341  HIS342  TRP414  ALA417  ARG419  CYS420  VAL421  GLY422 
 ARG423  SER462  ALA463  SER482  GLN483  LEU484  ILE485  ARG486  ALA502  TRP566 
 TYR567  LEU569  PRO570  ALA571  VAL572  SER573  ASN574  MET575  PHE589  SER590 
 GLY591  TRP592  TYR593  MET594  GLU597  ILE598  ARG601  ASP602  ASP605  ARG608 
 TRP683  HIS697  GLU699  TYR711  HEM750  H4B760 

> <Gold.Protein.RotatedAtoms>
  188.3423   24.3671   42.7275 H   0  0  0  0  0  0  0  0  0  0  0  0  # atno 549  bound_to 517 
  189.6978   24.2166   41.7861 H   0  0  0  0  0  0  0  0  0  0  0  0  # atno 550  bound_to 517 
  189.5303   23.2935   43.1518 H   0  0  0  0  0  0  0  0  0  0  0  0  # atno 551  bound_to 517 
  197.5533   20.0811   45.3584 H   0  0  0  0  0  0  0  0  0  0  0  0  # atno 2542 bound_to 2515
  197.6713   19.1503   43.8831 H   0  0  0  0  0  0  0  0  0  0  0  0  # atno 2618 bound_to 2585
  197.7706    5.8568   50.4721 H   0  0  0  0  0  0  0  0  0  0  0  0  # atno 7430 bound_to 7405
  195.8154    5.8778   53.5068 H   0  0  0  0  0  0  0  0  0  0  0  0  # atno 7467 bound_to 7446
  194.2547    3.1066   54.0662 H   0  0  0  0  0  0  0  0  0  0  0  0  # atno 7519 bound_to 7507
  189.2829   -3.3558   50.7544 H   0  0  0  0  0  0  0  0  0  0  0  0  # atno 10108 bound_to 10086
  187.4129   -3.9132   47.2157 H   0  0  0  0  0  0  0  0  0  0  0  0  # atno 10144 bound_to 10124
  182.4444   12.6970   43.0767 H   0  0  0  0  0  0  0  0  0  0  0  0  # atno 11428 bound_to 11406
  183.2464    8.7581   42.5518 H   0  0  0  0  0  0  0  0  0  0  0  0  # atno 11483 bound_to 11448
  181.7973    5.2974   42.7317 H   0  0  0  0  0  0  0  0  0  0  0  0  # atno 11550 bound_to 11515
  178.6446    4.8701   44.0542 H   0  0  0  0  0  0  0  0  0  0  0  0  # atno 11626 bound_to 11591
  179.8981    9.5694   50.0312 H   0  0  0  0  0  0  0  0  0  0  0  0  # atno 16975 bound_to 16942
  183.3704    2.8871   48.4522 H   0  0  0  0  0  0  0  0  0  0  0  0  # atno 17183 bound_to 17168
  186.0577    4.1946   46.2433 H   0  0  0  0  0  0  0  0  0  0  0  0  # atno 17231 bound_to 17210
  185.0178    6.1673   42.5835 H   0  0  0  0  0  0  0  0  0  0  0  0  # atno 17291 bound_to 17273
  186.6359    7.3163   40.9388 H   0  0  0  0  0  0  0  0  0  0  0  0  # atno 17343 bound_to 17319
  187.0619    1.7948   42.8585 H   0  0  0  0  0  0  0  0  0  0  0  0  # atno 18223 bound_to 18190
  186.5966   -0.0660   45.2865 H   0  0  0  0  0  0  0  0  0  0  0  0  # atno 18283 bound_to 18265
  183.7281   -2.1288   46.8534 H   0  0  0  0  0  0  0  0  0  0  0  0  # atno 18287 bound_to 18270
  187.2111   -0.8495   48.8139 H   0  0  0  0  0  0  0  0  0  0  0  0  # atno 18322 bound_to 18307
  187.5231    0.3186   52.8465 H   0  0  0  0  0  0  0  0  0  0  0  0  # atno 18397 bound_to 18345
  185.8946    1.2636   55.7868 H   0  0  0  0  0  0  0  0  0  0  0  0  # atno 18484 bound_to 18439
  182.7590    7.8350   51.7526 H   0  0  0  0  0  0  0  0  0  0  0  0  # atno 18492 bound_to 18450
  187.9021    4.0793   56.5456 H   0  0  0  0  0  0  0  0  0  0  0  0  # atno 18552 bound_to 18519
  194.4405   11.7296   45.4651 H   0  0  0  0  0  0  0  0  0  0  0  0  # atno 26064 bound_to 26031
  192.9385   20.8316   51.6046 H   0  0  0  0  0  0  0  0  0  0  0  0  # atno 27154 bound_to 27102
  196.9970   18.7949   51.3259 H   0  0  0  0  0  0  0  0  0  0  0  0  # atno 27156 bound_to 27104
  197.6098   19.6713   47.0546 LP  0  0  0  0  0  0  0  0  0  0  0  0  # atno 27202 bound_to 2515
  197.3854   15.9306   43.7096 LP  0  0  0  0  0  0  0  0  0  0  0  0  # atno 27203 bound_to 2518
  196.4310   15.8061   45.1496 LP  0  0  0  0  0  0  0  0  0  0  0  0  # atno 27204 bound_to 2518
  196.3340   18.0375   44.0321 LP  0  0  0  0  0  0  0  0  0  0  0  0  # atno 27205 bound_to 2585
  193.1641   12.7386   45.4759 LP  0  0  0  0  0  0  0  0  0  0  0  0  # atno 27209 bound_to 26031
  194.6827   13.3385   45.4493 LP  0  0  0  0  0  0  0  0  0  0  0  0  # atno 27210 bound_to 26031
  193.3348   19.9886   52.9385 LP  0  0  0  0  0  0  0  0  0  0  0  0  # atno 27213 bound_to 27102
  192.2641   19.3748   51.8692 LP  0  0  0  0  0  0  0  0  0  0  0  0  # atno 27214 bound_to 27102
  195.9788    8.8817   52.0190 LP  0  0  0  0  0  0  0  0  0  0  0  0  # atno 27224 bound_to 7317
  194.9345    7.5592   51.6184 LP  0  0  0  0  0  0  0  0  0  0  0  0  # atno 27225 bound_to 7317
  196.5903    7.1401   50.5318 LP  0  0  0  0  0  0  0  0  0  0  0  0  # atno 27226 bound_to 7405
  198.0534    4.0149   51.8842 LP  0  0  0  0  0  0  0  0  0  0  0  0  # atno 27227 bound_to 7408
  197.9078    3.8409   53.6013 LP  0  0  0  0  0  0  0  0  0  0  0  0  # atno 27228 bound_to 7408
  195.2543    4.2631   53.1310 LP  0  0  0  0  0  0  0  0  0  0  0  0  # atno 27229 bound_to 7446
  195.8091    2.6909   54.7445 LP  0  0  0  0  0  0  0  0  0  0  0  0  # atno 27230 bound_to 7507
  184.8383    1.4199   49.0003 LP  0  0  0  0  0  0  0  0  0  0  0  0  # atno 27232 bound_to 17117
  185.8197    2.8382   48.8411 LP  0  0  0  0  0  0  0  0  0  0  0  0  # atno 27233 bound_to 17117
  183.0143    4.3922   47.6449 LP  0  0  0  0  0  0  0  0  0  0  0  0  # atno 27234 bound_to 17168
  184.9958    3.6055   44.9803 LP  0  0  0  0  0  0  0  0  0  0  0  0  # atno 27235 bound_to 17210
  187.0115    2.1969   45.7474 LP  0  0  0  0  0  0  0  0  0  0  0  0  # atno 27236 bound_to 18193
  185.5511    1.6667   44.9818 LP  0  0  0  0  0  0  0  0  0  0  0  0  # atno 27237 bound_to 18193
  187.6182   -1.2732   46.0268 LP  0  0  0  0  0  0  0  0  0  0  0  0  # atno 27238 bound_to 18265
  186.9584   -2.8815   47.9763 LP  0  0  0  0  0  0  0  0  0  0  0  0  # atno 27239 bound_to 18268
  188.4743   -2.2991   48.5787 LP  0  0  0  0  0  0  0  0  0  0  0  0  # atno 27240 bound_to 18268
  186.5531    0.4544   49.7761 LP  0  0  0  0  0  0  0  0  0  0  0  0  # atno 27241 bound_to 18307
  184.4900   -0.7543   51.8644 LP  0  0  0  0  0  0  0  0  0  0  0  0  # atno 27242 bound_to 18310
  185.1449   -2.3050   51.4562 LP  0  0  0  0  0  0  0  0  0  0  0  0  # atno 27243 bound_to 18310
  186.6994   -1.2089   52.6327 LP  0  0  0  0  0  0  0  0  0  0  0  0  # atno 27244 bound_to 18345
  187.5949    2.7599   54.9050 LP  0  0  0  0  0  0  0  0  0  0  0  0  # atno 27245 bound_to 18348
  187.9968    1.3839   53.9329 LP  0  0  0  0  0  0  0  0  0  0  0  0  # atno 27246 bound_to 18348
  184.5788    1.8176   54.7764 LP  0  0  0  0  0  0  0  0  0  0  0  0  # atno 27247 bound_to 18439
  186.2635    4.4044   57.0626 LP  0  0  0  0  0  0  0  0  0  0  0  0  # atno 27248 bound_to 18519
  182.7079    4.3148   44.5608 LP  0  0  0  0  0  0  0  0  0  0  0  0  # atno 27253 bound_to 17171
  183.6840    5.7288   44.7797 LP  0  0  0  0  0  0  0  0  0  0  0  0  # atno 27254 bound_to 17171
  186.6939    3.3996   41.6324 LP  0  0  0  0  0  0  0  0  0  0  0  0  # atno 27255 bound_to 17213
  187.0850    3.0639   43.2860 LP  0  0  0  0  0  0  0  0  0  0  0  0  # atno 27256 bound_to 17213
  179.5251    3.0637   49.3910 LP  0  0  0  0  0  0  0  0  0  0  0  0  # atno 27257 bound_to 17042
  181.0633    3.6059   48.8081 LP  0  0  0  0  0  0  0  0  0  0  0  0  # atno 27258 bound_to 17042
  186.5565    5.3534   42.4558 LP  0  0  0  0  0  0  0  0  0  0  0  0  # atno 27259 bound_to 17273
  181.3113    7.8553   52.4952 LP  0  0  0  0  0  0  0  0  0  0  0  0  # atno 27260 bound_to 18450
  181.6477    6.7040   51.3871 LP  0  0  0  0  0  0  0  0  0  0  0  0  # atno 27261 bound_to 18450
  186.8600    0.3608   41.8774 LP  0  0  0  0  0  0  0  0  0  0  0  0  # atno 27262 bound_to 18190
  184.7408   -2.4495   48.0856 LP  0  0  0  0  0  0  0  0  0  0  0  0  # atno 27263 bound_to 18270
  185.3188   -2.3109   46.5646 LP  0  0  0  0  0  0  0  0  0  0  0  0  # atno 27264 bound_to 18270
  190.6021   -4.2340   51.1250 LP  0  0  0  0  0  0  0  0  0  0  0  0  # atno 27265 bound_to 10086
  189.1325   -4.6938   51.6686 LP  0  0  0  0  0  0  0  0  0  0  0  0  # atno 27266 bound_to 10086
  188.2987   -2.4709   44.8116 LP  0  0  0  0  0  0  0  0  0  0  0  0  # atno 27267 bound_to 10127
  186.6570   -2.8092   45.2476 LP  0  0  0  0  0  0  0  0  0  0  0  0  # atno 27268 bound_to 10127
  185.4337    8.6844   42.4122 LP  0  0  0  0  0  0  0  0  0  0  0  0  # atno 27269 bound_to 11404
  184.5352    7.3001   42.9380 LP  0  0  0  0  0  0  0  0  0  0  0  0  # atno 27270 bound_to 11404
  180.3858    8.5929   48.8246 LP  0  0  0  0  0  0  0  0  0  0  0  0  # atno 27271 bound_to 16942
  181.0861    8.4898   50.2962 LP  0  0  0  0  0  0  0  0  0  0  0  0  # atno 27272 bound_to 16942
  181.5402    9.0598   42.7744 LP  0  0  0  0  0  0  0  0  0  0  0  0  # atno 27273 bound_to 11448
  181.0530    5.6022   44.2840 LP  0  0  0  0  0  0  0  0  0  0  0  0  # atno 27274 bound_to 11515
  179.6130    7.3848   47.0119 LP  0  0  0  0  0  0  0  0  0  0  0  0  # atno 27275 bound_to 11594
  178.5316    6.8865   48.2698 LP  0  0  0  0  0  0  0  0  0  0  0  0  # atno 27276 bound_to 11594
  179.6892    4.9587   45.4524 LP  0  0  0  0  0  0  0  0  0  0  0  0  # atno 27277 bound_to 11591
  182.5548   11.2524   43.8173 LP  0  0  0  0  0  0  0  0  0  0  0  0  # atno 27282 bound_to 11406
  181.6443   11.4159   42.4717 LP  0  0  0  0  0  0  0  0  0  0  0  0  # atno 27283 bound_to 11406
  184.4439   11.7339   54.6738 LP  0  0  0  0  0  0  0  0  0  0  0  0  # atno 27284 bound_to 18675
  184.1767   12.6727   56.1047 LP  0  0  0  0  0  0  0  0  0  0  0  0  # atno 27285 bound_to 18675

> <Gold.Score>
     Fitness  S(hb_ext) S(vdw_ext)  S(hb_int)    S(int)      intcor
     31.71       2.94      21.48       0.00      -0.76      -0.80

> <Gold.Goldscore.Fitness>
31.7137

> <Gold.Goldscore.Internal.Vdw>
-1.0190

> <Gold.Goldscore.Internal.Torsion>
-0.5442

> <Gold.Goldscore.External.Vdw>
21.4813

> <Gold.Goldscore.Internal.HBond>
0.0000

> <Gold.Goldscore.External.HBond>
2.9399

> <Gold.Goldscore.Internal.Correction>
-0.8003

> <Gold.Goldscore.Hbonds>
donor molecule, donor type, donor heavy atom, donor atom, acceptor molecule, acceptor atom, score
      L1  H    10    23       P1 26833  0.49

> <Gold.Goldscore.Internal.Vdw.Weighted>
-1.0190

> <Gold.Goldscore.Internal.Torsion.Weighted>
-0.5442

> <Gold.Goldscore.External.Vdw.Weighted>
29.5367

> <Gold.Goldscore.Internal.HBond.Weighted>
0.0000

> <Gold.Goldscore.External.HBond.Weighted>
2.9399

> <Gold.Goldscore.Internal.Correction.Weighted>
-0.8003

> <Gold.Rescore>
     Score     S(PLP)   S(hbond)     S(cho)   S(metal)  DE(clash)   DE(tors)     intcor
     29.49     -29.70       0.51       0.00       0.00       0.87       0.44       ----

> <Gold.PLP.Fitness>
29.4876

> <Gold.PLP.PLP>
-29.7006

> <Gold.PLP.part.hbond>
-2.3307

> <Gold.PLP.part.metal>
0.0000

> <Gold.PLP.part.buried>
-2.0388

> <Gold.PLP.part.nonpolar>
-27.9874

> <Gold.PLP.part.repulsive>
2.5893

> <Gold.PLP.ligand.clash>
0.8677

> <Gold.PLP.ligand.torsion>
0.4406

> <Gold.PLP.Chemscore.Hbond>
0.5120

> <Gold.PLP.Chemscore.CHOScore>
0.0000

> <Gold.PLP.Chemscore.Metal>
0.0000

> <Gold.Chemscore.Hbonds>
donor molecule, donor type, donor heavy atom, donor atom, acceptor molecule, acceptor atom, score
      L1  H    10    23       P1 26833  0.41
      P1  H 11455 11490       L1     9  0.01

> <Gold.PLP.Chemscore.Internal.Correction>
   9.000000E+99

