#       Name:                CT1002167954
#       Creating user name   hitesit
#       Creation time:       Sun Apr 16 22:56:35 2023


#       File generated by GOLD software.
#

@<TRIPOS>MOLECULE
CT1002167954|ligand_prepared|mol2|1|dock2
    29    30     1
SMALL
NO_CHARGES


@<TRIPOS>ATOM
      1 C1         185.8973   9.6822  49.7986 C.3            1 RES1               0.0000
      2 C2         186.3178  10.4928  48.5557 C.ar           1 RES1               0.0000
      3 C3         187.1441   9.5547  50.6689 C.2            1 RES1               0.0000
      4 C4         184.7602  10.4606  50.4510 C.2            1 RES1               0.0000
      5 C5         185.3787   8.2622  49.4724 C.3            1 RES1               0.0000
      6 C6         186.9579   9.8714  47.4876 C.ar           1 RES1               0.0000
      7 C7         186.0705  11.8598  48.4617 C.ar           1 RES1               0.0000
      8 N8         187.2026  10.3092  51.8034 N.am           1 RES1               0.0000
      9 O9         188.0789   8.8328  50.3443 O.2            1 RES1               0.0000
     10 N10        184.9794  10.9982  51.6922 N.am           1 RES1               0.0000
     11 O11        183.6820  10.6274  49.8942 O.2            1 RES1               0.0000
     12 C12        184.7115   7.5678  50.6491 C.3            1 RES1               0.0000
     13 C13        187.3344  10.5898  46.3649 C.ar           1 RES1               0.0000
     14 C14        186.4481  12.5764  47.3382 C.ar           1 RES1               0.0000
     15 C15        186.1593  10.9839  52.3848 C.2            1 RES1               0.0000
     16 C16        187.0794  11.9425  46.2892 C.ar           1 RES1               0.0000
     17 O17        186.2940  11.5368  53.4726 O.2            1 RES1               0.0000
     18 H18        184.6584   8.3302  48.6478 H              1 RES1               0.0000
     19 H19        186.2214   7.6482  49.1316 H              1 RES1               0.0000
     20 H20        187.1691   8.8081  47.5302 H              1 RES1               0.0000
     21 H21        185.5760  12.3796  49.2753 H              1 RES1               0.0000
     22 H22        188.1056  10.3784  52.2618 H              1 RES1               0.0000
     23 H23        184.1897  11.4508  52.1416 H              1 RES1               0.0000
     24 H24        184.3662   6.5756  50.3662 H              1 RES1               0.0000
     25 H25        185.4072   7.4606  51.4788 H              1 RES1               0.0000
     26 H26        183.8534   8.1386  50.9979 H              1 RES1               0.0000
     27 H27        187.8322  10.0865  45.5427 H              1 RES1               0.0000
     28 H28        186.2460  13.6410  47.2832 H              1 RES1               0.0000
     29 H29        187.3742  12.5050  45.4095 H              1 RES1               0.0000
@<TRIPOS>BOND
    1    1    2 1     
    2    1    3 1     
    3    1    4 1     
    4    1    5 1     
    5    2    6 ar    
    6    2    7 ar    
    7    3    8 1     
    8    3    9 2     
    9    4   10 1     
   10    4   11 2     
   11    5   12 1     
   12    5   18 1     
   13    5   19 1     
   14    6   13 ar    
   15    6   20 1     
   16    7   14 ar    
   17    7   21 1     
   18    8   15 1     
   19    8   22 1     
   20   10   15 1     
   21   10   23 1     
   22   12   24 1     
   23   12   25 1     
   24   12   26 1     
   25   13   16 ar    
   26   13   27 1     
   27   14   16 ar    
   28   14   28 1     
   29   15   17 2     
   30   16   29 1     
@<TRIPOS>SUBSTRUCTURE
      1 RES1           1
@<TRIPOS>SET
DONOR_HYDROGENS      STATIC     ATOMS    <user>   **** ""
2 22 23
ATOM$RED        STATIC     ATOMS    COLORGROUP SYSTEM
2 22 23
@<TRIPOS>COMMENT
> <Gold.Version>
2022.3.0

> <Gold.Id.Protein>
unknown|4v3u_clean|pdb

> <Gold.Protein.RotatedTorsions>
[  549  517  516  515 ] final  -72.15 input   59.99 | X-H torsion
[ 2542 2515 2516 2517 ] final   47.49 input  113.65 | X-H torsion
[ 2618 2585 2586 2587 ] final  150.36 input   46.31 | X-H torsion
[ 26064 26031 26030 26028 ] final  169.52 input   59.98 | X-H torsion
[ 27154 27102 27101 27097 ] final  165.68 input   60.00 | X-H torsion
[ 7430 7405 7406 7407 ] final   -8.48 input   81.33 | X-H torsion
[ 7467 7446 7447 7448 ] final  112.44 input   92.53 | X-H torsion
[ 7519 7507 7508 7509 ] final -108.68 input   89.47 | X-H torsion
[ 17183 17168 17169 17170 ] final  -86.25 input   55.70 | X-H torsion
[ 17231 17210 17211 17212 ] final   -5.39 input  101.26 | X-H torsion
[ 18283 18265 18266 18267 ] final   25.27 input   32.88 | X-H torsion
[ 18322 18307 18308 18309 ] final   69.25 input   53.35 | X-H torsion
[ 18397 18345 18346 18347 ] final  137.93 input   36.30 | X-H torsion
[ 18484 18439 18440 18441 ] final -144.10 input   98.15 | X-H torsion
[ 18552 18519 18520 18521 ] final -117.57 input   94.34 | X-H torsion
[ 17291 17273 17274 17275 ] final  156.23 input   50.38 | X-H torsion
[ 18492 18450 18449 18447 ] final  136.26 input   59.99 | X-H torsion
[ 18223 18190 18191 18192 ] final  -76.42 input   49.82 | X-H torsion
[ 18287 18270 18269 18266 ] final  -56.46 input   60.01 | X-H torsion
[ 10108 10086 10085 10082 ] final    3.93 input   60.00 | X-H torsion
[ 16975 16942 16941 16939 ] final -153.11 input   60.00 | X-H torsion
[ 11483 11448 11449 11450 ] final  104.89 input   47.08 | X-H torsion
[ 11550 11515 11516 11517 ] final    2.89 input  121.60 | X-H torsion
[ 11626 11591 11592 11593 ] final  107.35 input   57.19 | X-H torsion
[ 11428 11406 11405 11402 ] final -121.65 input   60.00 | X-H torsion
[ 27156 27104 27103 27101 ] final  127.47 input   60.02 | X-H torsion
[ 10144 10124 10125 10126 ] final   49.56 input   16.22 | X-H torsion
[ 17343 17319 17320 17321 ] final   97.38 input   65.41 | X-H torsion
[ 27203 2518 2517 2516 ] final   75.51 input    0.00 | X-H torsion
[ 27224 7317 7316 7315 ] final  -94.38 input    0.00 | X-H torsion
[ 27227 7408 7407 7406 ] final   24.61 input   -0.00 | X-H torsion
[ 27232 17117 17116 17115 ] final  163.99 input    0.00 | X-H torsion
[ 27236 18193 18192 18191 ] final  118.93 input    0.00 | X-H torsion
[ 27239 18268 18267 18266 ] final  -19.06 input    0.00 | X-H torsion
[ 27242 18310 18309 18308 ] final  150.71 input   -0.00 | X-H torsion
[ 27245 18348 18347 18346 ] final -108.06 input    0.00 | X-H torsion
[ 27253 17171 17170 17169 ] final   21.56 input   -0.00 | X-H torsion
[ 27255 17213 17212 17211 ] final -144.63 input    0.00 | X-H torsion
[ 27257 17042 17041 17040 ] final    7.19 input    0.00 | X-H torsion
[ 27267 10127 10126 10125 ] final  -56.35 input   -0.00 | X-H torsion
[ 27269 11404 11403 11402 ] final  134.15 input    0.00 | X-H torsion
[ 27275 11594 11593 11592 ] final  -26.32 input   -0.00 | X-H torsion
[ 27284 18675 18674 18673 ] final -109.40 input    0.00 | X-H torsion

> <Gold.Protein.ActiveResidues>
 LYS309  TRP311  MET341  HIS342  TRP414  ALA417  ARG419  CYS420  VAL421  GLY422 
 ARG423  SER462  ALA463  SER482  GLN483  LEU484  ILE485  ARG486  ALA502  TRP566 
 TYR567  LEU569  PRO570  ALA571  VAL572  SER573  ASN574  MET575  PHE589  SER590 
 GLY591  TRP592  TYR593  MET594  GLU597  ILE598  ARG601  ASP602  ASP605  ARG608 
 TRP683  HIS697  GLU699  TYR711  HEM750  H4B760 

> <Gold.Protein.RotatedAtoms>
  189.7168   24.1994   41.7937 H   0  0  0  0  0  0  0  0  0  0  0  0  # atno 549  bound_to 517 
  189.5084   23.2955   43.1670 H   0  0  0  0  0  0  0  0  0  0  0  0  # atno 550  bound_to 517 
  188.3455   24.3817   42.7052 H   0  0  0  0  0  0  0  0  0  0  0  0  # atno 551  bound_to 517 
  197.4250   20.1596   45.3957 H   0  0  0  0  0  0  0  0  0  0  0  0  # atno 2542 bound_to 2515
  196.1462   18.3920   43.8342 H   0  0  0  0  0  0  0  0  0  0  0  0  # atno 2618 bound_to 2585
  197.6941    6.4790   51.2110 H   0  0  0  0  0  0  0  0  0  0  0  0  # atno 7430 bound_to 7405
  194.9387    5.6057   53.6903 H   0  0  0  0  0  0  0  0  0  0  0  0  # atno 7467 bound_to 7446
  195.2660    2.9476   55.2586 H   0  0  0  0  0  0  0  0  0  0  0  0  # atno 7519 bound_to 7507
  188.7442   -3.9928   51.2644 H   0  0  0  0  0  0  0  0  0  0  0  0  # atno 10108 bound_to 10086
  187.1724   -4.0285   47.2876 H   0  0  0  0  0  0  0  0  0  0  0  0  # atno 10144 bound_to 10124
  182.0992   12.5831   42.6373 H   0  0  0  0  0  0  0  0  0  0  0  0  # atno 11428 bound_to 11406
  182.1125    9.3726   43.3667 H   0  0  0  0  0  0  0  0  0  0  0  0  # atno 11483 bound_to 11448
  180.9151    5.8550   44.1221 H   0  0  0  0  0  0  0  0  0  0  0  0  # atno 11550 bound_to 11515
  179.4174    4.3430   45.3895 H   0  0  0  0  0  0  0  0  0  0  0  0  # atno 11626 bound_to 11591
  180.9543    8.2135   49.3000 H   0  0  0  0  0  0  0  0  0  0  0  0  # atno 16975 bound_to 16942
  183.9912    3.7102   48.4024 H   0  0  0  0  0  0  0  0  0  0  0  0  # atno 17183 bound_to 17168
  185.2734    3.4074   44.8914 H   0  0  0  0  0  0  0  0  0  0  0  0  # atno 17231 bound_to 17210
  185.1091    5.3147   42.8511 H   0  0  0  0  0  0  0  0  0  0  0  0  # atno 17291 bound_to 17273
  186.3966    7.3867   40.9032 H   0  0  0  0  0  0  0  0  0  0  0  0  # atno 17343 bound_to 17319
  186.2222    0.5726   42.3498 H   0  0  0  0  0  0  0  0  0  0  0  0  # atno 18223 bound_to 18190
  187.3851   -1.4566   45.9626 H   0  0  0  0  0  0  0  0  0  0  0  0  # atno 18283 bound_to 18265
  185.0801   -2.2469   46.3692 H   0  0  0  0  0  0  0  0  0  0  0  0  # atno 18287 bound_to 18270
  186.9537    0.5943   49.7122 H   0  0  0  0  0  0  0  0  0  0  0  0  # atno 18322 bound_to 18307
  187.0513   -1.2888   53.0355 H   0  0  0  0  0  0  0  0  0  0  0  0  # atno 18397 bound_to 18345
  185.2476    1.8643   54.4473 H   0  0  0  0  0  0  0  0  0  0  0  0  # atno 18484 bound_to 18439
  181.5658    6.7124   51.4396 H   0  0  0  0  0  0  0  0  0  0  0  0  # atno 18492 bound_to 18450
  186.9834    3.4565   57.2045 H   0  0  0  0  0  0  0  0  0  0  0  0  # atno 18552 bound_to 18519
  195.0115   12.7968   45.4471 H   0  0  0  0  0  0  0  0  0  0  0  0  # atno 26064 bound_to 26031
  193.1386   20.9051   51.8402 H   0  0  0  0  0  0  0  0  0  0  0  0  # atno 27154 bound_to 27102
  196.9936   20.1068   50.1361 H   0  0  0  0  0  0  0  0  0  0  0  0  # atno 27156 bound_to 27104
  197.7359   19.5942   47.0180 LP  0  0  0  0  0  0  0  0  0  0  0  0  # atno 27202 bound_to 2515
  196.0426   15.8401   44.4317 LP  0  0  0  0  0  0  0  0  0  0  0  0  # atno 27203 bound_to 2518
  197.7738   15.8965   44.4275 LP  0  0  0  0  0  0  0  0  0  0  0  0  # atno 27204 bound_to 2518
  197.8304   18.7815   44.0801 LP  0  0  0  0  0  0  0  0  0  0  0  0  # atno 27205 bound_to 2585
  193.8075   11.7029   45.4768 LP  0  0  0  0  0  0  0  0  0  0  0  0  # atno 27209 bound_to 26031
  193.4641   13.2993   45.4665 LP  0  0  0  0  0  0  0  0  0  0  0  0  # atno 27210 bound_to 26031
  193.1766   19.7104   52.9439 LP  0  0  0  0  0  0  0  0  0  0  0  0  # atno 27213 bound_to 27102
  192.2208   19.5788   51.6264 LP  0  0  0  0  0  0  0  0  0  0  0  0  # atno 27214 bound_to 27102
  195.9505    8.1495   52.5266 LP  0  0  0  0  0  0  0  0  0  0  0  0  # atno 27224 bound_to 7317
  194.9628    8.2915   51.1108 LP  0  0  0  0  0  0  0  0  0  0  0  0  # atno 27225 bound_to 7317
  196.6658    6.5260   49.8025 LP  0  0  0  0  0  0  0  0  0  0  0  0  # atno 27226 bound_to 7405
  198.2299    4.3566   52.0328 LP  0  0  0  0  0  0  0  0  0  0  0  0  # atno 27227 bound_to 7408
  197.7312    3.4992   53.4527 LP  0  0  0  0  0  0  0  0  0  0  0  0  # atno 27228 bound_to 7408
  196.1033    4.5267   52.9533 LP  0  0  0  0  0  0  0  0  0  0  0  0  # atno 27229 bound_to 7446
  194.8166    2.8469   53.5743 LP  0  0  0  0  0  0  0  0  0  0  0  0  # atno 27230 bound_to 7507
  185.2539    1.9100   48.0862 LP  0  0  0  0  0  0  0  0  0  0  0  0  # atno 27232 bound_to 17117
  185.4040    2.3481   49.7552 LP  0  0  0  0  0  0  0  0  0  0  0  0  # atno 27233 bound_to 17117
  182.4022    3.5808   47.6939 LP  0  0  0  0  0  0  0  0  0  0  0  0  # atno 27234 bound_to 17168
  185.7501    4.3628   46.2806 LP  0  0  0  0  0  0  0  0  0  0  0  0  # atno 27235 bound_to 17210
  185.4989    1.5791   45.4801 LP  0  0  0  0  0  0  0  0  0  0  0  0  # atno 27236 bound_to 18193
  187.0638    2.2845   45.2491 LP  0  0  0  0  0  0  0  0  0  0  0  0  # atno 27237 bound_to 18193
  186.8443    0.0918   45.3632 LP  0  0  0  0  0  0  0  0  0  0  0  0  # atno 27238 bound_to 18265
  187.2432   -2.6819   47.5580 LP  0  0  0  0  0  0  0  0  0  0  0  0  # atno 27239 bound_to 18268
  188.1896   -2.4988   48.9970 LP  0  0  0  0  0  0  0  0  0  0  0  0  # atno 27240 bound_to 18268
  186.8032   -0.9489   48.9030 LP  0  0  0  0  0  0  0  0  0  0  0  0  # atno 27241 bound_to 18307
  184.7108   -1.6611   52.5096 LP  0  0  0  0  0  0  0  0  0  0  0  0  # atno 27242 bound_to 18310
  184.9241   -1.3982   50.8110 LP  0  0  0  0  0  0  0  0  0  0  0  0  # atno 27243 bound_to 18310
  187.1584    0.3549   52.4487 LP  0  0  0  0  0  0  0  0  0  0  0  0  # atno 27244 bound_to 18345
  188.0108    1.8849   55.2367 LP  0  0  0  0  0  0  0  0  0  0  0  0  # atno 27245 bound_to 18348
  187.5810    2.2589   53.6011 LP  0  0  0  0  0  0  0  0  0  0  0  0  # atno 27246 bound_to 18348
  185.2076    1.2337   56.0782 LP  0  0  0  0  0  0  0  0  0  0  0  0  # atno 27247 bound_to 18439
  187.1574    5.0104   56.4215 LP  0  0  0  0  0  0  0  0  0  0  0  0  # atno 27248 bound_to 18519
  182.6174    4.7938   45.2730 LP  0  0  0  0  0  0  0  0  0  0  0  0  # atno 27253 bound_to 17171
  183.7745    5.2499   44.0675 LP  0  0  0  0  0  0  0  0  0  0  0  0  # atno 27254 bound_to 17171
  187.1425    3.5711   41.7037 LP  0  0  0  0  0  0  0  0  0  0  0  0  # atno 27255 bound_to 17213
  186.6364    2.8925   43.2147 LP  0  0  0  0  0  0  0  0  0  0  0  0  # atno 27256 bound_to 17213
  179.5487    2.9176   49.2415 LP  0  0  0  0  0  0  0  0  0  0  0  0  # atno 27257 bound_to 17042
  181.0397    3.7521   48.9576 LP  0  0  0  0  0  0  0  0  0  0  0  0  # atno 27258 bound_to 17042
  186.4668    6.1919   42.1927 LP  0  0  0  0  0  0  0  0  0  0  0  0  # atno 27259 bound_to 17273
  182.7793    7.7686   51.6839 LP  0  0  0  0  0  0  0  0  0  0  0  0  # atno 27260 bound_to 18450
  181.3810    7.9209   52.5135 LP  0  0  0  0  0  0  0  0  0  0  0  0  # atno 27261 bound_to 18450
  187.6749    1.5468   42.3710 LP  0  0  0  0  0  0  0  0  0  0  0  0  # atno 27262 bound_to 18190
  183.6600   -2.1661   47.1587 LP  0  0  0  0  0  0  0  0  0  0  0  0  # atno 27263 bound_to 18270
  185.0375   -2.4754   47.9793 LP  0  0  0  0  0  0  0  0  0  0  0  0  # atno 27264 bound_to 18270
  190.1710   -3.4657   50.6855 LP  0  0  0  0  0  0  0  0  0  0  0  0  # atno 27265 bound_to 10086
  190.1060   -4.8206   51.5946 LP  0  0  0  0  0  0  0  0  0  0  0  0  # atno 27266 bound_to 10086
  186.6653   -2.8140   45.2734 LP  0  0  0  0  0  0  0  0  0  0  0  0  # atno 27267 bound_to 10127
  188.2905   -2.4660   44.7859 LP  0  0  0  0  0  0  0  0  0  0  0  0  # atno 27268 bound_to 10127
  184.8214    8.0068   43.5255 LP  0  0  0  0  0  0  0  0  0  0  0  0  # atno 27269 bound_to 11404
  185.1475    7.9778   41.8247 LP  0  0  0  0  0  0  0  0  0  0  0  0  # atno 27270 bound_to 11404
  180.6135    9.0965   50.6234 LP  0  0  0  0  0  0  0  0  0  0  0  0  # atno 27271 bound_to 16942
  179.7942    9.3524   49.2342 LP  0  0  0  0  0  0  0  0  0  0  0  0  # atno 27272 bound_to 16942
  182.6489    8.4589   41.9777 LP  0  0  0  0  0  0  0  0  0  0  0  0  # atno 27273 bound_to 11448
  181.9134    5.0584   42.9281 LP  0  0  0  0  0  0  0  0  0  0  0  0  # atno 27274 bound_to 11515
  179.0425    6.3024   47.8749 LP  0  0  0  0  0  0  0  0  0  0  0  0  # atno 27275 bound_to 11594
  179.1021    7.9689   47.4069 LP  0  0  0  0  0  0  0  0  0  0  0  0  # atno 27276 bound_to 11594
  178.9341    5.4737   44.1477 LP  0  0  0  0  0  0  0  0  0  0  0  0  # atno 27277 bound_to 11591
  182.7599   11.7839   43.8913 LP  0  0  0  0  0  0  0  0  0  0  0  0  # atno 27282 bound_to 11406
  181.7871   10.9991   42.8404 LP  0  0  0  0  0  0  0  0  0  0  0  0  # atno 27283 bound_to 11406
  184.2269   12.6867   56.1030 LP  0  0  0  0  0  0  0  0  0  0  0  0  # atno 27284 bound_to 18675
  184.3937   11.7199   54.6755 LP  0  0  0  0  0  0  0  0  0  0  0  0  # atno 27285 bound_to 18675

> <Gold.Score>
     Fitness  S(hb_ext) S(vdw_ext)  S(hb_int)    S(int)      intcor
     32.86       7.16      19.28       0.00      -0.81      -0.81

> <Gold.Goldscore.Fitness>
32.8578

> <Gold.Goldscore.Internal.Vdw>
-1.0536

> <Gold.Goldscore.Internal.Torsion>
-0.5672

> <Gold.Goldscore.External.Vdw>
19.2811

> <Gold.Goldscore.Internal.HBond>
0.0000

> <Gold.Goldscore.External.HBond>
7.1598

> <Gold.Goldscore.Internal.Correction>
-0.8073

> <Gold.Goldscore.Hbonds>
donor molecule, donor type, donor heavy atom, donor atom, acceptor molecule, acceptor atom, score
      P1  H 11455 11489       L1    11  0.54
      L1  H     8    22       P1 26832  0.01
      L1  H    10    23       P1 19001  1.00

> <Gold.Goldscore.Internal.Vdw.Weighted>
-1.0536

> <Gold.Goldscore.Internal.Torsion.Weighted>
-0.5672

> <Gold.Goldscore.External.Vdw.Weighted>
26.5115

> <Gold.Goldscore.Internal.HBond.Weighted>
0.0000

> <Gold.Goldscore.External.HBond.Weighted>
7.1598

> <Gold.Goldscore.Internal.Correction.Weighted>
-0.8073

> <Gold.Rescore>
     Score     S(PLP)   S(hbond)     S(cho)   S(metal)  DE(clash)   DE(tors)     intcor
     12.21      -8.31       1.85       0.00       0.00       0.11       0.77       ----

> <Gold.PLP.Fitness>
12.2069

> <Gold.PLP.PLP>
-8.3123

> <Gold.PLP.part.hbond>
-3.5248

> <Gold.PLP.part.metal>
0.0000

> <Gold.PLP.part.buried>
7.6301

> <Gold.PLP.part.nonpolar>
-14.8494

> <Gold.PLP.part.repulsive>
2.2483

> <Gold.PLP.ligand.clash>
0.1118

> <Gold.PLP.ligand.torsion>
0.7709

> <Gold.PLP.Chemscore.Hbond>
1.8494

> <Gold.PLP.Chemscore.CHOScore>
0.0000

> <Gold.PLP.Chemscore.Metal>
0.0000

> <Gold.Chemscore.Hbonds>
donor molecule, donor type, donor heavy atom, donor atom, acceptor molecule, acceptor atom, score
      L1  H    10    23       P1 19001  1.00
      P1  H 11455 11489       L1    11  0.68

> <Gold.PLP.Chemscore.Internal.Correction>
   9.000000E+99

