#       Name:                CT1002167954
#       Creating user name   hitesit
#       Creation time:       Sun Apr 16 22:56:40 2023


#       File generated by GOLD software.
#

@<TRIPOS>MOLECULE
CT1002167954|ligand_prepared|mol2|1|dock9
    29    30     1
SMALL
NO_CHARGES


@<TRIPOS>ATOM
      1 C1         186.9917  12.3104  49.1822 C.3            1 RES1               0.0000
      2 C2         187.3732  10.8162  49.1559 C.ar           1 RES1               0.0000
      3 C3         185.9229  12.4607  50.2608 C.2            1 RES1               0.0000
      4 C4         188.2792  13.0743  49.4713 C.2            1 RES1               0.0000
      5 C5         186.4167  12.8321  47.8448 C.3            1 RES1               0.0000
      6 C6         188.2414  10.3235  48.1862 C.ar           1 RES1               0.0000
      7 C7         186.8681   9.9205  50.0945 C.ar           1 RES1               0.0000
      8 N8         186.2884  13.0512  51.4345 N.am           1 RES1               0.0000
      9 O9         184.7870  12.0321  50.0989 O.2            1 RES1               0.0000
     10 N10        188.3691  13.7556  50.6569 N.am           1 RES1               0.0000
     11 O11        189.2229  13.0788  48.6906 O.2            1 RES1               0.0000
     12 C12        186.0086  14.2964  47.8825 C.3            1 RES1               0.0000
     13 C13        188.5942   8.9844  48.1577 C.ar           1 RES1               0.0000
     14 C14        187.2220   8.5817  50.0640 C.ar           1 RES1               0.0000
     15 C15        187.4440  13.7534  51.6651 C.2            1 RES1               0.0000
     16 C16        188.0851   8.1128  49.0967 C.ar           1 RES1               0.0000
     17 O17        187.6205  14.3468  52.7253 O.2            1 RES1               0.0000
     18 H18        187.1702  12.6956  47.0593 H              1 RES1               0.0000
     19 H19        185.5407  12.2282  47.5776 H              1 RES1               0.0000
     20 H20        188.6501  10.9939  47.4375 H              1 RES1               0.0000
     21 H21        186.1866  10.2668  50.8641 H              1 RES1               0.0000
     22 H22        185.6429  12.9624  52.2128 H              1 RES1               0.0000
     23 H23        189.2028  14.3163  50.8011 H              1 RES1               0.0000
     24 H24        185.6120  14.6112  46.9195 H              1 RES1               0.0000
     25 H25        185.2417  14.4638  48.6359 H              1 RES1               0.0000
     26 H26        186.8615  14.9285  48.1207 H              1 RES1               0.0000
     27 H27        189.2728   8.6202  47.3934 H              1 RES1               0.0000
     28 H28        186.8184   7.8991  50.8047 H              1 RES1               0.0000
     29 H29        188.3620   7.0640  49.0743 H              1 RES1               0.0000
@<TRIPOS>BOND
    1    1    2 1     
    2    1    3 1     
    3    1    4 1     
    4    1    5 1     
    5    2    6 ar    
    6    2    7 ar    
    7    3    8 1     
    8    3    9 2     
    9    4   10 1     
   10    4   11 2     
   11    5   12 1     
   12    5   18 1     
   13    5   19 1     
   14    6   13 ar    
   15    6   20 1     
   16    7   14 ar    
   17    7   21 1     
   18    8   15 1     
   19    8   22 1     
   20   10   15 1     
   21   10   23 1     
   22   12   24 1     
   23   12   25 1     
   24   12   26 1     
   25   13   16 ar    
   26   13   27 1     
   27   14   16 ar    
   28   14   28 1     
   29   15   17 2     
   30   16   29 1     
@<TRIPOS>SUBSTRUCTURE
      1 RES1           1
@<TRIPOS>SET
DONOR_HYDROGENS      STATIC     ATOMS    <user>   **** ""
2 22 23
ATOM$RED        STATIC     ATOMS    COLORGROUP SYSTEM
2 22 23
@<TRIPOS>COMMENT
> <Gold.Version>
2022.3.0

> <Gold.Id.Protein>
unknown|4v3u_clean|pdb

> <Gold.Protein.RotatedTorsions>
[  549  517  516  515 ] final  -55.52 input   59.99 | X-H torsion
[ 2542 2515 2516 2517 ] final -130.77 input  113.65 | X-H torsion
[ 2618 2585 2586 2587 ] final  150.54 input   46.31 | X-H torsion
[ 26064 26031 26030 26028 ] final   23.46 input   59.98 | X-H torsion
[ 27154 27102 27101 27097 ] final   81.24 input   60.00 | X-H torsion
[ 7430 7405 7406 7407 ] final   96.87 input   81.33 | X-H torsion
[ 7467 7446 7447 7448 ] final -122.06 input   92.53 | X-H torsion
[ 7519 7507 7508 7509 ] final    5.59 input   89.47 | X-H torsion
[ 17183 17168 17169 17170 ] final  138.15 input   55.70 | X-H torsion
[ 17231 17210 17211 17212 ] final  -23.08 input  101.26 | X-H torsion
[ 18283 18265 18266 18267 ] final    4.62 input   32.88 | X-H torsion
[ 18322 18307 18308 18309 ] final  175.46 input   53.35 | X-H torsion
[ 18397 18345 18346 18347 ] final  160.22 input   36.30 | X-H torsion
[ 18484 18439 18440 18441 ] final   16.82 input   98.15 | X-H torsion
[ 18552 18519 18520 18521 ] final -125.42 input   94.34 | X-H torsion
[ 17291 17273 17274 17275 ] final   91.38 input   50.38 | X-H torsion
[ 18492 18450 18449 18447 ] final   28.18 input   59.99 | X-H torsion
[ 18223 18190 18191 18192 ] final  158.32 input   49.82 | X-H torsion
[ 18287 18270 18269 18266 ] final   36.37 input   60.01 | X-H torsion
[ 10108 10086 10085 10082 ] final  176.89 input   60.00 | X-H torsion
[ 16975 16942 16941 16939 ] final   46.41 input   60.00 | X-H torsion
[ 11483 11448 11449 11450 ] final   14.88 input   47.08 | X-H torsion
[ 11550 11515 11516 11517 ] final  -20.30 input  121.60 | X-H torsion
[ 11626 11591 11592 11593 ] final    8.53 input   57.19 | X-H torsion
[ 11428 11406 11405 11402 ] final  -55.22 input   60.00 | X-H torsion
[ 27156 27104 27103 27101 ] final -156.55 input   60.02 | X-H torsion
[ 10144 10124 10125 10126 ] final  130.01 input   16.22 | X-H torsion
[ 17343 17319 17320 17321 ] final -138.58 input   65.41 | X-H torsion
[ 27203 2518 2517 2516 ] final -164.53 input    0.00 | X-H torsion
[ 27224 7317 7316 7315 ] final  112.47 input    0.00 | X-H torsion
[ 27227 7408 7407 7406 ] final -171.72 input   -0.00 | X-H torsion
[ 27232 17117 17116 17115 ] final  129.03 input    0.00 | X-H torsion
[ 27236 18193 18192 18191 ] final  162.85 input    0.00 | X-H torsion
[ 27239 18268 18267 18266 ] final  -48.03 input    0.00 | X-H torsion
[ 27242 18310 18309 18308 ] final -145.59 input   -0.00 | X-H torsion
[ 27245 18348 18347 18346 ] final  100.70 input    0.00 | X-H torsion
[ 27253 17171 17170 17169 ] final   31.56 input   -0.00 | X-H torsion
[ 27255 17213 17212 17211 ] final  -80.86 input    0.00 | X-H torsion
[ 27257 17042 17041 17040 ] final   94.79 input    0.00 | X-H torsion
[ 27267 10127 10126 10125 ] final  139.44 input   -0.00 | X-H torsion
[ 27269 11404 11403 11402 ] final   72.06 input    0.00 | X-H torsion
[ 27275 11594 11593 11592 ] final   76.76 input   -0.00 | X-H torsion
[ 27284 18675 18674 18673 ] final  165.62 input    0.00 | X-H torsion

> <Gold.Protein.ActiveResidues>
 LYS309  TRP311  MET341  HIS342  TRP414  ALA417  ARG419  CYS420  VAL421  GLY422 
 ARG423  SER462  ALA463  SER482  GLN483  LEU484  ILE485  ARG486  ALA502  TRP566 
 TYR567  LEU569  PRO570  ALA571  VAL572  SER573  ASN574  MET575  PHE589  SER590 
 GLY591  TRP592  TYR593  MET594  GLU597  ILE598  ARG601  ASP602  ASP605  ARG608 
 TRP683  HIS697  GLU699  TYR711  HEM750  H4B760 

> <Gold.Protein.RotatedAtoms>
  189.8870   24.0100   41.9018 H   0  0  0  0  0  0  0  0  0  0  0  0  # atno 549  bound_to 517 
  189.2684   23.3534   43.2921 H   0  0  0  0  0  0  0  0  0  0  0  0  # atno 550  bound_to 517 
  188.4153   24.5132   42.4720 H   0  0  0  0  0  0  0  0  0  0  0  0  # atno 551  bound_to 517 
  197.7620   19.5790   47.0239 H   0  0  0  0  0  0  0  0  0  0  0  0  # atno 2542 bound_to 2515
  196.1466   18.3895   43.8354 H   0  0  0  0  0  0  0  0  0  0  0  0  # atno 2618 bound_to 2585
  197.4522    5.8439   49.9913 H   0  0  0  0  0  0  0  0  0  0  0  0  # atno 7430 bound_to 7405
  196.3758    5.2600   53.1294 H   0  0  0  0  0  0  0  0  0  0  0  0  # atno 7467 bound_to 7446
  195.6816    2.6076   53.8790 H   0  0  0  0  0  0  0  0  0  0  0  0  # atno 7519 bound_to 7507
  190.5871   -4.2887   51.1615 H   0  0  0  0  0  0  0  0  0  0  0  0  # atno 10108 bound_to 10086
  186.9397   -5.0583   47.7059 H   0  0  0  0  0  0  0  0  0  0  0  0  # atno 10144 bound_to 10124
  181.6583   11.6950   42.3755 H   0  0  0  0  0  0  0  0  0  0  0  0  # atno 11428 bound_to 11406
  181.5456    8.8189   42.4009 H   0  0  0  0  0  0  0  0  0  0  0  0  # atno 11483 bound_to 11448
  180.8629    6.0607   43.8364 H   0  0  0  0  0  0  0  0  0  0  0  0  # atno 11550 bound_to 11515
  179.6238    5.6226   45.0394 H   0  0  0  0  0  0  0  0  0  0  0  0  # atno 11626 bound_to 11591
  180.1399    9.4685   50.3790 H   0  0  0  0  0  0  0  0  0  0  0  0  # atno 16975 bound_to 16942
  182.5671    3.0275   48.0124 H   0  0  0  0  0  0  0  0  0  0  0  0  # atno 17183 bound_to 17168
  185.0473    3.5609   44.9167 H   0  0  0  0  0  0  0  0  0  0  0  0  # atno 17231 bound_to 17210
  185.0409    6.2106   42.5627 H   0  0  0  0  0  0  0  0  0  0  0  0  # atno 17291 bound_to 17273
  185.7555    6.5238   39.7772 H   0  0  0  0  0  0  0  0  0  0  0  0  # atno 17343 bound_to 17319
  187.6995    0.8934   41.9021 H   0  0  0  0  0  0  0  0  0  0  0  0  # atno 18223 bound_to 18190
  187.6357   -1.2778   46.0334 H   0  0  0  0  0  0  0  0  0  0  0  0  # atno 18283 bound_to 18265
  185.3584   -2.4736   47.6764 H   0  0  0  0  0  0  0  0  0  0  0  0  # atno 18287 bound_to 18270
  187.6612   -0.3433   48.9167 H   0  0  0  0  0  0  0  0  0  0  0  0  # atno 18322 bound_to 18307
  186.8089   -1.2890   52.7935 H   0  0  0  0  0  0  0  0  0  0  0  0  # atno 18397 bound_to 18345
  185.4974    1.2174   56.0533 H   0  0  0  0  0  0  0  0  0  0  0  0  # atno 18484 bound_to 18439
  182.7772    7.6146   51.5638 H   0  0  0  0  0  0  0  0  0  0  0  0  # atno 18492 bound_to 18450
  187.0969    3.4345   57.1675 H   0  0  0  0  0  0  0  0  0  0  0  0  # atno 18552 bound_to 18519
  193.4473   11.9261   45.4769 H   0  0  0  0  0  0  0  0  0  0  0  0  # atno 26064 bound_to 26031
  193.4207   20.2225   52.8582 H   0  0  0  0  0  0  0  0  0  0  0  0  # atno 27154 bound_to 27102
  197.4140   19.7094   51.1323 H   0  0  0  0  0  0  0  0  0  0  0  0  # atno 27156 bound_to 27104
  197.4048   20.1646   45.4185 LP  0  0  0  0  0  0  0  0  0  0  0  0  # atno 27202 bound_to 2515
  197.3370   15.9309   43.6798 LP  0  0  0  0  0  0  0  0  0  0  0  0  # atno 27203 bound_to 2518
  196.4794   15.8057   45.1794 LP  0  0  0  0  0  0  0  0  0  0  0  0  # atno 27204 bound_to 2518
  197.8300   18.7840   44.0789 LP  0  0  0  0  0  0  0  0  0  0  0  0  # atno 27205 bound_to 2585
  193.8355   13.5060   45.4594 LP  0  0  0  0  0  0  0  0  0  0  0  0  # atno 27209 bound_to 26031
  195.0116   12.3731   45.4539 LP  0  0  0  0  0  0  0  0  0  0  0  0  # atno 27210 bound_to 26031
  192.3500   19.2663   52.0925 LP  0  0  0  0  0  0  0  0  0  0  0  0  # atno 27213 bound_to 27102
  192.7632   20.7106   51.4524 LP  0  0  0  0  0  0  0  0  0  0  0  0  # atno 27214 bound_to 27102
  194.8677    7.9283   51.2550 LP  0  0  0  0  0  0  0  0  0  0  0  0  # atno 27224 bound_to 7317
  196.0456    8.5127   52.3824 LP  0  0  0  0  0  0  0  0  0  0  0  0  # atno 27225 bound_to 7317
  196.9046    7.1528   51.0064 LP  0  0  0  0  0  0  0  0  0  0  0  0  # atno 27226 bound_to 7405
  197.8315    3.6947   53.5633 LP  0  0  0  0  0  0  0  0  0  0  0  0  # atno 27227 bound_to 7408
  198.1297    4.1610   51.9221 LP  0  0  0  0  0  0  0  0  0  0  0  0  # atno 27228 bound_to 7408
  194.7115    4.8614   53.4966 LP  0  0  0  0  0  0  0  0  0  0  0  0  # atno 27229 bound_to 7446
  194.4088    3.1806   54.9282 LP  0  0  0  0  0  0  0  0  0  0  0  0  # atno 27230 bound_to 7507
  184.9895    1.5587   48.3643 LP  0  0  0  0  0  0  0  0  0  0  0  0  # atno 27232 bound_to 17117
  185.6684    2.6994   49.4770 LP  0  0  0  0  0  0  0  0  0  0  0  0  # atno 27233 bound_to 17117
  183.8062    4.2538   48.0785 LP  0  0  0  0  0  0  0  0  0  0  0  0  # atno 27234 bound_to 17168
  185.9677    4.2151   46.2563 LP  0  0  0  0  0  0  0  0  0  0  0  0  # atno 27235 bound_to 17210
  185.8199    1.6446   46.0388 LP  0  0  0  0  0  0  0  0  0  0  0  0  # atno 27236 bound_to 18193
  186.7427    2.2190   44.6903 LP  0  0  0  0  0  0  0  0  0  0  0  0  # atno 27237 bound_to 18193
  186.5983   -0.0837   45.2937 LP  0  0  0  0  0  0  0  0  0  0  0  0  # atno 27238 bound_to 18265
  186.9953   -2.8472   47.8725 LP  0  0  0  0  0  0  0  0  0  0  0  0  # atno 27239 bound_to 18268
  188.4375   -2.3334   48.6825 LP  0  0  0  0  0  0  0  0  0  0  0  0  # atno 27240 bound_to 18268
  186.1156   -0.0376   49.6762 LP  0  0  0  0  0  0  0  0  0  0  0  0  # atno 27241 bound_to 18307
  184.4873   -0.8688   52.1124 LP  0  0  0  0  0  0  0  0  0  0  0  0  # atno 27242 bound_to 18310
  185.1476   -2.1904   51.2082 LP  0  0  0  0  0  0  0  0  0  0  0  0  # atno 27243 bound_to 18310
  187.3942    0.3551   52.6842 LP  0  0  0  0  0  0  0  0  0  0  0  0  # atno 27244 bound_to 18345
  187.4735    2.6113   53.8230 LP  0  0  0  0  0  0  0  0  0  0  0  0  # atno 27245 bound_to 18348
  188.1183    1.5325   55.0148 LP  0  0  0  0  0  0  0  0  0  0  0  0  # atno 27246 bound_to 18348
  184.9648    1.8624   54.5173 LP  0  0  0  0  0  0  0  0  0  0  0  0  # atno 27247 bound_to 18439
  187.0469    5.0318   56.4575 LP  0  0  0  0  0  0  0  0  0  0  0  0  # atno 27248 bound_to 18519
  182.6657    4.9163   45.3469 LP  0  0  0  0  0  0  0  0  0  0  0  0  # atno 27253 bound_to 17171
  183.7261    5.1274   43.9937 LP  0  0  0  0  0  0  0  0  0  0  0  0  # atno 27254 bound_to 17171
  187.6828    3.5787   42.4421 LP  0  0  0  0  0  0  0  0  0  0  0  0  # atno 27255 bound_to 17213
  186.0961    2.8849   42.4762 LP  0  0  0  0  0  0  0  0  0  0  0  0  # atno 27256 bound_to 17213
  180.0738    3.8718   49.7423 LP  0  0  0  0  0  0  0  0  0  0  0  0  # atno 27257 bound_to 17042
  180.5146    2.7979   48.4568 LP  0  0  0  0  0  0  0  0  0  0  0  0  # atno 27258 bound_to 17042
  186.5339    5.3108   42.4763 LP  0  0  0  0  0  0  0  0  0  0  0  0  # atno 27259 bound_to 17273
  181.5377    8.0376   52.5296 LP  0  0  0  0  0  0  0  0  0  0  0  0  # atno 27260 bound_to 18450
  181.4029    6.7435   51.5428 LP  0  0  0  0  0  0  0  0  0  0  0  0  # atno 27261 bound_to 18450
  186.2413    1.2355   42.8055 LP  0  0  0  0  0  0  0  0  0  0  0  0  # atno 27262 bound_to 18190
  184.6662   -2.1729   46.2352 LP  0  0  0  0  0  0  0  0  0  0  0  0  # atno 27263 bound_to 18270
  183.7509   -2.2402   47.5859 LP  0  0  0  0  0  0  0  0  0  0  0  0  # atno 27264 bound_to 18270
  189.0793   -4.6557   51.6520 LP  0  0  0  0  0  0  0  0  0  0  0  0  # atno 27265 bound_to 10086
  189.3421   -3.3326   50.7318 LP  0  0  0  0  0  0  0  0  0  0  0  0  # atno 27266 bound_to 10086
  188.1851   -2.4315   44.5753 LP  0  0  0  0  0  0  0  0  0  0  0  0  # atno 27267 bound_to 10127
  186.7707   -2.8486   45.4839 LP  0  0  0  0  0  0  0  0  0  0  0  0  # atno 27268 bound_to 10127
  185.2781    8.6663   43.1328 LP  0  0  0  0  0  0  0  0  0  0  0  0  # atno 27269 bound_to 11404
  184.6908    7.3183   42.2175 LP  0  0  0  0  0  0  0  0  0  0  0  0  # atno 27270 bound_to 11404
  180.0822    8.9085   48.8525 LP  0  0  0  0  0  0  0  0  0  0  0  0  # atno 27271 bound_to 16942
  181.1460    8.2759   49.9179 LP  0  0  0  0  0  0  0  0  0  0  0  0  # atno 27272 bound_to 16942
  183.2032    9.0003   42.9220 LP  0  0  0  0  0  0  0  0  0  0  0  0  # atno 27273 bound_to 11448
  181.9643    4.8578   43.2067 LP  0  0  0  0  0  0  0  0  0  0  0  0  # atno 27274 bound_to 11515
  179.6684    7.1415   47.0127 LP  0  0  0  0  0  0  0  0  0  0  0  0  # atno 27275 bound_to 11594
  178.4761    7.1297   48.2690 LP  0  0  0  0  0  0  0  0  0  0  0  0  # atno 27276 bound_to 11594
  178.7324    4.2234   44.4898 LP  0  0  0  0  0  0  0  0  0  0  0  0  # atno 27277 bound_to 11591
  182.5966   12.6296   43.3210 LP  0  0  0  0  0  0  0  0  0  0  0  0  # atno 27282 bound_to 11406
  182.3946   11.0481   43.6744 LP  0  0  0  0  0  0  0  0  0  0  0  0  # atno 27283 bound_to 11406
  183.4695   12.0286   55.5013 LP  0  0  0  0  0  0  0  0  0  0  0  0  # atno 27284 bound_to 18675
  185.1511   12.3781   55.2773 LP  0  0  0  0  0  0  0  0  0  0  0  0  # atno 27285 bound_to 18675

> <Gold.Score>
     Fitness  S(hb_ext) S(vdw_ext)  S(hb_int)    S(int)      intcor
     29.66       6.00      18.69       0.00      -2.03      -0.76

> <Gold.Goldscore.Fitness>
29.6625

> <Gold.Goldscore.Internal.Vdw>
-2.4187

> <Gold.Goldscore.Internal.Torsion>
-0.3715

> <Gold.Goldscore.External.Vdw>
18.6867

> <Gold.Goldscore.Internal.HBond>
0.0000

> <Gold.Goldscore.External.HBond>
6.0000

> <Gold.Goldscore.Internal.Correction>
-0.7585

> <Gold.Goldscore.Hbonds>
donor molecule, donor type, donor heavy atom, donor atom, acceptor molecule, acceptor atom, score
      L1  H    10    23       P1 27095  1.00

> <Gold.Goldscore.Internal.Vdw.Weighted>
-2.4187

> <Gold.Goldscore.Internal.Torsion.Weighted>
-0.3715

> <Gold.Goldscore.External.Vdw.Weighted>
25.6942

> <Gold.Goldscore.Internal.HBond.Weighted>
0.0000

> <Gold.Goldscore.External.HBond.Weighted>
6.0000

> <Gold.Goldscore.Internal.Correction.Weighted>
-0.7585

> <Gold.Rescore>
     Score     S(PLP)   S(hbond)     S(cho)   S(metal)  DE(clash)   DE(tors)     intcor
     19.01     -18.62       0.59       0.00       0.00       1.34       0.02       ----

> <Gold.PLP.Fitness>
19.0141

> <Gold.PLP.PLP>
-18.6197

> <Gold.PLP.part.hbond>
-3.1944

> <Gold.PLP.part.metal>
0.0000

> <Gold.PLP.part.buried>
-4.0723

> <Gold.PLP.part.nonpolar>
-12.9826

> <Gold.PLP.part.repulsive>
0.4514

> <Gold.PLP.ligand.clash>
1.3449

> <Gold.PLP.ligand.torsion>
0.0226

> <Gold.PLP.Chemscore.Hbond>
0.5949

> <Gold.PLP.Chemscore.CHOScore>
0.0000

> <Gold.PLP.Chemscore.Metal>
0.0000

> <Gold.Chemscore.Hbonds>
donor molecule, donor type, donor heavy atom, donor atom, acceptor molecule, acceptor atom, score
      L1  H    10    23       P1 27095  0.70

> <Gold.PLP.Chemscore.Internal.Correction>
   9.000000E+99

