#       Name:                CT1002167954
#       Creating user name   hitesit
#       Creation time:       Sun Apr 16 22:56:36 2023


#       File generated by GOLD software.
#

@<TRIPOS>MOLECULE
CT1002167954|ligand_prepared|mol2|1|dock3
    29    30     1
SMALL
NO_CHARGES


@<TRIPOS>ATOM
      1 C1         185.9951  10.9675  50.8856 C.3            1 RES1               0.0000
      2 C2         186.7306  10.4085  49.6505 C.ar           1 RES1               0.0000
      3 C3         185.2133  12.1860  50.4036 C.2            1 RES1               0.0000
      4 C4         185.1200   9.8344  51.4100 C.2            1 RES1               0.0000
      5 C5         186.9391  11.4099  52.0278 C.3            1 RES1               0.0000
      6 C6         187.7282   9.4489  49.7941 C.ar           1 RES1               0.0000
      7 C7         186.4212  10.8400  48.3634 C.ar           1 RES1               0.0000
      8 N8         183.8608  12.0610  50.2812 N.am           1 RES1               0.0000
      9 O9         185.7792  13.2283  50.0978 O.2            1 RES1               0.0000
     10 N10        183.7602   9.9929  51.3502 N.am           1 RES1               0.0000
     11 O11        185.5956   8.7989  51.8592 O.2            1 RES1               0.0000
     12 C12        186.2231  12.0783  53.1908 C.3            1 RES1               0.0000
     13 C13        188.3906   8.9370  48.6906 C.ar           1 RES1               0.0000
     14 C14        187.0849  10.3269  47.2613 C.ar           1 RES1               0.0000
     15 C15        183.0907  11.0419  50.7814 C.2            1 RES1               0.0000
     16 C16        188.0692   9.3752  47.4237 C.ar           1 RES1               0.0000
     17 O17        181.8656  11.0873  50.7172 O.2            1 RES1               0.0000
     18 H18        187.4764  10.5300  52.4026 H              1 RES1               0.0000
     19 H19        187.6814  12.1083  51.6219 H              1 RES1               0.0000
     20 H20        187.9965   9.0938  50.7835 H              1 RES1               0.0000
     21 H21        185.6511  11.5887  48.2118 H              1 RES1               0.0000
     22 H22        183.3772  12.7929  49.7705 H              1 RES1               0.0000
     23 H23        183.1947   9.2612  51.7686 H              1 RES1               0.0000
     24 H24        186.9312  12.3689  53.9641 H              1 RES1               0.0000
     25 H25        185.6985  12.9718  52.8587 H              1 RES1               0.0000
     26 H26        185.4947  11.4029  53.6348 H              1 RES1               0.0000
     27 H27        189.1653   8.1891  48.8239 H              1 RES1               0.0000
     28 H28        186.8291  10.6751  46.2661 H              1 RES1               0.0000
     29 H29        188.5879   8.9737  46.5594 H              1 RES1               0.0000
@<TRIPOS>BOND
    1    1    2 1     
    2    1    3 1     
    3    1    4 1     
    4    1    5 1     
    5    2    6 ar    
    6    2    7 ar    
    7    3    8 1     
    8    3    9 2     
    9    4   10 1     
   10    4   11 2     
   11    5   12 1     
   12    5   18 1     
   13    5   19 1     
   14    6   13 ar    
   15    6   20 1     
   16    7   14 ar    
   17    7   21 1     
   18    8   15 1     
   19    8   22 1     
   20   10   15 1     
   21   10   23 1     
   22   12   24 1     
   23   12   25 1     
   24   12   26 1     
   25   13   16 ar    
   26   13   27 1     
   27   14   16 ar    
   28   14   28 1     
   29   15   17 2     
   30   16   29 1     
@<TRIPOS>SUBSTRUCTURE
      1 RES1           1
@<TRIPOS>SET
DONOR_HYDROGENS      STATIC     ATOMS    <user>   **** ""
2 22 23
ATOM$RED        STATIC     ATOMS    COLORGROUP SYSTEM
2 22 23
@<TRIPOS>COMMENT
> <Gold.Version>
2022.3.0

> <Gold.Id.Protein>
unknown|4v3u_clean|pdb

> <Gold.Protein.RotatedTorsions>
[  549  517  516  515 ] final  -43.44 input   59.99 | X-H torsion
[ 2542 2515 2516 2517 ] final    1.88 input  113.65 | X-H torsion
[ 2618 2585 2586 2587 ] final  -79.52 input   46.31 | X-H torsion
[ 26064 26031 26030 26028 ] final  178.98 input   59.98 | X-H torsion
[ 27154 27102 27101 27097 ] final -166.26 input   60.00 | X-H torsion
[ 7430 7405 7406 7407 ] final  -81.71 input   81.33 | X-H torsion
[ 7467 7446 7447 7448 ] final  -35.68 input   92.53 | X-H torsion
[ 7519 7507 7508 7509 ] final  -16.27 input   89.47 | X-H torsion
[ 17183 17168 17169 17170 ] final  179.77 input   55.70 | X-H torsion
[ 17231 17210 17211 17212 ] final -131.38 input  101.26 | X-H torsion
[ 18283 18265 18266 18267 ] final -136.32 input   32.88 | X-H torsion
[ 18322 18307 18308 18309 ] final   95.00 input   53.35 | X-H torsion
[ 18397 18345 18346 18347 ] final   21.56 input   36.30 | X-H torsion
[ 18484 18439 18440 18441 ] final -120.59 input   98.15 | X-H torsion
[ 18552 18519 18520 18521 ] final -169.38 input   94.34 | X-H torsion
[ 17291 17273 17274 17275 ] final  141.00 input   50.38 | X-H torsion
[ 18492 18450 18449 18447 ] final  105.60 input   59.99 | X-H torsion
[ 18223 18190 18191 18192 ] final  154.41 input   49.82 | X-H torsion
[ 18287 18270 18269 18266 ] final -170.20 input   60.01 | X-H torsion
[ 10108 10086 10085 10082 ] final  -41.31 input   60.00 | X-H torsion
[ 16975 16942 16941 16939 ] final  177.72 input   60.00 | X-H torsion
[ 11483 11448 11449 11450 ] final  -98.23 input   47.08 | X-H torsion
[ 11550 11515 11516 11517 ] final    1.13 input  121.60 | X-H torsion
[ 11626 11591 11592 11593 ] final   56.75 input   57.19 | X-H torsion
[ 11428 11406 11405 11402 ] final  134.78 input   60.00 | X-H torsion
[ 27156 27104 27103 27101 ] final  136.02 input   60.02 | X-H torsion
[ 10144 10124 10125 10126 ] final   -3.50 input   16.22 | X-H torsion
[ 17343 17319 17320 17321 ] final  116.15 input   65.41 | X-H torsion
[ 27203 2518 2517 2516 ] final   57.30 input    0.00 | X-H torsion
[ 27224 7317 7316 7315 ] final   68.70 input    0.00 | X-H torsion
[ 27227 7408 7407 7406 ] final  170.14 input   -0.00 | X-H torsion
[ 27232 17117 17116 17115 ] final   86.63 input    0.00 | X-H torsion
[ 27236 18193 18192 18191 ] final   79.89 input    0.00 | X-H torsion
[ 27239 18268 18267 18266 ] final  -48.30 input    0.00 | X-H torsion
[ 27242 18310 18309 18308 ] final  -66.53 input   -0.00 | X-H torsion
[ 27245 18348 18347 18346 ] final   69.86 input    0.00 | X-H torsion
[ 27253 17171 17170 17169 ] final  118.74 input   -0.00 | X-H torsion
[ 27255 17213 17212 17211 ] final -174.85 input    0.00 | X-H torsion
[ 27257 17042 17041 17040 ] final  -86.28 input    0.00 | X-H torsion
[ 27267 10127 10126 10125 ] final -118.02 input   -0.00 | X-H torsion
[ 27269 11404 11403 11402 ] final    5.03 input    0.00 | X-H torsion
[ 27275 11594 11593 11592 ] final  -93.41 input   -0.00 | X-H torsion
[ 27284 18675 18674 18673 ] final   25.54 input    0.00 | X-H torsion

> <Gold.Protein.ActiveResidues>
 LYS309  TRP311  MET341  HIS342  TRP414  ALA417  ARG419  CYS420  VAL421  GLY422 
 ARG423  SER462  ALA463  SER482  GLN483  LEU484  ILE485  ARG486  ALA502  TRP566 
 TYR567  LEU569  PRO570  ALA571  VAL572  SER573  ASN574  MET575  PHE589  SER590 
 GLY591  TRP592  TYR593  MET594  GLU597  ILE598  ARG601  ASP602  ASP605  ARG608 
 TRP683  HIS697  GLU699  TYR711  HEM750  H4B760 

> <Gold.Protein.RotatedAtoms>
  189.9746   23.8688   42.0153 H   0  0  0  0  0  0  0  0  0  0  0  0  # atno 549  bound_to 517 
  189.0888   23.4277   43.3447 H   0  0  0  0  0  0  0  0  0  0  0  0  # atno 550  bound_to 517 
  188.5071   24.5802   42.3060 H   0  0  0  0  0  0  0  0  0  0  0  0  # atno 551  bound_to 517 
  197.9857   19.7723   45.4381 H   0  0  0  0  0  0  0  0  0  0  0  0  # atno 2542 bound_to 2515
  197.6422   18.1122   44.3223 H   0  0  0  0  0  0  0  0  0  0  0  0  # atno 2618 bound_to 2585
  196.9230    7.1624   51.0229 H   0  0  0  0  0  0  0  0  0  0  0  0  # atno 7430 bound_to 7405
  195.7146    4.2463   53.0021 H   0  0  0  0  0  0  0  0  0  0  0  0  # atno 7467 bound_to 7446
  195.8357    2.6002   54.1753 H   0  0  0  0  0  0  0  0  0  0  0  0  # atno 7519 bound_to 7507
  189.0451   -3.4709   50.8694 H   0  0  0  0  0  0  0  0  0  0  0  0  # atno 10108 bound_to 10086
  187.9380   -3.9137   47.1545 H   0  0  0  0  0  0  0  0  0  0  0  0  # atno 10144 bound_to 10124
  182.7855   12.0416   43.8201 H   0  0  0  0  0  0  0  0  0  0  0  0  # atno 11428 bound_to 11406
  182.9618    8.5166   42.1252 H   0  0  0  0  0  0  0  0  0  0  0  0  # atno 11483 bound_to 11448
  180.9081    5.8735   44.1032 H   0  0  0  0  0  0  0  0  0  0  0  0  # atno 11550 bound_to 11515
  179.7110    5.0364   45.4522 H   0  0  0  0  0  0  0  0  0  0  0  0  # atno 11626 bound_to 11591
  181.1197    8.2272   49.7411 H   0  0  0  0  0  0  0  0  0  0  0  0  # atno 16975 bound_to 16942
  183.0632    2.8246   48.3326 H   0  0  0  0  0  0  0  0  0  0  0  0  # atno 17183 bound_to 17168
  185.0346    4.5429   45.9801 H   0  0  0  0  0  0  0  0  0  0  0  0  # atno 17231 bound_to 17210
  184.9991    5.5163   42.8109 H   0  0  0  0  0  0  0  0  0  0  0  0  # atno 17291 bound_to 17273
  186.1280    7.4035   40.8022 H   0  0  0  0  0  0  0  0  0  0  0  0  # atno 17343 bound_to 17319
  187.7241    0.9428   41.9270 H   0  0  0  0  0  0  0  0  0  0  0  0  # atno 18223 bound_to 18190
  187.0942    0.1809   45.4521 H   0  0  0  0  0  0  0  0  0  0  0  0  # atno 18283 bound_to 18265
  183.6757   -2.1511   47.0583 H   0  0  0  0  0  0  0  0  0  0  0  0  # atno 18287 bound_to 18270
  187.3094    0.5467   49.5463 H   0  0  0  0  0  0  0  0  0  0  0  0  # atno 18322 bound_to 18307
  187.7049    0.0648   53.1324 H   0  0  0  0  0  0  0  0  0  0  0  0  # atno 18397 bound_to 18345
  185.5967    1.7928   54.5071 H   0  0  0  0  0  0  0  0  0  0  0  0  # atno 18484 bound_to 18439
  182.0225    6.7730   51.2585 H   0  0  0  0  0  0  0  0  0  0  0  0  # atno 18492 bound_to 18450
  187.6660    3.5889   56.8632 H   0  0  0  0  0  0  0  0  0  0  0  0  # atno 18552 bound_to 18519
  194.9667   12.9445   45.4464 H   0  0  0  0  0  0  0  0  0  0  0  0  # atno 26064 bound_to 26031
  192.8467   20.7710   51.5197 H   0  0  0  0  0  0  0  0  0  0  0  0  # atno 27154 bound_to 27102
  197.0790   20.1307   50.2439 H   0  0  0  0  0  0  0  0  0  0  0  0  # atno 27156 bound_to 27104
  197.1851   19.9747   46.9763 LP  0  0  0  0  0  0  0  0  0  0  0  0  # atno 27202 bound_to 2515
  196.0872   15.8240   44.7017 LP  0  0  0  0  0  0  0  0  0  0  0  0  # atno 27203 bound_to 2518
  197.7292   15.9126   44.1576 LP  0  0  0  0  0  0  0  0  0  0  0  0  # atno 27204 bound_to 2518
  196.3625   19.0561   43.6012 LP  0  0  0  0  0  0  0  0  0  0  0  0  # atno 27205 bound_to 2585
  193.9589   11.6675   45.4750 LP  0  0  0  0  0  0  0  0  0  0  0  0  # atno 27209 bound_to 26031
  193.3578   13.1858   45.4690 LP  0  0  0  0  0  0  0  0  0  0  0  0  # atno 27210 bound_to 26031
  193.3869   20.1145   52.9069 LP  0  0  0  0  0  0  0  0  0  0  0  0  # atno 27213 bound_to 27102
  192.3045   19.3098   51.9864 LP  0  0  0  0  0  0  0  0  0  0  0  0  # atno 27214 bound_to 27102
  195.0798    8.5175   51.0977 LP  0  0  0  0  0  0  0  0  0  0  0  0  # atno 27224 bound_to 7317
  195.8335    7.9235   52.5396 LP  0  0  0  0  0  0  0  0  0  0  0  0  # atno 27225 bound_to 7317
  197.4269    5.8514   49.9881 LP  0  0  0  0  0  0  0  0  0  0  0  0  # atno 27226 bound_to 7405
  197.9565    3.9332   53.6084 LP  0  0  0  0  0  0  0  0  0  0  0  0  # atno 27227 bound_to 7408
  198.0047    3.9226   51.8771 LP  0  0  0  0  0  0  0  0  0  0  0  0  # atno 27228 bound_to 7408
  195.3519    5.8432   53.6198 LP  0  0  0  0  0  0  0  0  0  0  0  0  # atno 27229 bound_to 7446
  194.2576    3.1878   54.6374 LP  0  0  0  0  0  0  0  0  0  0  0  0  # atno 27230 bound_to 7507
  184.8393    1.4156   48.9552 LP  0  0  0  0  0  0  0  0  0  0  0  0  # atno 27232 bound_to 17117
  185.8186    2.8425   48.8862 LP  0  0  0  0  0  0  0  0  0  0  0  0  # atno 27233 bound_to 17117
  183.3172    4.4538   47.7628 LP  0  0  0  0  0  0  0  0  0  0  0  0  # atno 27234 bound_to 17168
  185.9798    3.2705   45.2335 LP  0  0  0  0  0  0  0  0  0  0  0  0  # atno 27235 bound_to 17210
  185.5808    1.6880   44.9176 LP  0  0  0  0  0  0  0  0  0  0  0  0  # atno 27236 bound_to 18193
  186.9818    2.1757   45.8116 LP  0  0  0  0  0  0  0  0  0  0  0  0  # atno 27237 bound_to 18193
  187.1298   -1.5156   45.8642 LP  0  0  0  0  0  0  0  0  0  0  0  0  # atno 27238 bound_to 18265
  186.9938   -2.8485   47.8761 LP  0  0  0  0  0  0  0  0  0  0  0  0  # atno 27239 bound_to 18268
  188.4390   -2.3321   48.6789 LP  0  0  0  0  0  0  0  0  0  0  0  0  # atno 27240 bound_to 18268
  186.4575   -0.9027   49.0643 LP  0  0  0  0  0  0  0  0  0  0  0  0  # atno 27241 bound_to 18307
  184.7114   -0.9395   51.0354 LP  0  0  0  0  0  0  0  0  0  0  0  0  # atno 27242 bound_to 18310
  184.9235   -2.1197   52.2853 LP  0  0  0  0  0  0  0  0  0  0  0  0  # atno 27243 bound_to 18310
  186.5225   -0.9620   52.3545 LP  0  0  0  0  0  0  0  0  0  0  0  0  # atno 27244 bound_to 18345
  187.5913    2.2304   53.5925 LP  0  0  0  0  0  0  0  0  0  0  0  0  # atno 27245 bound_to 18348
  188.0005    1.9134   55.2454 LP  0  0  0  0  0  0  0  0  0  0  0  0  # atno 27246 bound_to 18348
  184.8683    1.3032   56.0200 LP  0  0  0  0  0  0  0  0  0  0  0  0  # atno 27247 bound_to 18439
  186.4932    4.8815   56.7535 LP  0  0  0  0  0  0  0  0  0  0  0  0  # atno 27248 bound_to 18519
  183.4942    5.7303   45.0691 LP  0  0  0  0  0  0  0  0  0  0  0  0  # atno 27253 bound_to 17171
  182.8977    4.3133   44.2714 LP  0  0  0  0  0  0  0  0  0  0  0  0  # atno 27254 bound_to 17171
  186.7258    3.4145   41.6286 LP  0  0  0  0  0  0  0  0  0  0  0  0  # atno 27255 bound_to 17213
  187.0531    3.0491   43.2897 LP  0  0  0  0  0  0  0  0  0  0  0  0  # atno 27256 bound_to 17213
  180.5283    2.8062   48.4548 LP  0  0  0  0  0  0  0  0  0  0  0  0  # atno 27257 bound_to 17042
  180.0600    3.8635   49.7443 LP  0  0  0  0  0  0  0  0  0  0  0  0  # atno 27258 bound_to 17042
  186.5750    5.9936   42.2322 LP  0  0  0  0  0  0  0  0  0  0  0  0  # atno 27259 bound_to 17273
  182.6042    8.0832   52.0286 LP  0  0  0  0  0  0  0  0  0  0  0  0  # atno 27260 bound_to 18450
  181.0963    7.5454   52.3511 LP  0  0  0  0  0  0  0  0  0  0  0  0  # atno 27261 bound_to 18450
  186.2174    1.1876   42.7813 LP  0  0  0  0  0  0  0  0  0  0  0  0  # atno 27262 bound_to 18190
  184.9453   -2.4691   48.0246 LP  0  0  0  0  0  0  0  0  0  0  0  0  # atno 27263 bound_to 18270
  185.1671   -2.2689   46.4192 LP  0  0  0  0  0  0  0  0  0  0  0  0  # atno 27264 bound_to 18270
  190.5840   -3.9913   50.9670 LP  0  0  0  0  0  0  0  0  0  0  0  0  # atno 27265 bound_to 10086
  189.3901   -4.8206   51.7109 LP  0  0  0  0  0  0  0  0  0  0  0  0  # atno 27266 bound_to 10086
  186.8506   -2.5897   44.4346 LP  0  0  0  0  0  0  0  0  0  0  0  0  # atno 27267 bound_to 10127
  188.1051   -2.6903   45.6246 LP  0  0  0  0  0  0  0  0  0  0  0  0  # atno 27268 bound_to 10127
  185.4122    8.5690   42.1909 LP  0  0  0  0  0  0  0  0  0  0  0  0  # atno 27269 bound_to 11404
  184.5567    7.4156   43.1594 LP  0  0  0  0  0  0  0  0  0  0  0  0  # atno 27270 bound_to 11404
  180.2656    9.3913   50.4911 LP  0  0  0  0  0  0  0  0  0  0  0  0  # atno 27271 bound_to 16942
  179.9754    9.0438   48.9221 LP  0  0  0  0  0  0  0  0  0  0  0  0  # atno 27272 bound_to 16942
  181.8185    9.2959   43.1916 LP  0  0  0  0  0  0  0  0  0  0  0  0  # atno 27273 bound_to 11448
  181.9202    5.0404   42.9465 LP  0  0  0  0  0  0  0  0  0  0  0  0  # atno 27274 bound_to 11515
  178.5033    6.9840   48.2759 LP  0  0  0  0  0  0  0  0  0  0  0  0  # atno 27275 bound_to 11594
  179.6413    7.2873   47.0058 LP  0  0  0  0  0  0  0  0  0  0  0  0  # atno 27276 bound_to 11594
  178.6473    4.7962   44.0865 LP  0  0  0  0  0  0  0  0  0  0  0  0  # atno 27277 bound_to 11591
  181.9128   10.9000   43.0569 LP  0  0  0  0  0  0  0  0  0  0  0  0  # atno 27282 bound_to 11406
  181.9428   12.4285   42.4831 LP  0  0  0  0  0  0  0  0  0  0  0  0  # atno 27283 bound_to 11406
  184.9615   12.0162   54.8499 LP  0  0  0  0  0  0  0  0  0  0  0  0  # atno 27284 bound_to 18675
  183.6591   12.3905   55.9286 LP  0  0  0  0  0  0  0  0  0  0  0  0  # atno 27285 bound_to 18675

> <Gold.Score>
     Fitness  S(hb_ext) S(vdw_ext)  S(hb_int)    S(int)      intcor
     38.75       5.70      25.04       0.00      -1.39      -0.81

> <Gold.Goldscore.Fitness>
38.7491

> <Gold.Goldscore.Internal.Vdw>
-1.7806

> <Gold.Goldscore.Internal.Torsion>
-0.4160

> <Gold.Goldscore.External.Vdw>
25.0434

> <Gold.Goldscore.Internal.HBond>
0.0000

> <Gold.Goldscore.External.HBond>
5.7037

> <Gold.Goldscore.Internal.Correction>
-0.8073

> <Gold.Goldscore.Hbonds>
donor molecule, donor type, donor heavy atom, donor atom, acceptor molecule, acceptor atom, score
      P1  H 19332 19366       L1    17  0.72
      L1  H    10    23       P1 18450  0.69

> <Gold.Goldscore.Internal.Vdw.Weighted>
-1.7806

> <Gold.Goldscore.Internal.Torsion.Weighted>
-0.4160

> <Gold.Goldscore.External.Vdw.Weighted>
34.4347

> <Gold.Goldscore.Internal.HBond.Weighted>
0.0000

> <Gold.Goldscore.External.HBond.Weighted>
5.7037

> <Gold.Goldscore.Internal.Correction.Weighted>
-0.8073

> <Gold.Rescore>
     Score     S(PLP)   S(hbond)     S(cho)   S(metal)  DE(clash)   DE(tors)     intcor
     24.56     -21.72       1.46       0.00       0.00       1.38       0.07       ----

> <Gold.PLP.Fitness>
24.5631

> <Gold.PLP.PLP>
-21.7190

> <Gold.PLP.part.hbond>
-4.1421

> <Gold.PLP.part.metal>
0.0000

> <Gold.PLP.part.buried>
2.0486

> <Gold.PLP.part.nonpolar>
-23.7195

> <Gold.PLP.part.repulsive>
3.3627

> <Gold.PLP.ligand.clash>
1.3779

> <Gold.PLP.ligand.torsion>
0.0728

> <Gold.PLP.Chemscore.Hbond>
1.4559

> <Gold.PLP.Chemscore.CHOScore>
0.0000

> <Gold.PLP.Chemscore.Metal>
0.0000

> <Gold.Chemscore.Hbonds>
donor molecule, donor type, donor heavy atom, donor atom, acceptor molecule, acceptor atom, score
      L1  H    10    23       P1 18450  0.42
      P1  H 19332 19366       L1    17  0.68

> <Gold.PLP.Chemscore.Internal.Correction>
   9.000000E+99

