#       Name:                CT1002167954
#       Creating user name   hitesit
#       Creation time:       Sun Apr 16 22:56:34 2023


#       File generated by GOLD software.
#

@<TRIPOS>MOLECULE
CT1002167954|ligand_prepared|mol2|1|dock1
    29    30     1
SMALL
NO_CHARGES


@<TRIPOS>ATOM
      1 C1         185.9035  10.0322  50.7513 C.3            1 RES1               0.0000
      2 C2         185.9078   8.6640  50.0394 C.ar           1 RES1               0.0000
      3 C3         185.6993  11.0812  49.6622 C.2            1 RES1               0.0000
      4 C4         184.7784   9.9749  51.7787 C.2            1 RES1               0.0000
      5 C5         187.2184  10.3511  51.5001 C.3            1 RES1               0.0000
      6 C6         187.1054   8.0719  49.6496 C.ar           1 RES1               0.0000
      7 C7         184.7247   7.9819  49.7685 C.ar           1 RES1               0.0000
      8 N8         184.4777  11.6828  49.5855 N.am           1 RES1               0.0000
      9 O9         186.5838  11.3480  48.8581 O.2            1 RES1               0.0000
     10 N10        183.7033  10.8058  51.6007 N.am           1 RES1               0.0000
     11 O11        184.8054   9.2059  52.7317 O.2            1 RES1               0.0000
     12 C12        187.1122  11.5347  52.4489 C.3            1 RES1               0.0000
     13 C13        187.1199   6.8411  49.0146 C.ar           1 RES1               0.0000
     14 C14        184.7414   6.7512  49.1332 C.ar           1 RES1               0.0000
     15 C15        183.4878  11.6352  50.5339 C.2            1 RES1               0.0000
     16 C16        185.9382   6.1798  48.7564 C.ar           1 RES1               0.0000
     17 O17        182.4700  12.3116  50.4176 O.2            1 RES1               0.0000
     18 H18        187.5225   9.4660  52.0724 H              1 RES1               0.0000
     19 H19        188.0032  10.5593  50.7625 H              1 RES1               0.0000
     20 H20        188.0452   8.5786  49.8422 H              1 RES1               0.0000
     21 H21        183.7713   8.4128  50.0549 H              1 RES1               0.0000
     22 H22        184.2821  12.2174  48.7451 H              1 RES1               0.0000
     23 H23        182.9985  10.8062  52.3311 H              1 RES1               0.0000
     24 H24        188.0618  11.7152  52.9481 H              1 RES1               0.0000
     25 H25        186.8359  12.4381  51.9092 H              1 RES1               0.0000
     26 H26        186.3579  11.3513  53.2113 H              1 RES1               0.0000
     27 H27        188.0643   6.3963  48.7188 H              1 RES1               0.0000
     28 H28        183.8089   6.2346  48.9314 H              1 RES1               0.0000
     29 H29        185.9498   5.2154  48.2593 H              1 RES1               0.0000
@<TRIPOS>BOND
    1    1    2 1     
    2    1    3 1     
    3    1    4 1     
    4    1    5 1     
    5    2    6 ar    
    6    2    7 ar    
    7    3    8 1     
    8    3    9 2     
    9    4   10 1     
   10    4   11 2     
   11    5   12 1     
   12    5   18 1     
   13    5   19 1     
   14    6   13 ar    
   15    6   20 1     
   16    7   14 ar    
   17    7   21 1     
   18    8   15 1     
   19    8   22 1     
   20   10   15 1     
   21   10   23 1     
   22   12   24 1     
   23   12   25 1     
   24   12   26 1     
   25   13   16 ar    
   26   13   27 1     
   27   14   16 ar    
   28   14   28 1     
   29   15   17 2     
   30   16   29 1     
@<TRIPOS>SUBSTRUCTURE
      1 RES1           1
@<TRIPOS>SET
DONOR_HYDROGENS      STATIC     ATOMS    <user>   **** ""
2 22 23
ATOM$RED        STATIC     ATOMS    COLORGROUP SYSTEM
2 22 23
@<TRIPOS>COMMENT
> <Gold.Version>
2022.3.0

> <Gold.Id.Protein>
unknown|4v3u_clean|pdb

> <Gold.Protein.RotatedTorsions>
[  549  517  516  515 ] final  141.53 input   59.99 | X-H torsion
[ 2542 2515 2516 2517 ] final   95.21 input  113.65 | X-H torsion
[ 2618 2585 2586 2587 ] final  -96.50 input   46.31 | X-H torsion
[ 26064 26031 26030 26028 ] final  -67.21 input   59.98 | X-H torsion
[ 27154 27102 27101 27097 ] final   28.33 input   60.00 | X-H torsion
[ 7430 7405 7406 7407 ] final  166.19 input   81.33 | X-H torsion
[ 7467 7446 7447 7448 ] final  115.56 input   92.53 | X-H torsion
[ 7519 7507 7508 7509 ] final  179.29 input   89.47 | X-H torsion
[ 17183 17168 17169 17170 ] final    1.23 input   55.70 | X-H torsion
[ 17231 17210 17211 17212 ] final  142.49 input  101.26 | X-H torsion
[ 18283 18265 18266 18267 ] final -166.32 input   32.88 | X-H torsion
[ 18322 18307 18308 18309 ] final -139.57 input   53.35 | X-H torsion
[ 18397 18345 18346 18347 ] final   12.23 input   36.30 | X-H torsion
[ 18484 18439 18440 18441 ] final -132.12 input   98.15 | X-H torsion
[ 18552 18519 18520 18521 ] final -150.65 input   94.34 | X-H torsion
[ 17291 17273 17274 17275 ] final  153.39 input   50.38 | X-H torsion
[ 18492 18450 18449 18447 ] final  -62.74 input   59.99 | X-H torsion
[ 18223 18190 18191 18192 ] final -176.35 input   49.82 | X-H torsion
[ 18287 18270 18269 18266 ] final -109.07 input   60.01 | X-H torsion
[ 10108 10086 10085 10082 ] final -111.92 input   60.00 | X-H torsion
[ 16975 16942 16941 16939 ] final -142.32 input   60.00 | X-H torsion
[ 11483 11448 11449 11450 ] final   73.48 input   47.08 | X-H torsion
[ 11550 11515 11516 11517 ] final  -71.27 input  121.60 | X-H torsion
[ 11626 11591 11592 11593 ] final  124.08 input   57.19 | X-H torsion
[ 11428 11406 11405 11402 ] final  143.19 input   60.00 | X-H torsion
[ 27156 27104 27103 27101 ] final -109.15 input   60.02 | X-H torsion
[ 10144 10124 10125 10126 ] final  -11.08 input   16.22 | X-H torsion
[ 17343 17319 17320 17321 ] final   67.79 input   65.41 | X-H torsion
[ 27203 2518 2517 2516 ] final  149.61 input    0.00 | X-H torsion
[ 27224 7317 7316 7315 ] final -132.27 input    0.00 | X-H torsion
[ 27227 7408 7407 7406 ] final    7.08 input   -0.00 | X-H torsion
[ 27232 17117 17116 17115 ] final  159.20 input    0.00 | X-H torsion
[ 27236 18193 18192 18191 ] final  124.36 input    0.00 | X-H torsion
[ 27239 18268 18267 18266 ] final -169.98 input    0.00 | X-H torsion
[ 27242 18310 18309 18308 ] final   60.88 input   -0.00 | X-H torsion
[ 27245 18348 18347 18346 ] final  -60.56 input    0.00 | X-H torsion
[ 27253 17171 17170 17169 ] final  157.39 input   -0.00 | X-H torsion
[ 27255 17213 17212 17211 ] final  -50.94 input    0.00 | X-H torsion
[ 27257 17042 17041 17040 ] final   57.96 input    0.00 | X-H torsion
[ 27267 10127 10126 10125 ] final  135.16 input   -0.00 | X-H torsion
[ 27269 11404 11403 11402 ] final  164.81 input    0.00 | X-H torsion
[ 27275 11594 11593 11592 ] final  -44.88 input   -0.00 | X-H torsion
[ 27284 18675 18674 18673 ] final  -30.57 input    0.00 | X-H torsion

> <Gold.Protein.ActiveResidues>
 LYS309  TRP311  MET341  HIS342  TRP414  ALA417  ARG419  CYS420  VAL421  GLY422 
 ARG423  SER462  ALA463  SER482  GLN483  LEU484  ILE485  ARG486  ALA502  TRP566 
 TYR567  LEU569  PRO570  ALA571  VAL572  SER573  ASN574  MET575  PHE589  SER590 
 GLY591  TRP592  TYR593  MET594  GLU597  ILE598  ARG601  ASP602  ASP605  ARG608 
 TRP683  HIS697  GLU699  TYR711  HEM750  H4B760 

> <Gold.Protein.RotatedAtoms>
  188.3796   24.1068   43.0414 H   0  0  0  0  0  0  0  0  0  0  0  0  # atno 549  bound_to 517 
  189.3644   24.4523   41.7540 H   0  0  0  0  0  0  0  0  0  0  0  0  # atno 550  bound_to 517 
  189.8263   23.3181   42.8702 H   0  0  0  0  0  0  0  0  0  0  0  0  # atno 551  bound_to 517 
  196.9452   20.3794   45.8744 H   0  0  0  0  0  0  0  0  0  0  0  0  # atno 2542 bound_to 2515
  197.4484   17.9405   44.3485 H   0  0  0  0  0  0  0  0  0  0  0  0  # atno 2618 bound_to 2585
  196.7076    6.4681   49.7608 H   0  0  0  0  0  0  0  0  0  0  0  0  # atno 7430 bound_to 7405
  194.9729    5.6400   53.6909 H   0  0  0  0  0  0  0  0  0  0  0  0  # atno 7467 bound_to 7446
  194.3423    3.1941   54.8586 H   0  0  0  0  0  0  0  0  0  0  0  0  # atno 7519 bound_to 7507
  190.1093   -3.4382   50.6749 H   0  0  0  0  0  0  0  0  0  0  0  0  # atno 10108 bound_to 10086
  188.0473   -3.9533   47.1567 H   0  0  0  0  0  0  0  0  0  0  0  0  # atno 10144 bound_to 10124
  182.7819   12.1672   43.7645 H   0  0  0  0  0  0  0  0  0  0  0  0  # atno 11428 bound_to 11406
  181.7155    9.2580   43.1259 H   0  0  0  0  0  0  0  0  0  0  0  0  # atno 11483 bound_to 11448
  181.0537    6.1428   43.1036 H   0  0  0  0  0  0  0  0  0  0  0  0  # atno 11550 bound_to 11515
  179.2642    4.1869   45.2544 H   0  0  0  0  0  0  0  0  0  0  0  0  # atno 11626 bound_to 11591
  180.8575    8.2528   49.1584 H   0  0  0  0  0  0  0  0  0  0  0  0  # atno 16975 bound_to 16942
  183.2958    4.4677   47.7558 H   0  0  0  0  0  0  0  0  0  0  0  0  # atno 17183 bound_to 17168
  186.1495    4.0980   46.1956 H   0  0  0  0  0  0  0  0  0  0  0  0  # atno 17231 bound_to 17210
  185.0847    5.3503   42.8453 H   0  0  0  0  0  0  0  0  0  0  0  0  # atno 17291 bound_to 17273
  186.8162    7.2262   40.9293 H   0  0  0  0  0  0  0  0  0  0  0  0  # atno 17343 bound_to 17319
  187.4637    0.6019   41.7971 H   0  0  0  0  0  0  0  0  0  0  0  0  # atno 18223 bound_to 18190
  186.6929    0.0166   45.3105 H   0  0  0  0  0  0  0  0  0  0  0  0  # atno 18283 bound_to 18265
  184.2620   -2.1246   46.3091 H   0  0  0  0  0  0  0  0  0  0  0  0  # atno 18287 bound_to 18270
  187.2173   -0.8460   48.8134 H   0  0  0  0  0  0  0  0  0  0  0  0  # atno 18322 bound_to 18307
  187.6575    0.1673   53.0429 H   0  0  0  0  0  0  0  0  0  0  0  0  # atno 18397 bound_to 18345
  185.4297    1.8338   54.4607 H   0  0  0  0  0  0  0  0  0  0  0  0  # atno 18484 bound_to 18439
  181.9719    8.2038   52.4503 H   0  0  0  0  0  0  0  0  0  0  0  0  # atno 18492 bound_to 18450
  187.4481    3.4671   57.0079 H   0  0  0  0  0  0  0  0  0  0  0  0  # atno 18552 bound_to 18519
  193.4301   13.2573   45.4646 H   0  0  0  0  0  0  0  0  0  0  0  0  # atno 26064 bound_to 26031
  193.0042   19.5001   52.8639 H   0  0  0  0  0  0  0  0  0  0  0  0  # atno 27154 bound_to 27102
  197.1765   19.0390   51.3776 H   0  0  0  0  0  0  0  0  0  0  0  0  # atno 27156 bound_to 27104
  198.2072   19.3783   46.5477 LP  0  0  0  0  0  0  0  0  0  0  0  0  # atno 27202 bound_to 2515
  196.6673   15.9144   43.5990 LP  0  0  0  0  0  0  0  0  0  0  0  0  # atno 27203 bound_to 2518
  197.1490   15.8222   45.2602 LP  0  0  0  0  0  0  0  0  0  0  0  0  # atno 27204 bound_to 2518
  196.5527   19.2246   43.5755 LP  0  0  0  0  0  0  0  0  0  0  0  0  # atno 27205 bound_to 2585
  195.0054   12.8505   45.4495 LP  0  0  0  0  0  0  0  0  0  0  0  0  # atno 27209 bound_to 26031
  193.8590   11.6879   45.4762 LP  0  0  0  0  0  0  0  0  0  0  0  0  # atno 27210 bound_to 26031
  192.2427   19.8079   51.4595 LP  0  0  0  0  0  0  0  0  0  0  0  0  # atno 27213 bound_to 27102
  193.2900   20.8967   52.0796 LP  0  0  0  0  0  0  0  0  0  0  0  0  # atno 27214 bound_to 27102
  195.6447    7.6811   52.4696 LP  0  0  0  0  0  0  0  0  0  0  0  0  # atno 27224 bound_to 7317
  195.2687    8.7599   51.1677 LP  0  0  0  0  0  0  0  0  0  0  0  0  # atno 27225 bound_to 7317
  197.6396    6.5366   51.2339 LP  0  0  0  0  0  0  0  0  0  0  0  0  # atno 27226 bound_to 7405
  198.1218    4.1458   51.9165 LP  0  0  0  0  0  0  0  0  0  0  0  0  # atno 27227 bound_to 7408
  197.8394    3.7100   53.5689 LP  0  0  0  0  0  0  0  0  0  0  0  0  # atno 27228 bound_to 7408
  196.0702    4.4935   52.9527 LP  0  0  0  0  0  0  0  0  0  0  0  0  # atno 27229 bound_to 7446
  195.7232    2.6050   53.9668 LP  0  0  0  0  0  0  0  0  0  0  0  0  # atno 27230 bound_to 7507
  185.2137    1.8539   48.1077 LP  0  0  0  0  0  0  0  0  0  0  0  0  # atno 27232 bound_to 17117
  185.4442    2.4042   49.7337 LP  0  0  0  0  0  0  0  0  0  0  0  0  # atno 27233 bound_to 17117
  183.0879    2.8340   48.3315 LP  0  0  0  0  0  0  0  0  0  0  0  0  # atno 27234 bound_to 17168
  184.9075    3.6984   45.0261 LP  0  0  0  0  0  0  0  0  0  0  0  0  # atno 27235 bound_to 17210
  185.5163    1.5761   45.5603 LP  0  0  0  0  0  0  0  0  0  0  0  0  # atno 27236 bound_to 18193
  187.0463    2.2875   45.1689 LP  0  0  0  0  0  0  0  0  0  0  0  0  # atno 27237 bound_to 18193
  187.5237   -1.3542   46.0033 LP  0  0  0  0  0  0  0  0  0  0  0  0  # atno 27238 bound_to 18265
  187.8218   -2.6877   49.1316 LP  0  0  0  0  0  0  0  0  0  0  0  0  # atno 27239 bound_to 18268
  187.6110   -2.4929   47.4235 LP  0  0  0  0  0  0  0  0  0  0  0  0  # atno 27240 bound_to 18268
  186.5470    0.4509   49.7766 LP  0  0  0  0  0  0  0  0  0  0  0  0  # atno 27241 bound_to 18307
  185.1326   -2.3321   51.5782 LP  0  0  0  0  0  0  0  0  0  0  0  0  # atno 27242 bound_to 18310
  184.5023   -0.7272   51.7424 LP  0  0  0  0  0  0  0  0  0  0  0  0  # atno 27243 bound_to 18310
  186.5686   -1.0617   52.4416 LP  0  0  0  0  0  0  0  0  0  0  0  0  # atno 27244 bound_to 18345
  188.1464    1.3702   54.7860 LP  0  0  0  0  0  0  0  0  0  0  0  0  # atno 27245 bound_to 18348
  187.4454    2.7736   54.0518 LP  0  0  0  0  0  0  0  0  0  0  0  0  # atno 27246 bound_to 18348
  185.0306    1.2633   56.0652 LP  0  0  0  0  0  0  0  0  0  0  0  0  # atno 27247 bound_to 18439
  186.7052    5.0001   56.6127 LP  0  0  0  0  0  0  0  0  0  0  0  0  # atno 27248 bound_to 18519
  183.7696    5.6630   44.5709 LP  0  0  0  0  0  0  0  0  0  0  0  0  # atno 27253 bound_to 17171
  182.6223    4.3807   44.7696 LP  0  0  0  0  0  0  0  0  0  0  0  0  # atno 27254 bound_to 17171
  187.6313    3.4290   42.8602 LP  0  0  0  0  0  0  0  0  0  0  0  0  # atno 27255 bound_to 17213
  186.1476    3.0346   42.0582 LP  0  0  0  0  0  0  0  0  0  0  0  0  # atno 27256 bound_to 17213
  179.6761    3.5008   49.6830 LP  0  0  0  0  0  0  0  0  0  0  0  0  # atno 27257 bound_to 17042
  180.9123    3.1689   48.5161 LP  0  0  0  0  0  0  0  0  0  0  0  0  # atno 27258 bound_to 17042
  186.4908    6.1568   42.1984 LP  0  0  0  0  0  0  0  0  0  0  0  0  # atno 27259 bound_to 17273
  181.1173    6.9525   51.8572 LP  0  0  0  0  0  0  0  0  0  0  0  0  # atno 27260 bound_to 18450
  182.6341    7.2355   51.3226 LP  0  0  0  0  0  0  0  0  0  0  0  0  # atno 27261 bound_to 18450
  186.4701    1.5184   42.9073 LP  0  0  0  0  0  0  0  0  0  0  0  0  # atno 27262 bound_to 18190
  184.0056   -2.3213   47.9035 LP  0  0  0  0  0  0  0  0  0  0  0  0  # atno 27263 bound_to 18270
  185.5161   -2.4434   47.2951 LP  0  0  0  0  0  0  0  0  0  0  0  0  # atno 27264 bound_to 18270
  190.1646   -4.7968   51.5694 LP  0  0  0  0  0  0  0  0  0  0  0  0  # atno 27265 bound_to 10086
  188.7379   -4.0479   51.3043 LP  0  0  0  0  0  0  0  0  0  0  0  0  # atno 27266 bound_to 10086
  188.2193   -2.4394   44.6297 LP  0  0  0  0  0  0  0  0  0  0  0  0  # atno 27267 bound_to 10127
  186.7364   -2.8407   45.4296 LP  0  0  0  0  0  0  0  0  0  0  0  0  # atno 27268 bound_to 10127
  184.6306    7.6197   43.3723 LP  0  0  0  0  0  0  0  0  0  0  0  0  # atno 27269 bound_to 11404
  185.3382    8.3649   41.9780 LP  0  0  0  0  0  0  0  0  0  0  0  0  # atno 27270 bound_to 11404
  180.7367    8.9693   50.6141 LP  0  0  0  0  0  0  0  0  0  0  0  0  # atno 27271 bound_to 16942
  179.7685    9.4400   49.3862 LP  0  0  0  0  0  0  0  0  0  0  0  0  # atno 27272 bound_to 16942
  183.0371    8.5710   42.2131 LP  0  0  0  0  0  0  0  0  0  0  0  0  # atno 27273 bound_to 11448
  181.7782    4.7778   43.9213 LP  0  0  0  0  0  0  0  0  0  0  0  0  # atno 27274 bound_to 11515
  178.8514    6.4054   48.0507 LP  0  0  0  0  0  0  0  0  0  0  0  0  # atno 27275 bound_to 11594
  179.2932    7.8659   47.2311 LP  0  0  0  0  0  0  0  0  0  0  0  0  # atno 27276 bound_to 11594
  179.0838    5.6262   44.2797 LP  0  0  0  0  0  0  0  0  0  0  0  0  # atno 27277 bound_to 11591
  181.9874   10.8771   43.1711 LP  0  0  0  0  0  0  0  0  0  0  0  0  # atno 27282 bound_to 11406
  181.8717   12.3250   42.4249 LP  0  0  0  0  0  0  0  0  0  0  0  0  # atno 27283 bound_to 11406
  185.1150   12.5107   55.4787 LP  0  0  0  0  0  0  0  0  0  0  0  0  # atno 27284 bound_to 18675
  183.5056   11.8959   55.2998 LP  0  0  0  0  0  0  0  0  0  0  0  0  # atno 27285 bound_to 18675

> <Gold.Score>
     Fitness  S(hb_ext) S(vdw_ext)  S(hb_int)    S(int)      intcor
     37.32       6.71      22.62       0.00      -0.50      -0.81

> <Gold.Goldscore.Fitness>
37.3209

> <Gold.Goldscore.Internal.Vdw>
-0.6835

> <Gold.Goldscore.Internal.Torsion>
-0.6221

> <Gold.Goldscore.External.Vdw>
22.6223

> <Gold.Goldscore.Internal.HBond>
0.0000

> <Gold.Goldscore.External.HBond>
6.7135

> <Gold.Goldscore.Internal.Correction>
-0.8073

> <Gold.Goldscore.Hbonds>
donor molecule, donor type, donor heavy atom, donor atom, acceptor molecule, acceptor atom, score
      P1  H 11455 11489       L1    17  0.10
      P1  H 19332 19366       L1    17  0.36
      L1  H    10    23       P1 19002  0.73

> <Gold.Goldscore.Internal.Vdw.Weighted>
-0.6835

> <Gold.Goldscore.Internal.Torsion.Weighted>
-0.6221

> <Gold.Goldscore.External.Vdw.Weighted>
31.1056

> <Gold.Goldscore.Internal.HBond.Weighted>
0.0000

> <Gold.Goldscore.External.HBond.Weighted>
6.7135

> <Gold.Goldscore.Internal.Correction.Weighted>
-0.8073

> <Gold.Rescore>
     Score     S(PLP)   S(hbond)     S(cho)   S(metal)  DE(clash)   DE(tors)     intcor
     27.11     -24.87       1.34       0.00       0.00       0.59       0.60       ----

> <Gold.PLP.Fitness>
27.1060

> <Gold.PLP.PLP>
-24.8698

> <Gold.PLP.part.hbond>
-5.8680

> <Gold.PLP.part.metal>
0.0000

> <Gold.PLP.part.buried>
2.2814

> <Gold.PLP.part.nonpolar>
-27.9631

> <Gold.PLP.part.repulsive>
5.7502

> <Gold.PLP.ligand.clash>
0.5943

> <Gold.PLP.ligand.torsion>
0.5992

> <Gold.PLP.Chemscore.Hbond>
1.3430

> <Gold.PLP.Chemscore.CHOScore>
0.0000

> <Gold.PLP.Chemscore.Metal>
0.0000

> <Gold.Chemscore.Hbonds>
donor molecule, donor type, donor heavy atom, donor atom, acceptor molecule, acceptor atom, score
      L1  H    10    23       P1 19002  0.40
      P1  H 19331 19364       L1    17  0.16
      P1  H 19332 19366       L1    17  0.73

> <Gold.PLP.Chemscore.Internal.Correction>
   9.000000E+99

