#       Name:                CT1002167954
#       Creating user name   hitesit
#       Creation time:       Sun Apr 16 22:50:45 2023


#       File generated by GOLD software.
#

@<TRIPOS>MOLECULE
CT1002167954|ligand_prepared|mol2|1|dock1
    29    30     1
SMALL
NO_CHARGES


@<TRIPOS>ATOM
      1 C1          31.8886  27.7392  -3.8601 C.3            1 RES1               0.0000
      2 C2          31.6875  26.2381  -3.5687 C.ar           1 RES1               0.0000
      3 C3          32.7538  28.2834  -2.7271 C.2            1 RES1               0.0000
      4 C4          32.5404  27.8231  -5.2359 C.2            1 RES1               0.0000
      5 C5          30.5719  28.5489  -3.9050 C.3            1 RES1               0.0000
      6 C6          32.7714  25.3652  -3.5667 C.ar           1 RES1               0.0000
      7 C7          30.4268  25.7128  -3.2979 C.ar           1 RES1               0.0000
      8 N8          34.0571  28.5695  -3.0088 N.am           1 RES1               0.0000
      9 O9          32.3097  28.4221  -1.5941 O.2            1 RES1               0.0000
     10 N10         33.8178  28.3131  -5.3125 N.am           1 RES1               0.0000
     11 O11         31.9653  27.4538  -6.2524 O.2            1 RES1               0.0000
     12 C12         30.7671  30.0188  -4.2417 C.3            1 RES1               0.0000
     13 C13         32.6016  24.0166  -3.3008 C.ar           1 RES1               0.0000
     14 C14         30.2591  24.3638  -3.0325 C.ar           1 RES1               0.0000
     15 C15         34.6169  28.6614  -4.2578 C.2            1 RES1               0.0000
     16 C16         31.3456  23.5151  -3.0331 C.ar           1 RES1               0.0000
     17 O17         35.7748  29.0423  -4.4034 O.2            1 RES1               0.0000
     18 H18         29.9070  28.1005  -4.6535 H              1 RES1               0.0000
     19 H19         30.0772  28.4730  -2.9288 H              1 RES1               0.0000
     20 H20         33.7669  25.7412  -3.7776 H              1 RES1               0.0000
     21 H21         29.5575  26.3616  -3.2931 H              1 RES1               0.0000
     22 H22         34.6725  28.7300  -2.2177 H              1 RES1               0.0000
     23 H23         34.2092  28.4291  -6.2418 H              1 RES1               0.0000
     24 H24         29.8125  30.5404  -4.2602 H              1 RES1               0.0000
     25 H25         31.4033  30.5025  -3.5034 H              1 RES1               0.0000
     26 H26         31.2341  30.1322  -5.2179 H              1 RES1               0.0000
     27 H27         33.4596  23.3525  -3.3038 H              1 RES1               0.0000
     28 H28         29.2688  23.9734  -2.8229 H              1 RES1               0.0000
     29 H29         31.2129  22.4586  -2.8244 H              1 RES1               0.0000
@<TRIPOS>BOND
    1    1    2 1     
    2    1    3 1     
    3    1    4 1     
    4    1    5 1     
    5    2    6 ar    
    6    2    7 ar    
    7    3    8 1     
    8    3    9 2     
    9    4   10 1     
   10    4   11 2     
   11    5   12 1     
   12    5   18 1     
   13    5   19 1     
   14    6   13 ar    
   15    6   20 1     
   16    7   14 ar    
   17    7   21 1     
   18    8   15 1     
   19    8   22 1     
   20   10   15 1     
   21   10   23 1     
   22   12   24 1     
   23   12   25 1     
   24   12   26 1     
   25   13   16 ar    
   26   13   27 1     
   27   14   16 ar    
   28   14   28 1     
   29   15   17 2     
   30   16   29 1     
@<TRIPOS>SUBSTRUCTURE
      1 RES1           1
@<TRIPOS>SET
DONOR_HYDROGENS      STATIC     ATOMS    <user>   **** ""
2 22 23
ATOM$RED        STATIC     ATOMS    COLORGROUP SYSTEM
2 22 23
@<TRIPOS>COMMENT
> <Gold.Version>
2022.3.0

> <Gold.Id.Protein>
unknown|3nx8_clean|pdb

> <Gold.Protein.RotatedTorsions>
[ 1667 1658 1657 1655 ] final -140.20 input   59.99 | X-H torsion
[  510  504  502  499 ] final  -35.20 input   60.04 | X-H torsion

> <Gold.Protein.ActiveResidues>
 HIS39   LEU40   ASP41   GLN42   PHE43   GLU44   ARG45   ILE46   LYS47   THR48  
 MET58   LEU59   VAL60   LYS61   HIS62   LYS63   MET71   ILE73   PHE110  ASP112 
 ASN115  TYR117  VAL119  GLU333  GLU334  ILE335  ARG336  VAL337 

> <Gold.Protein.RotatedAtoms>
   26.0298   19.3289   -7.3172 H   0  0  0  0  0  0  0  0  0  0  0  0  # atno 510  bound_to 504 
   26.9297   25.4936    2.0882 H   0  0  0  0  0  0  0  0  0  0  0  0  # atno 1667 bound_to 1658
   28.2229   26.4236    2.4195 LP  0  0  0  0  0  0  0  0  0  0  0  0  # atno 5360 bound_to 1658
   27.1093   26.1262    3.5763 LP  0  0  0  0  0  0  0  0  0  0  0  0  # atno 5361 bound_to 1658

> <Gold.Score>
     Fitness  S(hb_ext) S(vdw_ext)  S(hb_int)    S(int)      intcor
     36.24       0.03      26.35       0.00      -0.02      -0.76

> <Gold.Goldscore.Fitness>
36.2357

> <Gold.Goldscore.Internal.Vdw>
-0.4041

> <Gold.Goldscore.Internal.Torsion>
-0.3735

> <Gold.Goldscore.External.Vdw>
26.3475

> <Gold.Goldscore.Internal.HBond>
0.0000

> <Gold.Goldscore.External.HBond>
0.0269

> <Gold.Goldscore.Internal.Correction>
-0.7585

> <Gold.Goldscore.Hbonds>
donor molecule, donor type, donor heavy atom, donor atom, acceptor molecule, acceptor atom, score
      P1  H   433   447       L1    11  0.01

> <Gold.Goldscore.Internal.Vdw.Weighted>
-0.4041

> <Gold.Goldscore.Internal.Torsion.Weighted>
-0.3735

> <Gold.Goldscore.External.Vdw.Weighted>
36.2278

> <Gold.Goldscore.Internal.HBond.Weighted>
0.0000

> <Gold.Goldscore.External.HBond.Weighted>
0.0269

> <Gold.Goldscore.Internal.Correction.Weighted>
-0.7585

> <Gold.Rescore>
     Score     S(PLP)   S(hbond)     S(cho)   S(metal)  DE(clash)   DE(tors)     intcor
     36.42     -33.88       0.96       0.00       0.00       0.00       0.17       ----

> <Gold.PLP.Fitness>
36.4246

> <Gold.PLP.PLP>
-33.8823

> <Gold.PLP.part.hbond>
-2.7240

> <Gold.PLP.part.metal>
0.0000

> <Gold.PLP.part.buried>
1.6762

> <Gold.PLP.part.nonpolar>
-34.4959

> <Gold.PLP.part.repulsive>
1.3449

> <Gold.PLP.ligand.clash>
0.0000

> <Gold.PLP.ligand.torsion>
0.1670

> <Gold.PLP.Chemscore.Hbond>
0.9588

> <Gold.PLP.Chemscore.CHOScore>
0.0000

> <Gold.PLP.Chemscore.Metal>
0.0000

> <Gold.Chemscore.Hbonds>
donor molecule, donor type, donor heavy atom, donor atom, acceptor molecule, acceptor atom, score
      P1  H   433   447       L1    11  0.21

> <Gold.PLP.Chemscore.Internal.Correction>
   9.000000E+99

#       Name:                CT1002167954
#       Creating user name   hitesit
#       Creation time:       Sun Apr 16 22:50:51 2023


#       File generated by GOLD software.
#

@<TRIPOS>MOLECULE
CT1002167954|ligand_prepared|mol2|1|dock8
    29    30     1
SMALL
NO_CHARGES


@<TRIPOS>ATOM
      1 C1          31.4268  27.5479  -3.7454 C.3            1 RES1               0.0000
      2 C2          31.3403  26.0390  -3.4380 C.ar           1 RES1               0.0000
      3 C3          29.9894  28.0378  -3.8946 C.2            1 RES1               0.0000
      4 C4          32.1811  28.1782  -2.5799 C.2            1 RES1               0.0000
      5 C5          32.1956  27.8775  -5.0461 C.3            1 RES1               0.0000
      6 C6          32.4400  25.2105  -3.6403 C.ar           1 RES1               0.0000
      7 C7          30.1706  25.4626  -2.9500 C.ar           1 RES1               0.0000
      8 N8          29.4688  28.7870  -2.8809 N.am           1 RES1               0.0000
      9 O9          29.3101  27.7382  -4.8688 O.2            1 RES1               0.0000
     10 N10         31.5018  29.0539  -1.7739 N.am           1 RES1               0.0000
     11 O11         33.3527  27.9117  -2.3423 O.2            1 RES1               0.0000
     12 C12         32.0949  29.3358  -5.4651 C.3            1 RES1               0.0000
     13 C13         32.3738  23.8553  -3.3620 C.ar           1 RES1               0.0000
     14 C14         30.1065  24.1071  -2.6726 C.ar           1 RES1               0.0000
     15 C15         30.1713  29.3633  -1.8533 C.2            1 RES1               0.0000
     16 C16         31.2073  23.3028  -2.8777 C.ar           1 RES1               0.0000
     17 O17         29.6197  30.1184  -1.0579 O.2            1 RES1               0.0000
     18 H18         33.2533  27.6228  -4.9053 H              1 RES1               0.0000
     19 H19         31.8045  27.2497  -5.8562 H              1 RES1               0.0000
     20 H20         33.3657  25.6269  -4.0232 H              1 RES1               0.0000
     21 H21         29.2918  26.0758  -2.7820 H              1 RES1               0.0000
     22 H22         28.4642  28.9321  -2.8875 H              1 RES1               0.0000
     23 H23         32.0377  29.5182  -1.0476 H              1 RES1               0.0000
     24 H24         32.6517  29.5127  -6.3829 H              1 RES1               0.0000
     25 H25         31.0581  29.6167  -5.6382 H              1 RES1               0.0000
     26 H26         32.4983  29.9876  -4.6930 H              1 RES1               0.0000
     27 H27         33.2425  23.2264  -3.5265 H              1 RES1               0.0000
     28 H28         29.1861  23.6764  -2.2921 H              1 RES1               0.0000
     29 H29         31.1558  22.2412  -2.6594 H              1 RES1               0.0000
@<TRIPOS>BOND
    1    1    2 1     
    2    1    3 1     
    3    1    4 1     
    4    1    5 1     
    5    2    6 ar    
    6    2    7 ar    
    7    3    8 1     
    8    3    9 2     
    9    4   10 1     
   10    4   11 2     
   11    5   12 1     
   12    5   18 1     
   13    5   19 1     
   14    6   13 ar    
   15    6   20 1     
   16    7   14 ar    
   17    7   21 1     
   18    8   15 1     
   19    8   22 1     
   20   10   15 1     
   21   10   23 1     
   22   12   24 1     
   23   12   25 1     
   24   12   26 1     
   25   13   16 ar    
   26   13   27 1     
   27   14   16 ar    
   28   14   28 1     
   29   15   17 2     
   30   16   29 1     
@<TRIPOS>SUBSTRUCTURE
      1 RES1           1
@<TRIPOS>SET
DONOR_HYDROGENS      STATIC     ATOMS    <user>   **** ""
2 22 23
ATOM$RED        STATIC     ATOMS    COLORGROUP SYSTEM
2 22 23
@<TRIPOS>COMMENT
> <Gold.Version>
2022.3.0

> <Gold.Id.Protein>
unknown|3nx8_clean|pdb

> <Gold.Protein.RotatedTorsions>
[ 1667 1658 1657 1655 ] final  129.76 input   59.99 | X-H torsion
[  510  504  502  499 ] final  128.82 input   60.04 | X-H torsion

> <Gold.Protein.ActiveResidues>
 HIS39   LEU40   ASP41   GLN42   PHE43   GLU44   ARG45   ILE46   LYS47   THR48  
 MET58   LEU59   VAL60   LYS61   HIS62   LYS63   MET71   ILE73   PHE110  ASP112 
 ASN115  TYR117  VAL119  GLU333  GLU334  ILE335  ARG336  VAL337 

> <Gold.Protein.RotatedAtoms>
   24.7897   19.7225   -8.6389 H   0  0  0  0  0  0  0  0  0  0  0  0  # atno 510  bound_to 504 
   28.0587   26.1825    2.0310 H   0  0  0  0  0  0  0  0  0  0  0  0  # atno 1667 bound_to 1658
   27.5251   26.3799    3.5553 LP  0  0  0  0  0  0  0  0  0  0  0  0  # atno 5360 bound_to 1658
   26.6697   25.4758    2.4981 LP  0  0  0  0  0  0  0  0  0  0  0  0  # atno 5361 bound_to 1658

> <Gold.Score>
     Fitness  S(hb_ext) S(vdw_ext)  S(hb_int)    S(int)      intcor
     35.12       0.00      26.32       0.00      -1.06      -0.76

> <Gold.Goldscore.Fitness>
35.1213

> <Gold.Goldscore.Internal.Vdw>
-1.3198

> <Gold.Goldscore.Internal.Torsion>
-0.5037

> <Gold.Goldscore.External.Vdw>
26.3173

> <Gold.Goldscore.Internal.HBond>
0.0000

> <Gold.Goldscore.External.HBond>
0.0000

> <Gold.Goldscore.Internal.Correction>
-0.7585

> <Gold.Goldscore.Internal.Vdw.Weighted>
-1.3198

> <Gold.Goldscore.Internal.Torsion.Weighted>
-0.5037

> <Gold.Goldscore.External.Vdw.Weighted>
36.1863

> <Gold.Goldscore.Internal.HBond.Weighted>
0.0000

> <Gold.Goldscore.External.HBond.Weighted>
0.0000

> <Gold.Goldscore.Internal.Correction.Weighted>
-0.7585

> <Gold.Rescore>
     Score     S(PLP)   S(hbond)     S(cho)   S(metal)  DE(clash)   DE(tors)     intcor
     37.34     -39.05       0.00       0.00       0.00       0.64       0.53       ----

> <Gold.PLP.Fitness>
37.3365

> <Gold.PLP.PLP>
-39.0456

> <Gold.PLP.part.hbond>
0.0000

> <Gold.PLP.part.metal>
0.0000

> <Gold.PLP.part.buried>
-3.7052

> <Gold.PLP.part.nonpolar>
-36.1352

> <Gold.PLP.part.repulsive>
0.1970

> <Gold.PLP.ligand.clash>
0.6440

> <Gold.PLP.ligand.torsion>
0.5326

> <Gold.PLP.Chemscore.Hbond>
0.0000

> <Gold.PLP.Chemscore.CHOScore>
0.0000

> <Gold.PLP.Chemscore.Metal>
0.0000

> <Gold.PLP.Chemscore.Internal.Correction>
   9.000000E+99

#       Name:                CT1002167954
#       Creating user name   hitesit
#       Creation time:       Sun Apr 16 22:50:48 2023


#       File generated by GOLD software.
#

@<TRIPOS>MOLECULE
CT1002167954|ligand_prepared|mol2|1|dock5
    29    30     1
SMALL
NO_CHARGES


@<TRIPOS>ATOM
      1 C1          31.9516  27.5998  -3.7001 C.3            1 RES1               0.0000
      2 C2          31.7192  26.1014  -3.4179 C.ar           1 RES1               0.0000
      3 C3          30.5698  28.2209  -3.8821 C.2            1 RES1               0.0000
      4 C4          32.7257  28.1440  -2.5045 C.2            1 RES1               0.0000
      5 C5          32.7850  27.8739  -4.9736 C.3            1 RES1               0.0000
      6 C6          30.4611  25.6373  -3.0458 C.ar           1 RES1               0.0000
      7 C7          32.7506  25.1726  -3.5281 C.ar           1 RES1               0.0000
      8 N8          30.0901  29.0018  -2.8722 N.am           1 RES1               0.0000
      9 O9          29.8948  27.9967  -4.8793 O.2            1 RES1               0.0000
     10 N10         32.1057  29.0680  -1.7048 N.am           1 RES1               0.0000
     11 O11         33.8608  27.7685  -2.2382 O.2            1 RES1               0.0000
     12 C12         32.8682  29.3455  -5.3470 C.3            1 RES1               0.0000
     13 C13         30.2413  24.2929  -2.7956 C.ar           1 RES1               0.0000
     14 C14         32.5287  23.8286  -3.2772 C.ar           1 RES1               0.0000
     15 C15         30.8118  29.4987  -1.8168 C.2            1 RES1               0.0000
     16 C16         31.2746  23.3877  -2.9116 C.ar           1 RES1               0.0000
     17 O17         30.3082  30.2912  -1.0258 O.2            1 RES1               0.0000
     18 H18         33.8013  27.4906  -4.8199 H              1 RES1               0.0000
     19 H19         32.3415  27.3216  -5.8114 H              1 RES1               0.0000
     20 H20         29.6364  26.3352  -2.9470 H              1 RES1               0.0000
     21 H21         33.7456  25.4969  -3.8133 H              1 RES1               0.0000
     22 H22         29.1035  29.2382  -2.9047 H              1 RES1               0.0000
     23 H23         32.6602  29.4723  -0.9569 H              1 RES1               0.0000
     24 H24         33.4638  29.4820  -6.2472 H              1 RES1               0.0000
     25 H25         31.8765  29.7533  -5.5318 H              1 RES1               0.0000
     26 H26         33.3276  29.9212  -4.5462 H              1 RES1               0.0000
     27 H27         29.2528  23.9511  -2.5068 H              1 RES1               0.0000
     28 H28         33.3450  23.1198  -3.3691 H              1 RES1               0.0000
     29 H29         31.1021  22.3345  -2.7159 H              1 RES1               0.0000
@<TRIPOS>BOND
    1    1    2 1     
    2    1    3 1     
    3    1    4 1     
    4    1    5 1     
    5    2    6 ar    
    6    2    7 ar    
    7    3    8 1     
    8    3    9 2     
    9    4   10 1     
   10    4   11 2     
   11    5   12 1     
   12    5   18 1     
   13    5   19 1     
   14    6   13 ar    
   15    6   20 1     
   16    7   14 ar    
   17    7   21 1     
   18    8   15 1     
   19    8   22 1     
   20   10   15 1     
   21   10   23 1     
   22   12   24 1     
   23   12   25 1     
   24   12   26 1     
   25   13   16 ar    
   26   13   27 1     
   27   14   16 ar    
   28   14   28 1     
   29   15   17 2     
   30   16   29 1     
@<TRIPOS>SUBSTRUCTURE
      1 RES1           1
@<TRIPOS>SET
DONOR_HYDROGENS      STATIC     ATOMS    <user>   **** ""
2 22 23
ATOM$RED        STATIC     ATOMS    COLORGROUP SYSTEM
2 22 23
@<TRIPOS>COMMENT
> <Gold.Version>
2022.3.0

> <Gold.Id.Protein>
unknown|3nx8_clean|pdb

> <Gold.Protein.RotatedTorsions>
[ 1667 1658 1657 1655 ] final -110.92 input   59.99 | X-H torsion
[  510  504  502  499 ] final -153.60 input   60.04 | X-H torsion

> <Gold.Protein.ActiveResidues>
 HIS39   LEU40   ASP41   GLN42   PHE43   GLU44   ARG45   ILE46   LYS47   THR48  
 MET58   LEU59   VAL60   LYS61   HIS62   LYS63   MET71   ILE73   PHE110  ASP112 
 ASN115  TYR117  VAL119  GLU333  GLU334  ILE335  ARG336  VAL337 

> <Gold.Protein.RotatedAtoms>
   24.4543   19.2315   -7.6276 H   0  0  0  0  0  0  0  0  0  0  0  0  # atno 510  bound_to 504 
   26.6802   25.4764    2.4898 H   0  0  0  0  0  0  0  0  0  0  0  0  # atno 1667 bound_to 1658
   28.0680   26.1921    2.0328 LP  0  0  0  0  0  0  0  0  0  0  0  0  # atno 5360 bound_to 1658
   27.5154   26.3750    3.5585 LP  0  0  0  0  0  0  0  0  0  0  0  0  # atno 5361 bound_to 1658

> <Gold.Score>
     Fitness  S(hb_ext) S(vdw_ext)  S(hb_int)    S(int)      intcor
     35.09       0.00      26.60       0.00      -1.49      -0.76

> <Gold.Goldscore.Fitness>
35.0875

> <Gold.Goldscore.Internal.Vdw>
-1.7935

> <Gold.Goldscore.Internal.Torsion>
-0.4518

> <Gold.Goldscore.External.Vdw>
26.5995

> <Gold.Goldscore.Internal.HBond>
0.0000

> <Gold.Goldscore.External.HBond>
0.0000

> <Gold.Goldscore.Internal.Correction>
-0.7585

> <Gold.Goldscore.Internal.Vdw.Weighted>
-1.7935

> <Gold.Goldscore.Internal.Torsion.Weighted>
-0.4518

> <Gold.Goldscore.External.Vdw.Weighted>
36.5743

> <Gold.Goldscore.Internal.HBond.Weighted>
0.0000

> <Gold.Goldscore.External.HBond.Weighted>
0.0000

> <Gold.Goldscore.Internal.Correction.Weighted>
-0.7585

> <Gold.Rescore>
     Score     S(PLP)   S(hbond)     S(cho)   S(metal)  DE(clash)   DE(tors)     intcor
     37.77     -39.88       0.00       0.00       0.00       2.02       0.04       ----

> <Gold.PLP.Fitness>
37.7690

> <Gold.PLP.PLP>
-39.8774

> <Gold.PLP.part.hbond>
0.0000

> <Gold.PLP.part.metal>
0.0000

> <Gold.PLP.part.buried>
-4.3517

> <Gold.PLP.part.nonpolar>
-35.9419

> <Gold.PLP.part.repulsive>
0.1953

> <Gold.PLP.ligand.clash>
2.0248

> <Gold.PLP.ligand.torsion>
0.0418

> <Gold.PLP.Chemscore.Hbond>
0.0000

> <Gold.PLP.Chemscore.CHOScore>
0.0000

> <Gold.PLP.Chemscore.Metal>
0.0000

> <Gold.PLP.Chemscore.Internal.Correction>
   9.000000E+99

#       Name:                CT1002167954
#       Creating user name   hitesit
#       Creation time:       Sun Apr 16 22:50:46 2023


#       File generated by GOLD software.
#

@<TRIPOS>MOLECULE
CT1002167954|ligand_prepared|mol2|1|dock2
    29    30     1
SMALL
NO_CHARGES


@<TRIPOS>ATOM
      1 C1          31.8137  27.6845  -3.9171 C.3            1 RES1               0.0000
      2 C2          31.6397  26.1978  -3.5454 C.ar           1 RES1               0.0000
      3 C3          32.7648  28.2767  -2.8813 C.2            1 RES1               0.0000
      4 C4          32.3540  27.7073  -5.3427 C.2            1 RES1               0.0000
      5 C5          30.4957  28.4931  -3.8927 C.3            1 RES1               0.0000
      6 C6          30.3837  25.5997  -3.5853 C.ar           1 RES1               0.0000
      7 C7          32.7241  25.4123  -3.1638 C.ar           1 RES1               0.0000
      8 N8          34.0411  28.5485  -3.2778 N.am           1 RES1               0.0000
      9 O9          32.4118  28.4653  -1.7237 O.2            1 RES1               0.0000
     10 N10         33.6202  28.1919  -5.5418 N.am           1 RES1               0.0000
     11 O11         31.7009  27.2946  -6.2932 O.2            1 RES1               0.0000
     12 C12         30.6967  29.9966  -3.9992 C.3            1 RES1               0.0000
     13 C13         30.2182  24.2640  -3.2585 C.ar           1 RES1               0.0000
     14 C14         32.5563  24.0768  -2.8372 C.ar           1 RES1               0.0000
     15 C15         34.4997  28.5850  -4.5701 C.2            1 RES1               0.0000
     16 C16         31.3042  23.5016  -2.8847 C.ar           1 RES1               0.0000
     17 O17         35.6416  28.9578  -4.8237 O.2            1 RES1               0.0000
     18 H18         29.8627  28.1617  -4.7251 H              1 RES1               0.0000
     19 H19         29.9638  28.2733  -2.9588 H              1 RES1               0.0000
     20 H20         29.5170  26.1845  -3.8748 H              1 RES1               0.0000
     21 H21         33.7182  25.8438  -3.1182 H              1 RES1               0.0000
     22 H22         34.7169  28.7426  -2.5458 H              1 RES1               0.0000
     23 H23         33.9364  28.2667  -6.5034 H              1 RES1               0.0000
     24 H24         29.7410  30.5160  -3.9772 H              1 RES1               0.0000
     25 H25         31.3013  30.3644  -3.1728 H              1 RES1               0.0000
     26 H26         31.2008  30.2534  -4.9286 H              1 RES1               0.0000
     27 H27         29.2305  23.8165  -3.2962 H              1 RES1               0.0000
     28 H28         33.4138  23.4806  -2.5429 H              1 RES1               0.0000
     29 H29         31.1744  22.4551  -2.6291 H              1 RES1               0.0000
@<TRIPOS>BOND
    1    1    2 1     
    2    1    3 1     
    3    1    4 1     
    4    1    5 1     
    5    2    6 ar    
    6    2    7 ar    
    7    3    8 1     
    8    3    9 2     
    9    4   10 1     
   10    4   11 2     
   11    5   12 1     
   12    5   18 1     
   13    5   19 1     
   14    6   13 ar    
   15    6   20 1     
   16    7   14 ar    
   17    7   21 1     
   18    8   15 1     
   19    8   22 1     
   20   10   15 1     
   21   10   23 1     
   22   12   24 1     
   23   12   25 1     
   24   12   26 1     
   25   13   16 ar    
   26   13   27 1     
   27   14   16 ar    
   28   14   28 1     
   29   15   17 2     
   30   16   29 1     
@<TRIPOS>SUBSTRUCTURE
      1 RES1           1
@<TRIPOS>SET
DONOR_HYDROGENS      STATIC     ATOMS    <user>   **** ""
2 22 23
ATOM$RED        STATIC     ATOMS    COLORGROUP SYSTEM
2 22 23
@<TRIPOS>COMMENT
> <Gold.Version>
2022.3.0

> <Gold.Id.Protein>
unknown|3nx8_clean|pdb

> <Gold.Protein.RotatedTorsions>
[ 1667 1658 1657 1655 ] final -116.80 input   59.99 | X-H torsion
[  510  504  502  499 ] final -117.39 input   60.04 | X-H torsion

> <Gold.Protein.ActiveResidues>
 HIS39   LEU40   ASP41   GLN42   PHE43   GLU44   ARG45   ILE46   LYS47   THR48  
 MET58   LEU59   VAL60   LYS61   HIS62   LYS63   MET71   ILE73   PHE110  ASP112 
 ASN115  TYR117  VAL119  GLU333  GLU334  ILE335  ARG336  VAL337 

> <Gold.Protein.RotatedAtoms>
   24.8261   19.0997   -7.1996 H   0  0  0  0  0  0  0  0  0  0  0  0  # atno 510  bound_to 504 
   26.7166   25.4685    2.4013 H   0  0  0  0  0  0  0  0  0  0  0  0  # atno 1667 bound_to 1658
   28.1144   26.2444    2.0996 LP  0  0  0  0  0  0  0  0  0  0  0  0  # atno 5360 bound_to 1658
   27.4324   26.3307    3.5808 LP  0  0  0  0  0  0  0  0  0  0  0  0  # atno 5361 bound_to 1658

> <Gold.Score>
     Fitness  S(hb_ext) S(vdw_ext)  S(hb_int)    S(int)      intcor
     34.97       0.05      25.86       0.00      -0.64      -0.76

> <Gold.Goldscore.Fitness>
34.9681

> <Gold.Goldscore.Internal.Vdw>
-0.8419

> <Gold.Goldscore.Internal.Torsion>
-0.5597

> <Gold.Goldscore.External.Vdw>
25.8633

> <Gold.Goldscore.Internal.HBond>
0.0000

> <Gold.Goldscore.External.HBond>
0.0492

> <Gold.Goldscore.Internal.Correction>
-0.7585

> <Gold.Goldscore.Hbonds>
donor molecule, donor type, donor heavy atom, donor atom, acceptor molecule, acceptor atom, score
      P1  H   433   447       L1    11  0.02

> <Gold.Goldscore.Internal.Vdw.Weighted>
-0.8419

> <Gold.Goldscore.Internal.Torsion.Weighted>
-0.5597

> <Gold.Goldscore.External.Vdw.Weighted>
35.5620

> <Gold.Goldscore.Internal.HBond.Weighted>
0.0000

> <Gold.Goldscore.External.HBond.Weighted>
0.0492

> <Gold.Goldscore.Internal.Correction.Weighted>
-0.7585

> <Gold.Rescore>
     Score     S(PLP)   S(hbond)     S(cho)   S(metal)  DE(clash)   DE(tors)     intcor
     37.24     -34.25       1.00       0.00       0.00       0.00       0.00       ----

> <Gold.PLP.Fitness>
37.2440

> <Gold.PLP.PLP>
-34.2529

> <Gold.PLP.part.hbond>
-1.9763

> <Gold.PLP.part.metal>
0.0000

> <Gold.PLP.part.buried>
1.2172

> <Gold.PLP.part.nonpolar>
-34.1193

> <Gold.PLP.part.repulsive>
0.4153

> <Gold.PLP.ligand.clash>
0.0000

> <Gold.PLP.ligand.torsion>
0.0045

> <Gold.PLP.Chemscore.Hbond>
1.0000

> <Gold.PLP.Chemscore.CHOScore>
0.0000

> <Gold.PLP.Chemscore.Metal>
0.0000

> <Gold.Chemscore.Hbonds>
donor molecule, donor type, donor heavy atom, donor atom, acceptor molecule, acceptor atom, score
      P1  H   433   447       L1    11  0.03

> <Gold.PLP.Chemscore.Internal.Correction>
   9.000000E+99

#       Name:                CT1002167954
#       Creating user name   hitesit
#       Creation time:       Sun Apr 16 22:50:47 2023


#       File generated by GOLD software.
#

@<TRIPOS>MOLECULE
CT1002167954|ligand_prepared|mol2|1|dock3
    29    30     1
SMALL
NO_CHARGES


@<TRIPOS>ATOM
      1 C1          31.5671  27.4700  -3.9223 C.3            1 RES1               0.0000
      2 C2          31.4473  25.9715  -3.5776 C.ar           1 RES1               0.0000
      3 C3          31.9043  27.5421  -5.4087 C.2            1 RES1               0.0000
      4 C4          30.2276  28.1002  -3.5571 C.2            1 RES1               0.0000
      5 C5          32.6731  28.2067  -3.1314 C.3            1 RES1               0.0000
      6 C6          32.5834  25.2117  -3.3156 C.ar           1 RES1               0.0000
      7 C7          30.2097  25.3367  -3.5153 C.ar           1 RES1               0.0000
      8 N8          30.9179  27.9410  -6.2618 N.am           1 RES1               0.0000
      9 O9          33.0071  27.2160  -5.8303 O.2            1 RES1               0.0000
     10 N10         29.4577  28.6055  -4.5718 N.am           1 RES1               0.0000
     11 O11         29.8244  28.1488  -2.4015 O.2            1 RES1               0.0000
     12 C12         32.6052  29.7213  -3.2482 C.3            1 RES1               0.0000
     13 C13         32.4857  23.8667  -2.9998 C.ar           1 RES1               0.0000
     14 C14         30.1142  23.9915  -3.1995 C.ar           1 RES1               0.0000
     15 C15         29.7283  28.5269  -5.9108 C.2            1 RES1               0.0000
     16 C16         31.2512  23.2558  -2.9411 C.ar           1 RES1               0.0000
     17 O17         28.9602  28.9567  -6.7667 O.2            1 RES1               0.0000
     18 H18         32.5939  27.9302  -2.0728 H              1 RES1               0.0000
     19 H19         33.6516  27.8682  -3.4940 H              1 RES1               0.0000
     20 H20         33.5637  25.6746  -3.3594 H              1 RES1               0.0000
     21 H21         29.3018  25.8954  -3.7159 H              1 RES1               0.0000
     22 H22         31.0797  27.7897  -7.2524 H              1 RES1               0.0000
     23 H23         28.6038  29.0847  -4.3042 H              1 RES1               0.0000
     24 H24         33.4031  30.1885  -2.6748 H              1 RES1               0.0000
     25 H25         32.7060  30.0331  -4.2857 H              1 RES1               0.0000
     26 H26         31.6546  30.0948  -2.8729 H              1 RES1               0.0000
     27 H27         33.3837  23.2918  -2.7986 H              1 RES1               0.0000
     28 H28         29.1406  23.5147  -3.1551 H              1 RES1               0.0000
     29 H29         31.1749  22.2023  -2.6933 H              1 RES1               0.0000
@<TRIPOS>BOND
    1    1    2 1     
    2    1    3 1     
    3    1    4 1     
    4    1    5 1     
    5    2    6 ar    
    6    2    7 ar    
    7    3    8 1     
    8    3    9 2     
    9    4   10 1     
   10    4   11 2     
   11    5   12 1     
   12    5   18 1     
   13    5   19 1     
   14    6   13 ar    
   15    6   20 1     
   16    7   14 ar    
   17    7   21 1     
   18    8   15 1     
   19    8   22 1     
   20   10   15 1     
   21   10   23 1     
   22   12   24 1     
   23   12   25 1     
   24   12   26 1     
   25   13   16 ar    
   26   13   27 1     
   27   14   16 ar    
   28   14   28 1     
   29   15   17 2     
   30   16   29 1     
@<TRIPOS>SUBSTRUCTURE
      1 RES1           1
@<TRIPOS>SET
DONOR_HYDROGENS      STATIC     ATOMS    <user>   **** ""
2 22 23
ATOM$RED        STATIC     ATOMS    COLORGROUP SYSTEM
2 22 23
@<TRIPOS>COMMENT
> <Gold.Version>
2022.3.0

> <Gold.Id.Protein>
unknown|3nx8_clean|pdb

> <Gold.Protein.RotatedTorsions>
[ 1667 1658 1657 1655 ] final  -39.81 input   59.99 | X-H torsion
[  510  504  502  499 ] final  -36.05 input   60.04 | X-H torsion

> <Gold.Protein.ActiveResidues>
 HIS39   LEU40   ASP41   GLN42   PHE43   GLU44   ARG45   ILE46   LYS47   THR48  
 MET58   LEU59   VAL60   LYS61   HIS62   LYS63   MET71   ILE73   PHE110  ASP112 
 ASN115  TYR117  VAL119  GLU333  GLU334  ILE335  ARG336  VAL337 

> <Gold.Protein.RotatedAtoms>
   26.0209   19.3235   -7.3079 H   0  0  0  0  0  0  0  0  0  0  0  0  # atno 510  bound_to 504 
   26.8811   25.9377    3.4550 H   0  0  0  0  0  0  0  0  0  0  0  0  # atno 1667 bound_to 1658
   27.1691   25.5796    1.8942 LP  0  0  0  0  0  0  0  0  0  0  0  0  # atno 5360 bound_to 1658
   28.2120   26.5227    2.7247 LP  0  0  0  0  0  0  0  0  0  0  0  0  # atno 5361 bound_to 1658

> <Gold.Score>
     Fitness  S(hb_ext) S(vdw_ext)  S(hb_int)    S(int)      intcor
     34.16       0.33      25.22       0.00      -0.85      -0.76

> <Gold.Goldscore.Fitness>
34.1552

> <Gold.Goldscore.Internal.Vdw>
-1.0219

> <Gold.Goldscore.Internal.Torsion>
-0.5893

> <Gold.Goldscore.External.Vdw>
25.2179

> <Gold.Goldscore.Internal.HBond>
0.0000

> <Gold.Goldscore.External.HBond>
0.3333

> <Gold.Goldscore.Internal.Correction>
-0.7585

> <Gold.Goldscore.Hbonds>
donor molecule, donor type, donor heavy atom, donor atom, acceptor molecule, acceptor atom, score
      P1  H   433   447       L1     9  0.17

> <Gold.Goldscore.Internal.Vdw.Weighted>
-1.0219

> <Gold.Goldscore.Internal.Torsion.Weighted>
-0.5893

> <Gold.Goldscore.External.Vdw.Weighted>
34.6746

> <Gold.Goldscore.Internal.HBond.Weighted>
0.0000

> <Gold.Goldscore.External.HBond.Weighted>
0.3333

> <Gold.Goldscore.Internal.Correction.Weighted>
-0.7585

> <Gold.Rescore>
     Score     S(PLP)   S(hbond)     S(cho)   S(metal)  DE(clash)   DE(tors)     intcor
     43.31     -41.82       1.00       0.00       0.00       1.28       0.11       ----

> <Gold.PLP.Fitness>
43.3094

> <Gold.PLP.PLP>
-41.8169

> <Gold.PLP.part.hbond>
-1.0000

> <Gold.PLP.part.metal>
0.0000

> <Gold.PLP.part.buried>
-4.2034

> <Gold.PLP.part.nonpolar>
-37.6206

> <Gold.PLP.part.repulsive>
0.1422

> <Gold.PLP.ligand.clash>
1.2781

> <Gold.PLP.ligand.torsion>
0.1147

> <Gold.PLP.Chemscore.Hbond>
1.0000

> <Gold.PLP.Chemscore.CHOScore>
0.0000

> <Gold.PLP.Chemscore.Metal>
0.0000

> <Gold.Chemscore.Hbonds>
donor molecule, donor type, donor heavy atom, donor atom, acceptor molecule, acceptor atom, score
      P1  H   433   447       L1     9  1.00

> <Gold.PLP.Chemscore.Internal.Correction>
   9.000000E+99

#       Name:                CT1002167954
#       Creating user name   hitesit
#       Creation time:       Sun Apr 16 22:50:50 2023


#       File generated by GOLD software.
#

@<TRIPOS>MOLECULE
CT1002167954|ligand_prepared|mol2|1|dock7
    29    30     1
SMALL
NO_CHARGES


@<TRIPOS>ATOM
      1 C1          30.2464  27.7765  -4.3373 C.3            1 RES1               0.0000
      2 C2          30.9271  26.4915  -3.8233 C.ar           1 RES1               0.0000
      3 C3          31.3636  28.6704  -4.8675 C.2            1 RES1               0.0000
      4 C4          29.2466  27.3339  -5.3999 C.2            1 RES1               0.0000
      5 C5          29.4722  28.5526  -3.2466 C.3            1 RES1               0.0000
      6 C6          30.2090  25.5564  -3.0839 C.ar           1 RES1               0.0000
      7 C7          32.2692  26.2265  -4.0823 C.ar           1 RES1               0.0000
      8 N8          31.4845  28.7955  -6.2202 N.am           1 RES1               0.0000
      9 O9          32.1511  29.2255  -4.1113 O.2            1 RES1               0.0000
     10 N10         29.4702  27.7243  -6.6942 N.am           1 RES1               0.0000
     11 O11         28.2762  26.6367  -5.1306 O.2            1 RES1               0.0000
     12 C12         28.9845  29.9207  -3.6969 C.3            1 RES1               0.0000
     13 C13         30.8100  24.3969  -2.6227 C.ar           1 RES1               0.0000
     14 C14         32.8683  25.0664  -3.6199 C.ar           1 RES1               0.0000
     15 C15         30.5604  28.4092  -7.1574 C.2            1 RES1               0.0000
     16 C16         32.1398  24.1509  -2.8906 C.ar           1 RES1               0.0000
     17 O17         30.7173  28.6765  -8.3453 O.2            1 RES1               0.0000
     18 H18         28.6072  27.9546  -2.9344 H              1 RES1               0.0000
     19 H19         30.1244  28.6801  -2.3737 H              1 RES1               0.0000
     20 H20         29.1622  25.7340  -2.8611 H              1 RES1               0.0000
     21 H21         32.8622  26.9330  -4.6531 H              1 RES1               0.0000
     22 H22         32.3413  29.2150  -6.5669 H              1 RES1               0.0000
     23 H23         28.7578  27.4820  -7.3756 H              1 RES1               0.0000
     24 H24         28.4481  30.4224  -2.8943 H              1 RES1               0.0000
     25 H25         29.8213  30.5510  -3.9909 H              1 RES1               0.0000
     26 H26         28.3131  29.8298  -4.5482 H              1 RES1               0.0000
     27 H27         30.2326  23.6802  -2.0480 H              1 RES1               0.0000
     28 H28         33.9153  24.8773  -3.8326 H              1 RES1               0.0000
     29 H29         32.6102  23.2424  -2.5295 H              1 RES1               0.0000
@<TRIPOS>BOND
    1    1    2 1     
    2    1    3 1     
    3    1    4 1     
    4    1    5 1     
    5    2    6 ar    
    6    2    7 ar    
    7    3    8 1     
    8    3    9 2     
    9    4   10 1     
   10    4   11 2     
   11    5   12 1     
   12    5   18 1     
   13    5   19 1     
   14    6   13 ar    
   15    6   20 1     
   16    7   14 ar    
   17    7   21 1     
   18    8   15 1     
   19    8   22 1     
   20   10   15 1     
   21   10   23 1     
   22   12   24 1     
   23   12   25 1     
   24   12   26 1     
   25   13   16 ar    
   26   13   27 1     
   27   14   16 ar    
   28   14   28 1     
   29   15   17 2     
   30   16   29 1     
@<TRIPOS>SUBSTRUCTURE
      1 RES1           1
@<TRIPOS>SET
DONOR_HYDROGENS      STATIC     ATOMS    <user>   **** ""
2 22 23
ATOM$RED        STATIC     ATOMS    COLORGROUP SYSTEM
2 22 23
@<TRIPOS>COMMENT
> <Gold.Version>
2022.3.0

> <Gold.Id.Protein>
unknown|3nx8_clean|pdb

> <Gold.Protein.RotatedTorsions>
[ 1667 1658 1657 1655 ] final  127.46 input   59.99 | X-H torsion
[  510  504  502  499 ] final   19.00 input   60.04 | X-H torsion

> <Gold.Protein.ActiveResidues>
 HIS39   LEU40   ASP41   GLN42   PHE43   GLU44   ARG45   ILE46   LYS47   THR48  
 MET58   LEU59   VAL60   LYS61   HIS62   LYS63   MET71   ILE73   PHE110  ASP112 
 ASN115  TYR117  VAL119  GLU333  GLU334  ILE335  ARG336  VAL337 

> <Gold.Protein.RotatedAtoms>
   26.2124   19.6847   -8.0707 H   0  0  0  0  0  0  0  0  0  0  0  0  # atno 510  bound_to 504 
   28.0779   26.2032    2.0560 H   0  0  0  0  0  0  0  0  0  0  0  0  # atno 1667 bound_to 1658
   27.4926   26.3631    3.5656 LP  0  0  0  0  0  0  0  0  0  0  0  0  # atno 5360 bound_to 1658
   26.6828   25.4717    2.4627 LP  0  0  0  0  0  0  0  0  0  0  0  0  # atno 5361 bound_to 1658

> <Gold.Score>
     Fitness  S(hb_ext) S(vdw_ext)  S(hb_int)    S(int)      intcor
     33.36       5.94      21.15       0.00      -1.65      -0.76

> <Gold.Goldscore.Fitness>
33.3637

> <Gold.Goldscore.Internal.Vdw>
-1.9130

> <Gold.Goldscore.Internal.Torsion>
-0.4984

> <Gold.Goldscore.External.Vdw>
21.1455

> <Gold.Goldscore.Internal.HBond>
0.0000

> <Gold.Goldscore.External.HBond>
5.9414

> <Gold.Goldscore.Internal.Correction>
-0.7585

> <Gold.Goldscore.Hbonds>
donor molecule, donor type, donor heavy atom, donor atom, acceptor molecule, acceptor atom, score
      P1  H   443   456       L1    11  0.99

> <Gold.Goldscore.Internal.Vdw.Weighted>
-1.9130

> <Gold.Goldscore.Internal.Torsion.Weighted>
-0.4984

> <Gold.Goldscore.External.Vdw.Weighted>
29.0751

> <Gold.Goldscore.Internal.HBond.Weighted>
0.0000

> <Gold.Goldscore.External.HBond.Weighted>
5.9414

> <Gold.Goldscore.Internal.Correction.Weighted>
-0.7585

> <Gold.Rescore>
     Score     S(PLP)   S(hbond)     S(cho)   S(metal)  DE(clash)   DE(tors)     intcor
     38.17     -37.05       0.99       0.00       0.00       0.39       0.73       ----

> <Gold.PLP.Fitness>
38.1739

> <Gold.PLP.PLP>
-37.0506

> <Gold.PLP.part.hbond>
-1.0000

> <Gold.PLP.part.metal>
0.0000

> <Gold.PLP.part.buried>
2.4201

> <Gold.PLP.part.nonpolar>
-38.8682

> <Gold.PLP.part.repulsive>
0.1218

> <Gold.PLP.ligand.clash>
0.3927

> <Gold.PLP.ligand.torsion>
0.7289

> <Gold.PLP.Chemscore.Hbond>
0.9913

> <Gold.PLP.Chemscore.CHOScore>
0.0000

> <Gold.PLP.Chemscore.Metal>
0.0000

> <Gold.Chemscore.Hbonds>
donor molecule, donor type, donor heavy atom, donor atom, acceptor molecule, acceptor atom, score
      P1  H   443   456       L1    11  0.59

> <Gold.PLP.Chemscore.Internal.Correction>
   9.000000E+99

#       Name:                CT1002167954
#       Creating user name   hitesit
#       Creation time:       Sun Apr 16 22:50:47 2023


#       File generated by GOLD software.
#

@<TRIPOS>MOLECULE
CT1002167954|ligand_prepared|mol2|1|dock4
    29    30     1
SMALL
NO_CHARGES


@<TRIPOS>ATOM
      1 C1          30.4428  28.1529  -4.1010 C.3            1 RES1               0.0000
      2 C2          31.0374  26.8016  -3.6546 C.ar           1 RES1               0.0000
      3 C3          30.1822  28.0323  -5.5996 C.2            1 RES1               0.0000
      4 C4          29.1846  28.3621  -3.2656 C.2            1 RES1               0.0000
      5 C5          31.3814  29.3583  -3.8611 C.3            1 RES1               0.0000
      6 C6          30.2480  25.6559  -3.6230 C.ar           1 RES1               0.0000
      7 C7          32.3718  26.6848  -3.2748 C.ar           1 RES1               0.0000
      8 N8          28.8874  27.9005  -6.0071 N.am           1 RES1               0.0000
      9 O9          31.1017  28.0132  -6.4085 O.2            1 RES1               0.0000
     10 N10         27.9772  28.3678  -3.9136 N.am           1 RES1               0.0000
     11 O11         29.2266  28.5055  -2.0499 O.2            1 RES1               0.0000
     12 C12         30.7481  30.7024  -4.1846 C.3            1 RES1               0.0000
     13 C13         30.7743  24.4369  -3.2289 C.ar           1 RES1               0.0000
     14 C14         32.8960  25.4648  -2.8807 C.ar           1 RES1               0.0000
     15 C15         27.7692  28.1158  -5.2423 C.2            1 RES1               0.0000
     16 C16         32.0985  24.3404  -2.8580 C.ar           1 RES1               0.0000
     17 O17         26.6481  28.0845  -5.7416 O.2            1 RES1               0.0000
     18 H18         31.6935  29.3590  -2.8095 H              1 RES1               0.0000
     19 H19         32.2803  29.2341  -4.4775 H              1 RES1               0.0000
     20 H20         29.2031  25.7130  -3.9091 H              1 RES1               0.0000
     21 H21         33.0176  27.5562  -3.2839 H              1 RES1               0.0000
     22 H22         28.7366  27.6154  -6.9696 H              1 RES1               0.0000
     23 H23         27.1575  28.5796  -3.3536 H              1 RES1               0.0000
     24 H24         31.4489  31.5136  -3.9989 H              1 RES1               0.0000
     25 H25         30.4484  30.7461  -5.2296 H              1 RES1               0.0000
     26 H26         29.8651  30.8703  -3.5714 H              1 RES1               0.0000
     27 H27         30.1421  23.5552  -3.2114 H              1 RES1               0.0000
     28 H28         33.9386  25.3936  -2.5890 H              1 RES1               0.0000
     29 H29         32.5107  23.3852  -2.5496 H              1 RES1               0.0000
@<TRIPOS>BOND
    1    1    2 1     
    2    1    3 1     
    3    1    4 1     
    4    1    5 1     
    5    2    6 ar    
    6    2    7 ar    
    7    3    8 1     
    8    3    9 2     
    9    4   10 1     
   10    4   11 2     
   11    5   12 1     
   12    5   18 1     
   13    5   19 1     
   14    6   13 ar    
   15    6   20 1     
   16    7   14 ar    
   17    7   21 1     
   18    8   15 1     
   19    8   22 1     
   20   10   15 1     
   21   10   23 1     
   22   12   24 1     
   23   12   25 1     
   24   12   26 1     
   25   13   16 ar    
   26   13   27 1     
   27   14   16 ar    
   28   14   28 1     
   29   15   17 2     
   30   16   29 1     
@<TRIPOS>SUBSTRUCTURE
      1 RES1           1
@<TRIPOS>SET
DONOR_HYDROGENS      STATIC     ATOMS    <user>   **** ""
2 22 23
ATOM$RED        STATIC     ATOMS    COLORGROUP SYSTEM
2 22 23
@<TRIPOS>COMMENT
> <Gold.Version>
2022.3.0

> <Gold.Id.Protein>
unknown|3nx8_clean|pdb

> <Gold.Protein.RotatedTorsions>
[ 1667 1658 1657 1655 ] final  149.53 input   59.99 | X-H torsion
[  510  504  502  499 ] final  130.82 input   60.04 | X-H torsion

> <Gold.Protein.ActiveResidues>
 HIS39   LEU40   ASP41   GLN42   PHE43   GLU44   ARG45   ILE46   LYS47   THR48  
 MET58   LEU59   VAL60   LYS61   HIS62   LYS63   MET71   ILE73   PHE110  ASP112 
 ASN115  TYR117  VAL119  GLU333  GLU334  ILE335  ARG336  VAL337 

> <Gold.Protein.RotatedAtoms>
   24.7633   19.7116   -8.6230 H   0  0  0  0  0  0  0  0  0  0  0  0  # atno 510  bound_to 504 
   27.8553   25.9972    1.8652 H   0  0  0  0  0  0  0  0  0  0  0  0  # atno 1667 bound_to 1658
   27.7907   26.4970    3.4122 LP  0  0  0  0  0  0  0  0  0  0  0  0  # atno 5360 bound_to 1658
   26.6089   25.5454    2.8083 LP  0  0  0  0  0  0  0  0  0  0  0  0  # atno 5361 bound_to 1658

> <Gold.Score>
     Fitness  S(hb_ext) S(vdw_ext)  S(hb_int)    S(int)      intcor
     31.60       0.48      22.65       0.00      -0.02      -0.76

> <Gold.Goldscore.Fitness>
31.5997

> <Gold.Goldscore.Internal.Vdw>
-0.3712

> <Gold.Goldscore.Internal.Torsion>
-0.4089

> <Gold.Goldscore.External.Vdw>
22.6493

> <Gold.Goldscore.Internal.HBond>
0.0000

> <Gold.Goldscore.External.HBond>
0.4785

> <Gold.Goldscore.Internal.Correction>
-0.7585

> <Gold.Goldscore.Hbonds>
donor molecule, donor type, donor heavy atom, donor atom, acceptor molecule, acceptor atom, score
      P1  H  5107  5115       L1    17  0.12
      L1  H    10    23       P1  5110  0.12

> <Gold.Goldscore.Internal.Vdw.Weighted>
-0.3712

> <Gold.Goldscore.Internal.Torsion.Weighted>
-0.4089

> <Gold.Goldscore.External.Vdw.Weighted>
31.1428

> <Gold.Goldscore.Internal.HBond.Weighted>
0.0000

> <Gold.Goldscore.External.HBond.Weighted>
0.4785

> <Gold.Goldscore.Internal.Correction.Weighted>
-0.7585

> <Gold.Rescore>
     Score     S(PLP)   S(hbond)     S(cho)   S(metal)  DE(clash)   DE(tors)     intcor
     37.32     -38.07       0.11       0.00       0.00       0.00       0.55       ----

> <Gold.PLP.Fitness>
37.3175

> <Gold.PLP.PLP>
-38.0739

> <Gold.PLP.part.hbond>
-1.0000

> <Gold.PLP.part.metal>
0.0000

> <Gold.PLP.part.buried>
-0.9257

> <Gold.PLP.part.nonpolar>
-37.3437

> <Gold.PLP.part.repulsive>
0.1806

> <Gold.PLP.ligand.clash>
0.0000

> <Gold.PLP.ligand.torsion>
0.5481

> <Gold.PLP.Chemscore.Hbond>
0.1133

> <Gold.PLP.Chemscore.CHOScore>
0.0000

> <Gold.PLP.Chemscore.Metal>
0.0000

> <Gold.PLP.Chemscore.Internal.Correction>
   9.000000E+99

#       Name:                CT1002167954
#       Creating user name   hitesit
#       Creation time:       Sun Apr 16 22:50:52 2023


#       File generated by GOLD software.
#

@<TRIPOS>MOLECULE
CT1002167954|ligand_prepared|mol2|1|dock10
    29    30     1
SMALL
NO_CHARGES


@<TRIPOS>ATOM
      1 C1          29.9791  27.4993  -3.9474 C.3            1 RES1               0.0000
      2 C2          30.8884  26.3555  -3.4538 C.ar           1 RES1               0.0000
      3 C3          29.2263  28.0076  -2.7214 C.2            1 RES1               0.0000
      4 C4          30.9014  28.5331  -4.5839 C.2            1 RES1               0.0000
      5 C5          28.9460  27.0612  -5.0115 C.3            1 RES1               0.0000
      6 C6          32.2119  26.6039  -3.1023 C.ar           1 RES1               0.0000
      7 C7          30.4182  25.0498  -3.3423 C.ar           1 RES1               0.0000
      8 N8          29.6051  29.2099  -2.2009 N.am           1 RES1               0.0000
      9 O9          28.3402  27.3453  -2.1956 O.2            1 RES1               0.0000
     10 N10         31.0025  29.7603  -3.9825 N.am           1 RES1               0.0000
     11 O11         31.5544  28.2905  -5.5915 O.2            1 RES1               0.0000
     12 C12         28.1537  28.2140  -5.6079 C.3            1 RES1               0.0000
     13 C13         33.0347  25.5844  -2.6528 C.ar           1 RES1               0.0000
     14 C14         31.2428  24.0317  -2.8927 C.ar           1 RES1               0.0000
     15 C15         30.4197  30.1351  -2.8026 C.2            1 RES1               0.0000
     16 C16         32.5506  24.2979  -2.5473 C.ar           1 RES1               0.0000
     17 O17         30.6017  31.2388  -2.2968 O.2            1 RES1               0.0000
     18 H18         29.4718  26.5386  -5.8200 H              1 RES1               0.0000
     19 H19         28.2461  26.3517  -4.5531 H              1 RES1               0.0000
     20 H20         32.6111  27.6096  -3.1811 H              1 RES1               0.0000
     21 H21         29.3930  24.8168  -3.6095 H              1 RES1               0.0000
     22 H22         29.2498  29.4426  -1.2789 H              1 RES1               0.0000
     23 H23         31.5640  30.4591  -4.4585 H              1 RES1               0.0000
     24 H24         27.4436  27.8516  -6.3483 H              1 RES1               0.0000
     25 H25         27.5981  28.7409  -4.8349 H              1 RES1               0.0000
     26 H26         28.8165  28.9266  -6.0943 H              1 RES1               0.0000
     27 H27         34.0636  25.7989  -2.3835 H              1 RES1               0.0000
     28 H28         30.8578  23.0205  -2.8119 H              1 RES1               0.0000
     29 H29         33.1953  23.4995  -2.1948 H              1 RES1               0.0000
@<TRIPOS>BOND
    1    1    2 1     
    2    1    3 1     
    3    1    4 1     
    4    1    5 1     
    5    2    6 ar    
    6    2    7 ar    
    7    3    8 1     
    8    3    9 2     
    9    4   10 1     
   10    4   11 2     
   11    5   12 1     
   12    5   18 1     
   13    5   19 1     
   14    6   13 ar    
   15    6   20 1     
   16    7   14 ar    
   17    7   21 1     
   18    8   15 1     
   19    8   22 1     
   20   10   15 1     
   21   10   23 1     
   22   12   24 1     
   23   12   25 1     
   24   12   26 1     
   25   13   16 ar    
   26   13   27 1     
   27   14   16 ar    
   28   14   28 1     
   29   15   17 2     
   30   16   29 1     
@<TRIPOS>SUBSTRUCTURE
      1 RES1           1
@<TRIPOS>SET
DONOR_HYDROGENS      STATIC     ATOMS    <user>   **** ""
2 22 23
ATOM$RED        STATIC     ATOMS    COLORGROUP SYSTEM
2 22 23
@<TRIPOS>COMMENT
> <Gold.Version>
2022.3.0

> <Gold.Id.Protein>
unknown|3nx8_clean|pdb

> <Gold.Protein.RotatedTorsions>
[ 1667 1658 1657 1655 ] final  150.22 input   59.99 | X-H torsion
[  510  504  502  499 ] final  147.79 input   60.04 | X-H torsion

> <Gold.Protein.ActiveResidues>
 HIS39   LEU40   ASP41   GLN42   PHE43   GLU44   ARG45   ILE46   LYS47   THR48  
 MET58   LEU59   VAL60   LYS61   HIS62   LYS63   MET71   ILE73   PHE110  ASP112 
 ASN115  TYR117  VAL119  GLU333  GLU334  ILE335  ARG336  VAL337 

> <Gold.Protein.RotatedAtoms>
   24.5695   19.6095   -8.4546 H   0  0  0  0  0  0  0  0  0  0  0  0  # atno 510  bound_to 504 
   27.8472   25.9907    1.8611 H   0  0  0  0  0  0  0  0  0  0  0  0  # atno 1667 bound_to 1658
   27.7993   26.5001    3.4055 LP  0  0  0  0  0  0  0  0  0  0  0  0  # atno 5360 bound_to 1658
   26.6085   25.5489    2.8191 LP  0  0  0  0  0  0  0  0  0  0  0  0  # atno 5361 bound_to 1658

> <Gold.Score>
     Fitness  S(hb_ext) S(vdw_ext)  S(hb_int)    S(int)      intcor
     31.56       0.00      23.65       0.00      -0.95      -0.76

> <Gold.Goldscore.Fitness>
31.5592

> <Gold.Goldscore.Internal.Vdw>
-1.2831

> <Gold.Goldscore.Internal.Torsion>
-0.4296

> <Gold.Goldscore.External.Vdw>
23.6461

> <Gold.Goldscore.Internal.HBond>
0.0000

> <Gold.Goldscore.External.HBond>
0.0000

> <Gold.Goldscore.Internal.Correction>
-0.7585

> <Gold.Goldscore.Internal.Vdw.Weighted>
-1.2831

> <Gold.Goldscore.Internal.Torsion.Weighted>
-0.4296

> <Gold.Goldscore.External.Vdw.Weighted>
32.5134

> <Gold.Goldscore.Internal.HBond.Weighted>
0.0000

> <Gold.Goldscore.External.HBond.Weighted>
0.0000

> <Gold.Goldscore.Internal.Correction.Weighted>
-0.7585

> <Gold.Rescore>
     Score     S(PLP)   S(hbond)     S(cho)   S(metal)  DE(clash)   DE(tors)     intcor
     36.85     -38.92       0.00       0.00       0.00       0.08       1.00       ----

> <Gold.PLP.Fitness>
36.8515

> <Gold.PLP.PLP>
-38.9224

> <Gold.PLP.part.hbond>
0.0000

> <Gold.PLP.part.metal>
0.0000

> <Gold.PLP.part.buried>
-2.5483

> <Gold.PLP.part.nonpolar>
-36.7748

> <Gold.PLP.part.repulsive>
0.0401

> <Gold.PLP.ligand.clash>
0.0791

> <Gold.PLP.ligand.torsion>
0.9959

> <Gold.PLP.Chemscore.Hbond>
0.0000

> <Gold.PLP.Chemscore.CHOScore>
0.0000

> <Gold.PLP.Chemscore.Metal>
0.0000

> <Gold.PLP.Chemscore.Internal.Correction>
   9.000000E+99

#       Name:                CT1002167954
#       Creating user name   hitesit
#       Creation time:       Sun Apr 16 22:50:49 2023


#       File generated by GOLD software.
#

@<TRIPOS>MOLECULE
CT1002167954|ligand_prepared|mol2|1|dock6
    29    30     1
SMALL
NO_CHARGES


@<TRIPOS>ATOM
      1 C1          29.6652  27.7890  -3.8571 C.3            1 RES1               0.0000
      2 C2          30.5174  26.5381  -3.5609 C.ar           1 RES1               0.0000
      3 C3          30.6470  28.9421  -4.0434 C.2            1 RES1               0.0000
      4 C4          28.8459  27.4624  -5.1008 C.2            1 RES1               0.0000
      5 C5          28.6828  28.1590  -2.7215 C.3            1 RES1               0.0000
      6 C6          31.8876  26.5404  -3.8042 C.ar           1 RES1               0.0000
      7 C7          29.9490  25.3775  -3.0427 C.ar           1 RES1               0.0000
      8 N8          30.8512  29.3994  -5.3119 N.am           1 RES1               0.0000
      9 O9          31.2625  29.4166  -3.0967 O.2            1 RES1               0.0000
     10 N10         29.0997  28.1763  -6.2426 N.am           1 RES1               0.0000
     11 O11         27.9944  26.5820  -5.1069 O.2            1 RES1               0.0000
     12 C12         27.7345  29.2934  -3.0765 C.3            1 RES1               0.0000
     13 C13         32.6622  25.4239  -3.5364 C.ar           1 RES1               0.0000
     14 C14         30.7254  24.2620  -2.7758 C.ar           1 RES1               0.0000
     15 C15         30.0864  29.1089  -6.4130 C.2            1 RES1               0.0000
     16 C16         32.0818  24.2842  -3.0217 C.ar           1 RES1               0.0000
     17 O17         30.2880  29.6693  -7.4865 O.2            1 RES1               0.0000
     18 H18         28.0913  27.2720  -2.4633 H              1 RES1               0.0000
     19 H19         29.2607  28.4465  -1.8344 H              1 RES1               0.0000
     20 H20         32.3616  27.4273  -4.2114 H              1 RES1               0.0000
     21 H21         28.8838  25.3369  -2.8425 H              1 RES1               0.0000
     22 H22         31.6461  30.0142  -5.4551 H              1 RES1               0.0000
     23 H23         28.4973  27.9958  -7.0394 H              1 RES1               0.0000
     24 H24         27.0673  29.5127  -2.2455 H              1 RES1               0.0000
     25 H25         28.2885  30.1991  -3.3144 H              1 RES1               0.0000
     26 H26         27.1260  29.0316  -3.9396 H              1 RES1               0.0000
     27 H27         33.7290  25.4460  -3.7329 H              1 RES1               0.0000
     28 H28         30.2643  23.3670  -2.3714 H              1 RES1               0.0000
     29 H29         32.6889  23.4098  -2.8116 H              1 RES1               0.0000
@<TRIPOS>BOND
    1    1    2 1     
    2    1    3 1     
    3    1    4 1     
    4    1    5 1     
    5    2    6 ar    
    6    2    7 ar    
    7    3    8 1     
    8    3    9 2     
    9    4   10 1     
   10    4   11 2     
   11    5   12 1     
   12    5   18 1     
   13    5   19 1     
   14    6   13 ar    
   15    6   20 1     
   16    7   14 ar    
   17    7   21 1     
   18    8   15 1     
   19    8   22 1     
   20   10   15 1     
   21   10   23 1     
   22   12   24 1     
   23   12   25 1     
   24   12   26 1     
   25   13   16 ar    
   26   13   27 1     
   27   14   16 ar    
   28   14   28 1     
   29   15   17 2     
   30   16   29 1     
@<TRIPOS>SUBSTRUCTURE
      1 RES1           1
@<TRIPOS>SET
DONOR_HYDROGENS      STATIC     ATOMS    <user>   **** ""
2 22 23
ATOM$RED        STATIC     ATOMS    COLORGROUP SYSTEM
2 22 23
@<TRIPOS>COMMENT
> <Gold.Version>
2022.3.0

> <Gold.Id.Protein>
unknown|3nx8_clean|pdb

> <Gold.Protein.RotatedTorsions>
[ 1667 1658 1657 1655 ] final -156.24 input   59.99 | X-H torsion
[  510  504  502  499 ] final  -49.68 input   60.04 | X-H torsion

> <Gold.Protein.ActiveResidues>
 HIS39   LEU40   ASP41   GLN42   PHE43   GLU44   ARG45   ILE46   LYS47   THR48  
 MET58   LEU59   VAL60   LYS61   HIS62   LYS63   MET71   ILE73   PHE110  ASP112 
 ASN115  TYR117  VAL119  GLU333  GLU334  ILE335  ARG336  VAL337 

> <Gold.Protein.RotatedAtoms>
   25.8592   19.2431   -7.1784 H   0  0  0  0  0  0  0  0  0  0  0  0  # atno 510  bound_to 504 
   27.1251   25.5608    1.9286 H   0  0  0  0  0  0  0  0  0  0  0  0  # atno 1667 bound_to 1658
   28.2210   26.5088    2.6684 LP  0  0  0  0  0  0  0  0  0  0  0  0  # atno 5360 bound_to 1658
   26.9143   25.9732    3.4882 LP  0  0  0  0  0  0  0  0  0  0  0  0  # atno 5361 bound_to 1658

> <Gold.Score>
     Fitness  S(hb_ext) S(vdw_ext)  S(hb_int)    S(int)      intcor
     31.24       6.00      20.38       0.00      -2.79      -0.76

> <Gold.Goldscore.Fitness>
31.2412

> <Gold.Goldscore.Internal.Vdw>
-3.1138

> <Gold.Goldscore.Internal.Torsion>
-0.4326

> <Gold.Goldscore.External.Vdw>
20.3848

> <Gold.Goldscore.Internal.HBond>
0.0000

> <Gold.Goldscore.External.HBond>
6.0000

> <Gold.Goldscore.Internal.Correction>
-0.7585

> <Gold.Goldscore.Hbonds>
donor molecule, donor type, donor heavy atom, donor atom, acceptor molecule, acceptor atom, score
      P1  H   443   456       L1    11  1.00

> <Gold.Goldscore.Internal.Vdw.Weighted>
-3.1138

> <Gold.Goldscore.Internal.Torsion.Weighted>
-0.4326

> <Gold.Goldscore.External.Vdw.Weighted>
28.0291

> <Gold.Goldscore.Internal.HBond.Weighted>
0.0000

> <Gold.Goldscore.External.HBond.Weighted>
6.0000

> <Gold.Goldscore.Internal.Correction.Weighted>
-0.7585

> <Gold.Rescore>
     Score     S(PLP)   S(hbond)     S(cho)   S(metal)  DE(clash)   DE(tors)     intcor
     39.44     -38.78       0.94       0.00       0.00       1.89       0.14       ----

> <Gold.PLP.Fitness>
39.4351

> <Gold.PLP.PLP>
-38.7784

> <Gold.PLP.part.hbond>
-0.8772

> <Gold.PLP.part.metal>
0.0000

> <Gold.PLP.part.buried>
1.4524

> <Gold.PLP.part.nonpolar>
-39.6239

> <Gold.PLP.part.repulsive>
0.0368

> <Gold.PLP.ligand.clash>
1.8889

> <Gold.PLP.ligand.torsion>
0.1410

> <Gold.PLP.Chemscore.Hbond>
0.9425

> <Gold.PLP.Chemscore.CHOScore>
0.0000

> <Gold.PLP.Chemscore.Metal>
0.0000

> <Gold.Chemscore.Hbonds>
donor molecule, donor type, donor heavy atom, donor atom, acceptor molecule, acceptor atom, score
      P1  H   443   456       L1    11  1.00

> <Gold.PLP.Chemscore.Internal.Correction>
   9.000000E+99

#       Name:                CT1002167954
#       Creating user name   hitesit
#       Creation time:       Sun Apr 16 22:50:51 2023


#       File generated by GOLD software.
#

@<TRIPOS>MOLECULE
CT1002167954|ligand_prepared|mol2|1|dock9
    29    30     1
SMALL
NO_CHARGES


@<TRIPOS>ATOM
      1 C1          30.3889  27.3490  -4.2445 C.3            1 RES1               0.0000
      2 C2          31.1464  26.0952  -3.7618 C.ar           1 RES1               0.0000
      3 C3          29.8390  28.0258  -2.9923 C.2            1 RES1               0.0000
      4 C4          31.4023  28.1904  -5.0124 C.2            1 RES1               0.0000
      5 C5          29.2082  27.0388  -5.1939 C.3            1 RES1               0.0000
      6 C6          30.4659  25.0503  -3.1439 C.ar           1 RES1               0.0000
      7 C7          32.5227  25.9681  -3.9295 C.ar           1 RES1               0.0000
      8 N8          30.4484  29.1720  -2.5743 N.am           1 RES1               0.0000
      9 O9          28.9101  27.5399  -2.3589 O.2            1 RES1               0.0000
     10 N10         31.7497  29.4098  -4.4926 N.am           1 RES1               0.0000
     11 O11         31.9155  27.8013  -6.0542 O.2            1 RES1               0.0000
     12 C12         28.4273  28.2706  -5.6239 C.3            1 RES1               0.0000
     13 C13         31.1365  23.9180  -2.7120 C.ar           1 RES1               0.0000
     14 C14         33.1914  24.8350  -3.4966 C.ar           1 RES1               0.0000
     15 C15         31.3418  29.9254  -3.2926 C.2            1 RES1               0.0000
     16 C16         32.4994  23.8094  -2.8884 C.ar           1 RES1               0.0000
     17 O17         31.7408  31.0058  -2.8675 O.2            1 RES1               0.0000
     18 H18         29.5970  26.5371  -6.0886 H              1 RES1               0.0000
     19 H19         28.5237  26.3446  -4.6910 H              1 RES1               0.0000
     20 H20         29.3935  25.1189  -2.9943 H              1 RES1               0.0000
     21 H21         33.0878  26.7629  -4.4044 H              1 RES1               0.0000
     22 H22         30.2186  29.4993  -1.6414 H              1 RES1               0.0000
     23 H23         32.3697  29.9867  -5.0522 H              1 RES1               0.0000
     24 H24         27.6106  27.9969  -6.2887 H              1 RES1               0.0000
     25 H25         28.0050  28.7805  -4.7605 H              1 RES1               0.0000
     26 H26         29.0719  28.9718  -6.1498 H              1 RES1               0.0000
     27 H27         30.5875  23.1142  -2.2327 H              1 RES1               0.0000
     28 H28         34.2643  24.7541  -3.6370 H              1 RES1               0.0000
     29 H29         33.0245  22.9221  -2.5503 H              1 RES1               0.0000
@<TRIPOS>BOND
    1    1    2 1     
    2    1    3 1     
    3    1    4 1     
    4    1    5 1     
    5    2    6 ar    
    6    2    7 ar    
    7    3    8 1     
    8    3    9 2     
    9    4   10 1     
   10    4   11 2     
   11    5   12 1     
   12    5   18 1     
   13    5   19 1     
   14    6   13 ar    
   15    6   20 1     
   16    7   14 ar    
   17    7   21 1     
   18    8   15 1     
   19    8   22 1     
   20   10   15 1     
   21   10   23 1     
   22   12   24 1     
   23   12   25 1     
   24   12   26 1     
   25   13   16 ar    
   26   13   27 1     
   27   14   16 ar    
   28   14   28 1     
   29   15   17 2     
   30   16   29 1     
@<TRIPOS>SUBSTRUCTURE
      1 RES1           1
@<TRIPOS>SET
DONOR_HYDROGENS      STATIC     ATOMS    <user>   **** ""
2 22 23
ATOM$RED        STATIC     ATOMS    COLORGROUP SYSTEM
2 22 23
@<TRIPOS>COMMENT
> <Gold.Version>
2022.3.0

> <Gold.Id.Protein>
unknown|3nx8_clean|pdb

> <Gold.Protein.RotatedTorsions>
[ 1667 1658 1657 1655 ] final  149.34 input   59.99 | X-H torsion
[  510  504  502  499 ] final  -34.14 input   60.04 | X-H torsion

> <Gold.Protein.ActiveResidues>
 HIS39   LEU40   ASP41   GLN42   PHE43   GLU44   ARG45   ILE46   LYS47   THR48  
 MET58   LEU59   VAL60   LYS61   HIS62   LYS63   MET71   ILE73   PHE110  ASP112 
 ASN115  TYR117  VAL119  GLU333  GLU334  ILE335  ARG336  VAL337 

> <Gold.Protein.RotatedAtoms>
   26.0406   19.3356   -7.3290 H   0  0  0  0  0  0  0  0  0  0  0  0  # atno 510  bound_to 504 
   27.8576   25.9991    1.8664 H   0  0  0  0  0  0  0  0  0  0  0  0  # atno 1667 bound_to 1658
   27.7882   26.4961    3.4140 LP  0  0  0  0  0  0  0  0  0  0  0  0  # atno 5360 bound_to 1658
   26.6091   25.5444    2.8053 LP  0  0  0  0  0  0  0  0  0  0  0  0  # atno 5361 bound_to 1658

> <Gold.Score>
     Fitness  S(hb_ext) S(vdw_ext)  S(hb_int)    S(int)      intcor
     28.58       0.36      22.55       0.00      -2.79      -0.76

> <Gold.Goldscore.Fitness>
28.5809

> <Gold.Goldscore.Internal.Vdw>
-3.1697

> <Gold.Goldscore.Internal.Torsion>
-0.3768

> <Gold.Goldscore.External.Vdw>
22.5509

> <Gold.Goldscore.Internal.HBond>
0.0000

> <Gold.Goldscore.External.HBond>
0.3615

> <Gold.Goldscore.Internal.Correction>
-0.7585

> <Gold.Goldscore.Hbonds>
donor molecule, donor type, donor heavy atom, donor atom, acceptor molecule, acceptor atom, score
      P1  H   433   447       L1    11  0.18

> <Gold.Goldscore.Internal.Vdw.Weighted>
-3.1697

> <Gold.Goldscore.Internal.Torsion.Weighted>
-0.3768

> <Gold.Goldscore.External.Vdw.Weighted>
31.0075

> <Gold.Goldscore.Internal.HBond.Weighted>
0.0000

> <Gold.Goldscore.External.HBond.Weighted>
0.3615

> <Gold.Goldscore.Internal.Correction.Weighted>
-0.7585

> <Gold.Rescore>
     Score     S(PLP)   S(hbond)     S(cho)   S(metal)  DE(clash)   DE(tors)     intcor
     37.21     -38.98       0.00       0.00       0.00       0.49       0.64       ----

> <Gold.PLP.Fitness>
37.2115

> <Gold.PLP.PLP>
-38.9849

> <Gold.PLP.part.hbond>
0.0000

> <Gold.PLP.part.metal>
0.0000

> <Gold.PLP.part.buried>
-2.6104

> <Gold.PLP.part.nonpolar>
-36.5233

> <Gold.PLP.part.repulsive>
0.0505

> <Gold.PLP.ligand.clash>
0.4908

> <Gold.PLP.ligand.torsion>
0.6413

> <Gold.PLP.Chemscore.Hbond>
0.0000

> <Gold.PLP.Chemscore.CHOScore>
0.0000

> <Gold.PLP.Chemscore.Metal>
0.0000

> <Gold.PLP.Chemscore.Internal.Correction>
   9.000000E+99

