#       Name:                GA Fitting Points
#       Creating user name   hitesit
#       Creation time:       Sun Apr 16 22:50:41 2023


#       Fitting Points Used by GA Software.
#

@<TRIPOS>MOLECULE
GA Fitting Points
  1070    0    0
SMALL
NO_CHARGES


@<TRIPOS>ATOM
      1 ****        27.5000  28.2500  -5.7500 Du        
      2 ****        27.5000  28.2500  -5.5000 Du        
      3 ****        27.5000  28.5000  -5.5000 Du        
      4 ****        27.5000  28.5000  -5.2500 Du        
      5 ****        27.5000  28.7500  -5.5000 Du        
      6 ****        27.7500  28.2500  -6.0000 Du        
      7 ****        27.7500  28.2500  -5.7500 Du        
      8 ****        27.7500  28.2500  -5.5000 Du        
      9 ****        27.7500  28.2500  -5.2500 Du        
     10 ****        27.7500  28.2500  -5.0000 Du        
     11 ****        27.7500  28.5000  -5.5000 Du        
     12 ****        27.7500  28.5000  -5.2500 Du        
     13 ****        27.7500  28.5000  -5.0000 Du        
     14 ****        27.7500  28.7500  -5.0000 Du        
     15 ****        28.0000  28.0000  -5.2500 Du        
     16 ****        28.0000  28.0000  -5.0000 Du        
     17 ****        28.0000  28.2500  -5.7500 Du        
     18 ****        28.0000  28.2500  -5.5000 Du        
     19 ****        28.0000  28.2500  -5.2500 Du        
     20 ****        28.0000  28.2500  -5.0000 Du        
     21 ****        28.0000  28.2500  -4.7500 Du        
     22 ****        28.0000  28.5000  -5.2500 Du        
     23 ****        28.0000  28.5000  -5.0000 Du        
     24 ****        28.0000  28.5000  -4.7500 Du        
     25 ****        28.0000  29.7500  -1.5000 Du        
     26 ****        28.0000  30.0000  -1.5000 Du        
     27 ****        28.0000  30.0000  -1.2500 Du        
     28 ****        28.2500  28.0000  -5.2500 Du        
     29 ****        28.2500  28.0000  -5.0000 Du        
     30 ****        28.2500  28.0000  -4.7500 Du        
     31 ****        28.2500  28.2500  -5.5000 Du        
     32 ****        28.2500  28.2500  -5.2500 Du        
     33 ****        28.2500  28.2500  -5.0000 Du        
     34 ****        28.2500  28.2500  -4.7500 Du        
     35 ****        28.2500  28.2500  -4.5000 Du        
     36 ****        28.5000  28.0000  -5.0000 Du        
     37 ****        28.5000  28.0000  -4.7500 Du        
     38 ****        28.5000  28.0000  -4.5000 Du        
     39 ****        28.5000  28.2500  -5.0000 Du        
     40 ****        28.5000  28.2500  -4.7500 Du        
     41 ****        28.5000  28.2500  -4.5000 Du        
     42 ****        28.7500  27.7500  -5.0000 Du        
     43 ****        28.7500  27.7500  -4.7500 Du        
     44 ****        28.7500  27.7500  -4.5000 Du        
     45 ****        28.7500  27.7500  -4.2500 Du        
     46 ****        28.7500  27.7500  -4.0000 Du        
     47 ****        28.7500  28.0000  -5.2500 Du        
     48 ****        28.7500  28.0000  -5.0000 Du        
     49 ****        28.7500  28.0000  -4.7500 Du        
     50 ****        28.7500  28.0000  -4.5000 Du        
     51 ****        28.7500  28.0000  -4.2500 Du        
     52 ****        28.7500  28.0000  -4.0000 Du        
     53 ****        28.7500  28.2500  -4.7500 Du        
     54 ****        28.7500  28.2500  -4.5000 Du        
     55 ****        28.7500  28.2500  -4.2500 Du        
     56 ****        28.7500  28.2500  -4.0000 Du        
     57 ****        29.0000  27.5000  -4.7500 Du        
     58 ****        29.0000  27.5000  -4.5000 Du        
     59 ****        29.0000  27.5000  -4.2500 Du        
     60 ****        29.0000  27.5000  -4.0000 Du        
     61 ****        29.0000  27.7500  -5.0000 Du        
     62 ****        29.0000  27.7500  -4.7500 Du        
     63 ****        29.0000  27.7500  -4.5000 Du        
     64 ****        29.0000  27.7500  -4.2500 Du        
     65 ****        29.0000  27.7500  -4.0000 Du        
     66 ****        29.0000  27.7500  -3.7500 Du        
     67 ****        29.0000  28.0000  -5.0000 Du        
     68 ****        29.0000  28.0000  -4.7500 Du        
     69 ****        29.0000  28.0000  -4.5000 Du        
     70 ****        29.0000  28.0000  -4.2500 Du        
     71 ****        29.0000  28.0000  -4.0000 Du        
     72 ****        29.0000  28.0000  -3.7500 Du        
     73 ****        29.0000  28.2500  -4.7500 Du        
     74 ****        29.0000  28.2500  -4.5000 Du        
     75 ****        29.0000  28.2500  -4.2500 Du        
     76 ****        29.0000  28.2500  -4.0000 Du        
     77 ****        29.2500  27.2500  -4.5000 Du        
     78 ****        29.2500  27.2500  -4.2500 Du        
     79 ****        29.2500  27.2500  -4.0000 Du        
     80 ****        29.2500  27.2500  -3.7500 Du        
     81 ****        29.2500  27.5000  -4.7500 Du        
     82 ****        29.2500  27.5000  -4.5000 Du        
     83 ****        29.2500  27.5000  -4.2500 Du        
     84 ****        29.2500  27.5000  -4.0000 Du        
     85 ****        29.2500  27.5000  -3.7500 Du        
     86 ****        29.2500  27.7500  -4.7500 Du        
     87 ****        29.2500  27.7500  -4.5000 Du        
     88 ****        29.2500  27.7500  -4.2500 Du        
     89 ****        29.2500  27.7500  -4.0000 Du        
     90 ****        29.2500  27.7500  -3.7500 Du        
     91 ****        29.2500  28.0000  -4.7500 Du        
     92 ****        29.2500  28.0000  -4.5000 Du        
     93 ****        29.2500  28.0000  -4.2500 Du        
     94 ****        29.2500  28.0000  -4.0000 Du        
     95 ****        29.2500  28.0000  -3.7500 Du        
     96 ****        29.5000  27.2500  -4.5000 Du        
     97 ****        29.5000  27.2500  -4.2500 Du        
     98 ****        29.5000  27.2500  -4.0000 Du        
     99 ****        29.5000  27.2500  -3.7500 Du        
    100 ****        29.7500  26.7500  -3.7500 Du        
    101 ****        29.7500  27.0000  -4.2500 Du        
    102 ****        29.7500  27.0000  -4.0000 Du        
    103 ****        29.7500  27.0000  -3.7500 Du        
    104 ****        29.7500  27.2500  -4.5000 Du        
    105 ****        29.7500  27.2500  -4.2500 Du        
    106 ****        29.7500  27.2500  -4.0000 Du        
    107 ****        29.7500  27.2500  -3.7500 Du        
    108 ****        29.7500  27.2500  -3.5000 Du        
    109 ****        29.7500  27.5000  -4.0000 Du        
    110 ****        29.7500  27.5000  -3.7500 Du        
    111 ****        30.0000  23.2500  -3.5000 Du        
    112 ****        30.0000  23.2500  -3.2500 Du        
    113 ****        30.0000  23.2500  -3.0000 Du        
    114 ****        30.0000  23.5000  -3.5000 Du        
    115 ****        30.0000  23.5000  -3.2500 Du        
    116 ****        30.0000  23.5000  -3.0000 Du        
    117 ****        30.0000  23.5000  -2.7500 Du        
    118 ****        30.0000  23.7500  -3.5000 Du        
    119 ****        30.0000  23.7500  -3.2500 Du        
    120 ****        30.0000  23.7500  -3.0000 Du        
    121 ****        30.0000  23.7500  -2.7500 Du        
    122 ****        30.0000  23.7500  -2.5000 Du        
    123 ****        30.0000  24.0000  -3.5000 Du        
    124 ****        30.0000  24.0000  -3.2500 Du        
    125 ****        30.0000  24.0000  -3.0000 Du        
    126 ****        30.0000  24.0000  -2.7500 Du        
    127 ****        30.0000  24.0000  -2.5000 Du        
    128 ****        30.0000  24.2500  -3.2500 Du        
    129 ****        30.0000  24.2500  -3.0000 Du        
    130 ****        30.0000  24.2500  -2.7500 Du        
    131 ****        30.0000  26.5000  -3.5000 Du        
    132 ****        30.0000  26.7500  -4.0000 Du        
    133 ****        30.0000  26.7500  -3.7500 Du        
    134 ****        30.0000  26.7500  -3.5000 Du        
    135 ****        30.0000  27.0000  -4.0000 Du        
    136 ****        30.0000  27.0000  -3.7500 Du        
    137 ****        30.0000  27.0000  -3.5000 Du        
    138 ****        30.0000  27.2500  -4.5000 Du        
    139 ****        30.0000  27.2500  -4.2500 Du        
    140 ****        30.0000  27.2500  -4.0000 Du        
    141 ****        30.0000  27.2500  -3.7500 Du        
    142 ****        30.0000  27.5000  -4.0000 Du        
    143 ****        30.2500  23.0000  -3.7500 Du        
    144 ****        30.2500  23.0000  -3.5000 Du        
    145 ****        30.2500  23.0000  -3.2500 Du        
    146 ****        30.2500  23.0000  -3.0000 Du        
    147 ****        30.2500  23.2500  -3.7500 Du        
    148 ****        30.2500  23.2500  -3.5000 Du        
    149 ****        30.2500  23.2500  -3.2500 Du        
    150 ****        30.2500  23.2500  -3.0000 Du        
    151 ****        30.2500  23.2500  -2.7500 Du        
    152 ****        30.2500  23.5000  -3.5000 Du        
    153 ****        30.2500  23.5000  -3.2500 Du        
    154 ****        30.2500  23.5000  -3.0000 Du        
    155 ****        30.2500  23.5000  -2.7500 Du        
    156 ****        30.2500  23.5000  -2.5000 Du        
    157 ****        30.2500  23.7500  -3.5000 Du        
    158 ****        30.2500  23.7500  -3.2500 Du        
    159 ****        30.2500  23.7500  -3.0000 Du        
    160 ****        30.2500  23.7500  -2.7500 Du        
    161 ****        30.2500  23.7500  -2.5000 Du        
    162 ****        30.2500  24.0000  -3.5000 Du        
    163 ****        30.2500  24.0000  -3.2500 Du        
    164 ****        30.2500  24.0000  -3.0000 Du        
    165 ****        30.2500  24.0000  -2.7500 Du        
    166 ****        30.2500  24.0000  -2.5000 Du        
    167 ****        30.2500  24.2500  -3.2500 Du        
    168 ****        30.2500  24.2500  -3.0000 Du        
    169 ****        30.2500  24.2500  -2.7500 Du        
    170 ****        30.2500  24.5000  -3.2500 Du        
    171 ****        30.2500  24.5000  -3.0000 Du        
    172 ****        30.2500  24.5000  -2.7500 Du        
    173 ****        30.2500  24.7500  -3.2500 Du        
    174 ****        30.2500  24.7500  -3.0000 Du        
    175 ****        30.2500  25.0000  -3.0000 Du        
    176 ****        30.2500  25.7500  -3.2500 Du        
    177 ****        30.2500  26.0000  -3.2500 Du        
    178 ****        30.2500  26.2500  -3.5000 Du        
    179 ****        30.2500  26.2500  -3.2500 Du        
    180 ****        30.2500  26.5000  -3.5000 Du        
    181 ****        30.2500  26.7500  -3.7500 Du        
    182 ****        30.2500  26.7500  -3.5000 Du        
    183 ****        30.2500  27.0000  -4.0000 Du        
    184 ****        30.2500  27.0000  -3.7500 Du        
    185 ****        30.2500  27.0000  -3.5000 Du        
    186 ****        30.2500  27.2500  -4.2500 Du        
    187 ****        30.2500  27.2500  -4.0000 Du        
    188 ****        30.2500  27.2500  -3.7500 Du        
    189 ****        30.5000  23.0000  -3.7500 Du        
    190 ****        30.5000  23.0000  -3.5000 Du        
    191 ****        30.5000  23.0000  -3.2500 Du        
    192 ****        30.5000  23.0000  -3.0000 Du        
    193 ****        30.5000  23.2500  -3.7500 Du        
    194 ****        30.5000  23.2500  -3.5000 Du        
    195 ****        30.5000  23.2500  -3.2500 Du        
    196 ****        30.5000  23.2500  -3.0000 Du        
    197 ****        30.5000  23.2500  -2.7500 Du        
    198 ****        30.5000  23.5000  -3.5000 Du        
    199 ****        30.5000  23.5000  -3.2500 Du        
    200 ****        30.5000  23.5000  -3.0000 Du        
    201 ****        30.5000  23.5000  -2.7500 Du        
    202 ****        30.5000  23.5000  -2.5000 Du        
    203 ****        30.5000  23.7500  -3.5000 Du        
    204 ****        30.5000  23.7500  -3.2500 Du        
    205 ****        30.5000  23.7500  -3.0000 Du        
    206 ****        30.5000  23.7500  -2.7500 Du        
    207 ****        30.5000  23.7500  -2.5000 Du        
    208 ****        30.5000  24.0000  -3.5000 Du        
    209 ****        30.5000  24.0000  -3.2500 Du        
    210 ****        30.5000  24.0000  -3.0000 Du        
    211 ****        30.5000  24.0000  -2.7500 Du        
    212 ****        30.5000  24.2500  -3.2500 Du        
    213 ****        30.5000  24.2500  -3.0000 Du        
    214 ****        30.5000  24.2500  -2.7500 Du        
    215 ****        30.5000  24.5000  -3.2500 Du        
    216 ****        30.5000  24.5000  -3.0000 Du        
    217 ****        30.5000  24.5000  -2.7500 Du        
    218 ****        30.5000  24.7500  -3.2500 Du        
    219 ****        30.5000  24.7500  -3.0000 Du        
    220 ****        30.5000  25.0000  -3.2500 Du        
    221 ****        30.5000  25.0000  -3.0000 Du        
    222 ****        30.5000  25.2500  -3.2500 Du        
    223 ****        30.5000  25.2500  -3.0000 Du        
    224 ****        30.5000  25.5000  -3.2500 Du        
    225 ****        30.5000  25.5000  -3.0000 Du        
    226 ****        30.5000  25.7500  -3.2500 Du        
    227 ****        30.5000  25.7500  -3.0000 Du        
    228 ****        30.5000  26.0000  -3.2500 Du        
    229 ****        30.5000  26.2500  -3.5000 Du        
    230 ****        30.5000  26.2500  -3.2500 Du        
    231 ****        30.5000  26.5000  -3.5000 Du        
    232 ****        30.5000  26.7500  -3.5000 Du        
    233 ****        30.5000  27.0000  -3.7500 Du        
    234 ****        30.5000  27.0000  -3.5000 Du        
    235 ****        30.5000  27.2500  -4.0000 Du        
    236 ****        30.5000  27.2500  -3.7500 Du        
    237 ****        30.5000  27.2500  -3.5000 Du        
    238 ****        30.7500  22.7500  -3.2500 Du        
    239 ****        30.7500  23.0000  -3.7500 Du        
    240 ****        30.7500  23.0000  -3.5000 Du        
    241 ****        30.7500  23.0000  -3.2500 Du        
    242 ****        30.7500  23.0000  -3.0000 Du        
    243 ****        30.7500  23.0000  -2.7500 Du        
    244 ****        30.7500  23.2500  -3.7500 Du        
    245 ****        30.7500  23.2500  -3.5000 Du        
    246 ****        30.7500  23.2500  -3.2500 Du        
    247 ****        30.7500  23.2500  -3.0000 Du        
    248 ****        30.7500  23.2500  -2.7500 Du        
    249 ****        30.7500  23.5000  -3.5000 Du        
    250 ****        30.7500  23.5000  -3.2500 Du        
    251 ****        30.7500  23.5000  -3.0000 Du        
    252 ****        30.7500  23.5000  -2.7500 Du        
    253 ****        30.7500  23.5000  -2.5000 Du        
    254 ****        30.7500  23.7500  -3.5000 Du        
    255 ****        30.7500  23.7500  -3.2500 Du        
    256 ****        30.7500  23.7500  -3.0000 Du        
    257 ****        30.7500  23.7500  -2.7500 Du        
    258 ****        30.7500  24.0000  -3.5000 Du        
    259 ****        30.7500  24.0000  -3.2500 Du        
    260 ****        30.7500  24.0000  -3.0000 Du        
    261 ****        30.7500  24.0000  -2.7500 Du        
    262 ****        30.7500  24.2500  -3.2500 Du        
    263 ****        30.7500  24.2500  -3.0000 Du        
    264 ****        30.7500  24.2500  -2.7500 Du        
    265 ****        30.7500  24.5000  -3.2500 Du        
    266 ****        30.7500  24.5000  -3.0000 Du        
    267 ****        30.7500  24.7500  -3.2500 Du        
    268 ****        30.7500  24.7500  -3.0000 Du        
    269 ****        30.7500  25.0000  -3.2500 Du        
    270 ****        30.7500  25.0000  -3.0000 Du        
    271 ****        30.7500  25.2500  -3.2500 Du        
    272 ****        30.7500  25.2500  -3.0000 Du        
    273 ****        30.7500  25.5000  -3.2500 Du        
    274 ****        30.7500  25.5000  -3.0000 Du        
    275 ****        30.7500  25.7500  -3.2500 Du        
    276 ****        30.7500  25.7500  -3.0000 Du        
    277 ****        30.7500  26.0000  -3.2500 Du        
    278 ****        30.7500  26.0000  -3.0000 Du        
    279 ****        30.7500  26.2500  -3.5000 Du        
    280 ****        30.7500  26.2500  -3.2500 Du        
    281 ****        30.7500  26.5000  -3.5000 Du        
    282 ****        30.7500  26.5000  -3.2500 Du        
    283 ****        30.7500  26.7500  -3.7500 Du        
    284 ****        30.7500  26.7500  -3.5000 Du        
    285 ****        30.7500  26.7500  -3.2500 Du        
    286 ****        30.7500  27.0000  -3.7500 Du        
    287 ****        30.7500  27.0000  -3.5000 Du        
    288 ****        30.7500  27.2500  -4.0000 Du        
    289 ****        30.7500  27.2500  -3.7500 Du        
    290 ****        30.7500  27.2500  -3.5000 Du        
    291 ****        30.7500  27.5000  -3.7500 Du        
    292 ****        31.0000  23.0000  -3.5000 Du        
    293 ****        31.0000  23.0000  -3.2500 Du        
    294 ****        31.0000  23.0000  -3.0000 Du        
    295 ****        31.0000  23.2500  -3.7500 Du        
    296 ****        31.0000  23.2500  -3.5000 Du        
    297 ****        31.0000  23.2500  -3.2500 Du        
    298 ****        31.0000  23.2500  -3.0000 Du        
    299 ****        31.0000  23.2500  -2.7500 Du        
    300 ****        31.0000  23.5000  -3.5000 Du        
    301 ****        31.0000  23.5000  -3.2500 Du        
    302 ****        31.0000  23.5000  -3.0000 Du        
    303 ****        31.0000  23.5000  -2.7500 Du        
    304 ****        31.0000  23.7500  -3.5000 Du        
    305 ****        31.0000  23.7500  -3.2500 Du        
    306 ****        31.0000  23.7500  -3.0000 Du        
    307 ****        31.0000  23.7500  -2.7500 Du        
    308 ****        31.0000  24.0000  -3.5000 Du        
    309 ****        31.0000  24.0000  -3.2500 Du        
    310 ****        31.0000  24.0000  -3.0000 Du        
    311 ****        31.0000  24.0000  -2.7500 Du        
    312 ****        31.0000  24.2500  -3.2500 Du        
    313 ****        31.0000  24.2500  -3.0000 Du        
    314 ****        31.0000  24.2500  -2.7500 Du        
    315 ****        31.0000  24.5000  -3.2500 Du        
    316 ****        31.0000  24.5000  -3.0000 Du        
    317 ****        31.0000  24.7500  -3.2500 Du        
    318 ****        31.0000  24.7500  -3.0000 Du        
    319 ****        31.0000  25.0000  -3.2500 Du        
    320 ****        31.0000  25.0000  -3.0000 Du        
    321 ****        31.0000  25.2500  -3.2500 Du        
    322 ****        31.0000  25.2500  -3.0000 Du        
    323 ****        31.0000  25.5000  -3.2500 Du        
    324 ****        31.0000  25.5000  -3.0000 Du        
    325 ****        31.0000  25.7500  -3.2500 Du        
    326 ****        31.0000  25.7500  -3.0000 Du        
    327 ****        31.0000  26.0000  -3.5000 Du        
    328 ****        31.0000  26.0000  -3.2500 Du        
    329 ****        31.0000  26.0000  -3.0000 Du        
    330 ****        31.0000  26.2500  -3.5000 Du        
    331 ****        31.0000  26.2500  -3.2500 Du        
    332 ****        31.0000  26.2500  -3.0000 Du        
    333 ****        31.0000  26.5000  -3.5000 Du        
    334 ****        31.0000  26.5000  -3.2500 Du        
    335 ****        31.0000  26.7500  -3.7500 Du        
    336 ****        31.0000  26.7500  -3.5000 Du        
    337 ****        31.0000  26.7500  -3.2500 Du        
    338 ****        31.0000  27.0000  -3.7500 Du        
    339 ****        31.0000  27.0000  -3.5000 Du        
    340 ****        31.0000  27.0000  -3.2500 Du        
    341 ****        31.0000  27.2500  -4.0000 Du        
    342 ****        31.0000  27.2500  -3.7500 Du        
    343 ****        31.0000  27.2500  -3.5000 Du        
    344 ****        31.0000  27.2500  -3.2500 Du        
    345 ****        31.0000  27.5000  -3.7500 Du        
    346 ****        31.0000  27.5000  -3.5000 Du        
    347 ****        31.2500  23.0000  -3.2500 Du        
    348 ****        31.2500  23.0000  -3.0000 Du        
    349 ****        31.2500  23.2500  -3.5000 Du        
    350 ****        31.2500  23.2500  -3.2500 Du        
    351 ****        31.2500  23.2500  -3.0000 Du        
    352 ****        31.2500  23.2500  -2.7500 Du        
    353 ****        31.2500  23.5000  -3.5000 Du        
    354 ****        31.2500  23.5000  -3.2500 Du        
    355 ****        31.2500  23.5000  -3.0000 Du        
    356 ****        31.2500  23.5000  -2.7500 Du        
    357 ****        31.2500  23.7500  -3.5000 Du        
    358 ****        31.2500  23.7500  -3.2500 Du        
    359 ****        31.2500  23.7500  -3.0000 Du        
    360 ****        31.2500  23.7500  -2.7500 Du        
    361 ****        31.2500  24.0000  -3.5000 Du        
    362 ****        31.2500  24.0000  -3.2500 Du        
    363 ****        31.2500  24.0000  -3.0000 Du        
    364 ****        31.2500  24.0000  -2.7500 Du        
    365 ****        31.2500  24.2500  -3.2500 Du        
    366 ****        31.2500  24.2500  -3.0000 Du        
    367 ****        31.2500  24.2500  -2.7500 Du        
    368 ****        31.2500  24.5000  -3.2500 Du        
    369 ****        31.2500  24.5000  -3.0000 Du        
    370 ****        31.2500  24.7500  -3.2500 Du        
    371 ****        31.2500  24.7500  -3.0000 Du        
    372 ****        31.2500  25.0000  -3.2500 Du        
    373 ****        31.2500  25.0000  -3.0000 Du        
    374 ****        31.2500  25.2500  -3.2500 Du        
    375 ****        31.2500  25.2500  -3.0000 Du        
    376 ****        31.2500  25.5000  -3.2500 Du        
    377 ****        31.2500  25.5000  -3.0000 Du        
    378 ****        31.2500  25.7500  -3.2500 Du        
    379 ****        31.2500  25.7500  -3.0000 Du        
    380 ****        31.2500  26.0000  -3.5000 Du        
    381 ****        31.2500  26.0000  -3.2500 Du        
    382 ****        31.2500  26.0000  -3.0000 Du        
    383 ****        31.2500  26.2500  -3.5000 Du        
    384 ****        31.2500  26.2500  -3.2500 Du        
    385 ****        31.2500  26.2500  -3.0000 Du        
    386 ****        31.2500  26.5000  -3.5000 Du        
    387 ****        31.2500  26.5000  -3.2500 Du        
    388 ****        31.2500  26.7500  -3.7500 Du        
    389 ****        31.2500  26.7500  -3.5000 Du        
    390 ****        31.2500  26.7500  -3.2500 Du        
    391 ****        31.2500  27.0000  -3.7500 Du        
    392 ****        31.2500  27.0000  -3.5000 Du        
    393 ****        31.2500  27.0000  -3.2500 Du        
    394 ****        31.2500  27.2500  -4.0000 Du        
    395 ****        31.2500  27.2500  -3.7500 Du        
    396 ****        31.2500  27.2500  -3.5000 Du        
    397 ****        31.2500  27.2500  -3.2500 Du        
    398 ****        31.2500  27.5000  -3.7500 Du        
    399 ****        31.2500  27.5000  -3.5000 Du        
    400 ****        31.2500  27.7500  -3.5000 Du        
    401 ****        31.5000  23.2500  -3.5000 Du        
    402 ****        31.5000  23.2500  -3.2500 Du        
    403 ****        31.5000  23.2500  -3.0000 Du        
    404 ****        31.5000  23.2500  -2.7500 Du        
    405 ****        31.5000  23.5000  -3.5000 Du        
    406 ****        31.5000  23.5000  -3.2500 Du        
    407 ****        31.5000  23.5000  -3.0000 Du        
    408 ****        31.5000  23.5000  -2.7500 Du        
    409 ****        31.5000  23.7500  -3.5000 Du        
    410 ****        31.5000  23.7500  -3.2500 Du        
    411 ****        31.5000  23.7500  -3.0000 Du        
    412 ****        31.5000  23.7500  -2.7500 Du        
    413 ****        31.5000  24.0000  -3.5000 Du        
    414 ****        31.5000  24.0000  -3.2500 Du        
    415 ****        31.5000  24.0000  -3.0000 Du        
    416 ****        31.5000  24.0000  -2.7500 Du        
    417 ****        31.5000  24.2500  -3.2500 Du        
    418 ****        31.5000  24.2500  -3.0000 Du        
    419 ****        31.5000  24.2500  -2.7500 Du        
    420 ****        31.5000  24.5000  -3.2500 Du        
    421 ****        31.5000  24.5000  -3.0000 Du        
    422 ****        31.5000  24.7500  -3.2500 Du        
    423 ****        31.5000  24.7500  -3.0000 Du        
    424 ****        31.5000  25.0000  -3.2500 Du        
    425 ****        31.5000  25.0000  -3.0000 Du        
    426 ****        31.5000  25.2500  -3.2500 Du        
    427 ****        31.5000  25.2500  -3.0000 Du        
    428 ****        31.5000  25.5000  -3.2500 Du        
    429 ****        31.5000  25.5000  -3.0000 Du        
    430 ****        31.5000  25.7500  -3.2500 Du        
    431 ****        31.5000  25.7500  -3.0000 Du        
    432 ****        31.5000  26.0000  -3.5000 Du        
    433 ****        31.5000  26.0000  -3.2500 Du        
    434 ****        31.5000  26.0000  -3.0000 Du        
    435 ****        31.5000  26.2500  -3.5000 Du        
    436 ****        31.5000  26.2500  -3.2500 Du        
    437 ****        31.5000  26.2500  -3.0000 Du        
    438 ****        31.5000  26.5000  -3.5000 Du        
    439 ****        31.5000  26.5000  -3.2500 Du        
    440 ****        31.5000  26.5000  -3.0000 Du        
    441 ****        31.5000  26.7500  -3.7500 Du        
    442 ****        31.5000  26.7500  -3.5000 Du        
    443 ****        31.5000  26.7500  -3.2500 Du        
    444 ****        31.5000  27.0000  -4.0000 Du        
    445 ****        31.5000  27.0000  -3.7500 Du        
    446 ****        31.5000  27.0000  -3.5000 Du        
    447 ****        31.5000  27.0000  -3.2500 Du        
    448 ****        31.5000  27.2500  -4.0000 Du        
    449 ****        31.5000  27.2500  -3.7500 Du        
    450 ****        31.5000  27.2500  -3.5000 Du        
    451 ****        31.5000  27.2500  -3.2500 Du        
    452 ****        31.5000  27.5000  -4.0000 Du        
    453 ****        31.5000  27.5000  -3.7500 Du        
    454 ****        31.7500  23.2500  -3.0000 Du        
    455 ****        31.7500  23.5000  -3.5000 Du        
    456 ****        31.7500  23.5000  -3.2500 Du        
    457 ****        31.7500  23.5000  -3.0000 Du        
    458 ****        31.7500  23.5000  -2.7500 Du        
    459 ****        31.7500  23.7500  -3.5000 Du        
    460 ****        31.7500  23.7500  -3.2500 Du        
    461 ****        31.7500  23.7500  -3.0000 Du        
    462 ****        31.7500  23.7500  -2.7500 Du        
    463 ****        31.7500  24.0000  -3.5000 Du        
    464 ****        31.7500  24.0000  -3.2500 Du        
    465 ****        31.7500  24.0000  -3.0000 Du        
    466 ****        31.7500  24.0000  -2.7500 Du        
    467 ****        31.7500  24.2500  -3.5000 Du        
    468 ****        31.7500  24.2500  -3.2500 Du        
    469 ****        31.7500  24.2500  -3.0000 Du        
    470 ****        31.7500  24.2500  -2.7500 Du        
    471 ****        31.7500  24.5000  -3.2500 Du        
    472 ****        31.7500  24.5000  -3.0000 Du        
    473 ****        31.7500  24.7500  -3.2500 Du        
    474 ****        31.7500  24.7500  -3.0000 Du        
    475 ****        31.7500  25.0000  -3.2500 Du        
    476 ****        31.7500  25.0000  -3.0000 Du        
    477 ****        31.7500  25.2500  -3.2500 Du        
    478 ****        31.7500  25.2500  -3.0000 Du        
    479 ****        31.7500  25.5000  -3.2500 Du        
    480 ****        31.7500  25.5000  -3.0000 Du        
    481 ****        31.7500  25.7500  -3.5000 Du        
    482 ****        31.7500  25.7500  -3.2500 Du        
    483 ****        31.7500  25.7500  -3.0000 Du        
    484 ****        31.7500  26.0000  -3.5000 Du        
    485 ****        31.7500  26.0000  -3.2500 Du        
    486 ****        31.7500  26.0000  -3.0000 Du        
    487 ****        31.7500  26.2500  -3.5000 Du        
    488 ****        31.7500  26.2500  -3.2500 Du        
    489 ****        31.7500  26.2500  -3.0000 Du        
    490 ****        31.7500  26.5000  -3.7500 Du        
    491 ****        31.7500  26.5000  -3.5000 Du        
    492 ****        31.7500  26.5000  -3.2500 Du        
    493 ****        31.7500  26.5000  -3.0000 Du        
    494 ****        31.7500  26.7500  -3.7500 Du        
    495 ****        31.7500  26.7500  -3.5000 Du        
    496 ****        31.7500  26.7500  -3.2500 Du        
    497 ****        31.7500  26.7500  -3.0000 Du        
    498 ****        31.7500  27.0000  -4.0000 Du        
    499 ****        31.7500  27.0000  -3.7500 Du        
    500 ****        31.7500  27.0000  -3.5000 Du        
    501 ****        31.7500  27.0000  -3.2500 Du        
    502 ****        31.7500  27.0000  -3.0000 Du        
    503 ****        31.7500  27.2500  -4.2500 Du        
    504 ****        31.7500  27.2500  -4.0000 Du        
    505 ****        31.7500  27.2500  -3.7500 Du        
    506 ****        31.7500  27.2500  -3.5000 Du        
    507 ****        31.7500  27.2500  -3.2500 Du        
    508 ****        31.7500  27.2500  -3.0000 Du        
    509 ****        31.7500  27.5000  -4.2500 Du        
    510 ****        31.7500  27.5000  -4.0000 Du        
    511 ****        31.7500  27.5000  -3.7500 Du        
    512 ****        31.7500  27.5000  -3.5000 Du        
    513 ****        31.7500  27.5000  -3.2500 Du        
    514 ****        31.7500  27.7500  -4.0000 Du        
    515 ****        31.7500  27.7500  -3.7500 Du        
    516 ****        31.7500  27.7500  -3.5000 Du        
    517 ****        31.7500  27.7500  -3.2500 Du        
    518 ****        32.0000  23.5000  -3.2500 Du        
    519 ****        32.0000  23.5000  -3.0000 Du        
    520 ****        32.0000  23.5000  -2.7500 Du        
    521 ****        32.0000  23.7500  -3.5000 Du        
    522 ****        32.0000  23.7500  -3.2500 Du        
    523 ****        32.0000  23.7500  -3.0000 Du        
    524 ****        32.0000  23.7500  -2.7500 Du        
    525 ****        32.0000  24.0000  -3.5000 Du        
    526 ****        32.0000  24.0000  -3.2500 Du        
    527 ****        32.0000  24.0000  -3.0000 Du        
    528 ****        32.0000  24.0000  -2.7500 Du        
    529 ****        32.0000  24.2500  -3.5000 Du        
    530 ****        32.0000  24.2500  -3.2500 Du        
    531 ****        32.0000  24.2500  -3.0000 Du        
    532 ****        32.0000  24.2500  -2.7500 Du        
    533 ****        32.0000  24.5000  -3.5000 Du        
    534 ****        32.0000  24.5000  -3.2500 Du        
    535 ****        32.0000  24.5000  -3.0000 Du        
    536 ****        32.0000  24.5000  -2.7500 Du        
    537 ****        32.0000  24.7500  -3.5000 Du        
    538 ****        32.0000  24.7500  -3.2500 Du        
    539 ****        32.0000  24.7500  -3.0000 Du        
    540 ****        32.0000  25.0000  -3.5000 Du        
    541 ****        32.0000  25.0000  -3.2500 Du        
    542 ****        32.0000  25.0000  -3.0000 Du        
    543 ****        32.0000  25.2500  -3.5000 Du        
    544 ****        32.0000  25.2500  -3.2500 Du        
    545 ****        32.0000  25.2500  -3.0000 Du        
    546 ****        32.0000  25.5000  -3.5000 Du        
    547 ****        32.0000  25.5000  -3.2500 Du        
    548 ****        32.0000  25.5000  -3.0000 Du        
    549 ****        32.0000  25.7500  -3.5000 Du        
    550 ****        32.0000  25.7500  -3.2500 Du        
    551 ****        32.0000  25.7500  -3.0000 Du        
    552 ****        32.0000  26.0000  -3.5000 Du        
    553 ****        32.0000  26.0000  -3.2500 Du        
    554 ****        32.0000  26.0000  -3.0000 Du        
    555 ****        32.0000  26.2500  -3.7500 Du        
    556 ****        32.0000  26.2500  -3.5000 Du        
    557 ****        32.0000  26.2500  -3.2500 Du        
    558 ****        32.0000  26.2500  -3.0000 Du        
    559 ****        32.0000  26.5000  -3.7500 Du        
    560 ****        32.0000  26.5000  -3.5000 Du        
    561 ****        32.0000  26.5000  -3.2500 Du        
    562 ****        32.0000  26.5000  -3.0000 Du        
    563 ****        32.0000  26.7500  -3.7500 Du        
    564 ****        32.0000  26.7500  -3.5000 Du        
    565 ****        32.0000  26.7500  -3.2500 Du        
    566 ****        32.0000  26.7500  -3.0000 Du        
    567 ****        32.0000  27.0000  -4.0000 Du        
    568 ****        32.0000  27.0000  -3.7500 Du        
    569 ****        32.0000  27.0000  -3.5000 Du        
    570 ****        32.0000  27.0000  -3.2500 Du        
    571 ****        32.0000  27.0000  -3.0000 Du        
    572 ****        32.0000  27.2500  -4.2500 Du        
    573 ****        32.0000  27.2500  -4.0000 Du        
    574 ****        32.0000  27.2500  -3.7500 Du        
    575 ****        32.0000  27.2500  -3.5000 Du        
    576 ****        32.0000  27.2500  -3.2500 Du        
    577 ****        32.0000  27.2500  -3.0000 Du        
    578 ****        32.0000  27.5000  -4.2500 Du        
    579 ****        32.0000  27.5000  -4.0000 Du        
    580 ****        32.0000  27.5000  -3.7500 Du        
    581 ****        32.0000  27.5000  -3.5000 Du        
    582 ****        32.0000  27.5000  -3.2500 Du        
    583 ****        32.0000  27.7500  -4.2500 Du        
    584 ****        32.0000  27.7500  -4.0000 Du        
    585 ****        32.0000  27.7500  -3.7500 Du        
    586 ****        32.0000  27.7500  -3.5000 Du        
    587 ****        32.0000  27.7500  -3.2500 Du        
    588 ****        32.0000  27.7500  -3.0000 Du        
    589 ****        32.0000  28.0000  -4.0000 Du        
    590 ****        32.0000  28.0000  -3.7500 Du        
    591 ****        32.0000  28.0000  -3.5000 Du        
    592 ****        32.0000  28.0000  -3.2500 Du        
    593 ****        32.0000  28.2500  -3.2500 Du        
    594 ****        32.2500  23.5000  -3.2500 Du        
    595 ****        32.2500  23.5000  -3.0000 Du        
    596 ****        32.2500  23.5000  -2.7500 Du        
    597 ****        32.2500  23.7500  -3.5000 Du        
    598 ****        32.2500  23.7500  -3.2500 Du        
    599 ****        32.2500  23.7500  -3.0000 Du        
    600 ****        32.2500  23.7500  -2.7500 Du        
    601 ****        32.2500  24.0000  -3.5000 Du        
    602 ****        32.2500  24.0000  -3.2500 Du        
    603 ****        32.2500  24.0000  -3.0000 Du        
    604 ****        32.2500  24.0000  -2.7500 Du        
    605 ****        32.2500  24.2500  -3.5000 Du        
    606 ****        32.2500  24.2500  -3.2500 Du        
    607 ****        32.2500  24.2500  -3.0000 Du        
    608 ****        32.2500  24.2500  -2.7500 Du        
    609 ****        32.2500  24.5000  -3.5000 Du        
    610 ****        32.2500  24.5000  -3.2500 Du        
    611 ****        32.2500  24.5000  -3.0000 Du        
    612 ****        32.2500  24.5000  -2.7500 Du        
    613 ****        32.2500  24.7500  -3.5000 Du        
    614 ****        32.2500  24.7500  -3.2500 Du        
    615 ****        32.2500  24.7500  -3.0000 Du        
    616 ****        32.2500  24.7500  -2.7500 Du        
    617 ****        32.2500  25.0000  -3.5000 Du        
    618 ****        32.2500  25.0000  -3.2500 Du        
    619 ****        32.2500  25.0000  -3.0000 Du        
    620 ****        32.2500  25.0000  -2.7500 Du        
    621 ****        32.2500  25.2500  -3.5000 Du        
    622 ****        32.2500  25.2500  -3.2500 Du        
    623 ****        32.2500  25.2500  -3.0000 Du        
    624 ****        32.2500  25.2500  -2.7500 Du        
    625 ****        32.2500  25.5000  -3.5000 Du        
    626 ****        32.2500  25.5000  -3.2500 Du        
    627 ****        32.2500  25.5000  -3.0000 Du        
    628 ****        32.2500  25.5000  -2.7500 Du        
    629 ****        32.2500  25.7500  -3.5000 Du        
    630 ****        32.2500  25.7500  -3.2500 Du        
    631 ****        32.2500  25.7500  -3.0000 Du        
    632 ****        32.2500  25.7500  -2.7500 Du        
    633 ****        32.2500  26.0000  -3.5000 Du        
    634 ****        32.2500  26.0000  -3.2500 Du        
    635 ****        32.2500  26.0000  -3.0000 Du        
    636 ****        32.2500  26.0000  -2.7500 Du        
    637 ****        32.2500  26.2500  -3.7500 Du        
    638 ****        32.2500  26.2500  -3.5000 Du        
    639 ****        32.2500  26.2500  -3.2500 Du        
    640 ****        32.2500  26.2500  -3.0000 Du        
    641 ****        32.2500  26.2500  -2.7500 Du        
    642 ****        32.2500  26.5000  -3.7500 Du        
    643 ****        32.2500  26.5000  -3.5000 Du        
    644 ****        32.2500  26.5000  -3.2500 Du        
    645 ****        32.2500  26.5000  -3.0000 Du        
    646 ****        32.2500  26.7500  -3.7500 Du        
    647 ****        32.2500  26.7500  -3.5000 Du        
    648 ****        32.2500  26.7500  -3.2500 Du        
    649 ****        32.2500  26.7500  -3.0000 Du        
    650 ****        32.2500  27.0000  -4.0000 Du        
    651 ****        32.2500  27.0000  -3.7500 Du        
    652 ****        32.2500  27.0000  -3.5000 Du        
    653 ****        32.2500  27.0000  -3.2500 Du        
    654 ****        32.2500  27.0000  -3.0000 Du        
    655 ****        32.2500  27.2500  -4.0000 Du        
    656 ****        32.2500  27.2500  -3.7500 Du        
    657 ****        32.2500  27.2500  -3.5000 Du        
    658 ****        32.2500  27.2500  -3.2500 Du        
    659 ****        32.2500  27.2500  -3.0000 Du        
    660 ****        32.2500  27.5000  -4.0000 Du        
    661 ****        32.2500  27.5000  -3.7500 Du        
    662 ****        32.2500  27.5000  -3.5000 Du        
    663 ****        32.2500  27.5000  -3.2500 Du        
    664 ****        32.2500  27.5000  -3.0000 Du        
    665 ****        32.2500  27.7500  -4.2500 Du        
    666 ****        32.2500  27.7500  -4.0000 Du        
    667 ****        32.2500  27.7500  -3.7500 Du        
    668 ****        32.2500  27.7500  -3.5000 Du        
    669 ****        32.2500  27.7500  -3.2500 Du        
    670 ****        32.2500  27.7500  -3.0000 Du        
    671 ****        32.2500  28.0000  -4.0000 Du        
    672 ****        32.2500  28.0000  -3.7500 Du        
    673 ****        32.2500  28.0000  -3.5000 Du        
    674 ****        32.2500  28.0000  -3.2500 Du        
    675 ****        32.2500  28.0000  -3.0000 Du        
    676 ****        32.2500  28.2500  -3.5000 Du        
    677 ****        32.2500  28.2500  -3.2500 Du        
    678 ****        32.2500  28.2500  -3.0000 Du        
    679 ****        32.5000  23.5000  -3.2500 Du        
    680 ****        32.5000  23.5000  -3.0000 Du        
    681 ****        32.5000  23.7500  -3.5000 Du        
    682 ****        32.5000  23.7500  -3.2500 Du        
    683 ****        32.5000  23.7500  -3.0000 Du        
    684 ****        32.5000  23.7500  -2.7500 Du        
    685 ****        32.5000  24.0000  -3.5000 Du        
    686 ****        32.5000  24.0000  -3.2500 Du        
    687 ****        32.5000  24.0000  -3.0000 Du        
    688 ****        32.5000  24.0000  -2.7500 Du        
    689 ****        32.5000  24.2500  -3.5000 Du        
    690 ****        32.5000  24.2500  -3.2500 Du        
    691 ****        32.5000  24.2500  -3.0000 Du        
    692 ****        32.5000  24.2500  -2.7500 Du        
    693 ****        32.5000  24.5000  -3.5000 Du        
    694 ****        32.5000  24.5000  -3.2500 Du        
    695 ****        32.5000  24.5000  -3.0000 Du        
    696 ****        32.5000  24.5000  -2.7500 Du        
    697 ****        32.5000  24.7500  -3.5000 Du        
    698 ****        32.5000  24.7500  -3.2500 Du        
    699 ****        32.5000  24.7500  -3.0000 Du        
    700 ****        32.5000  24.7500  -2.7500 Du        
    701 ****        32.5000  25.0000  -3.5000 Du        
    702 ****        32.5000  25.0000  -3.2500 Du        
    703 ****        32.5000  25.0000  -3.0000 Du        
    704 ****        32.5000  25.0000  -2.7500 Du        
    705 ****        32.5000  25.2500  -3.5000 Du        
    706 ****        32.5000  25.2500  -3.2500 Du        
    707 ****        32.5000  25.2500  -3.0000 Du        
    708 ****        32.5000  25.2500  -2.7500 Du        
    709 ****        32.5000  25.5000  -3.5000 Du        
    710 ****        32.5000  25.5000  -3.2500 Du        
    711 ****        32.5000  25.5000  -3.0000 Du        
    712 ****        32.5000  25.5000  -2.7500 Du        
    713 ****        32.5000  25.7500  -3.5000 Du        
    714 ****        32.5000  25.7500  -3.2500 Du        
    715 ****        32.5000  25.7500  -3.0000 Du        
    716 ****        32.5000  25.7500  -2.7500 Du        
    717 ****        32.5000  26.0000  -3.5000 Du        
    718 ****        32.5000  26.0000  -3.2500 Du        
    719 ****        32.5000  26.0000  -3.0000 Du        
    720 ****        32.5000  26.0000  -2.7500 Du        
    721 ****        32.5000  26.2500  -3.7500 Du        
    722 ****        32.5000  26.2500  -3.5000 Du        
    723 ****        32.5000  26.2500  -3.2500 Du        
    724 ****        32.5000  26.2500  -3.0000 Du        
    725 ****        32.5000  26.2500  -2.7500 Du        
    726 ****        32.5000  26.5000  -3.7500 Du        
    727 ****        32.5000  26.5000  -3.5000 Du        
    728 ****        32.5000  26.5000  -3.2500 Du        
    729 ****        32.5000  26.5000  -3.0000 Du        
    730 ****        32.5000  26.5000  -2.7500 Du        
    731 ****        32.5000  26.7500  -3.7500 Du        
    732 ****        32.5000  26.7500  -3.5000 Du        
    733 ****        32.5000  26.7500  -3.2500 Du        
    734 ****        32.5000  26.7500  -3.0000 Du        
    735 ****        32.5000  27.0000  -4.0000 Du        
    736 ****        32.5000  27.0000  -3.7500 Du        
    737 ****        32.5000  27.0000  -3.5000 Du        
    738 ****        32.5000  27.0000  -3.2500 Du        
    739 ****        32.5000  27.0000  -3.0000 Du        
    740 ****        32.5000  27.2500  -4.0000 Du        
    741 ****        32.5000  27.2500  -3.7500 Du        
    742 ****        32.5000  27.2500  -3.5000 Du        
    743 ****        32.5000  27.2500  -3.2500 Du        
    744 ****        32.5000  27.2500  -3.0000 Du        
    745 ****        32.5000  27.5000  -4.0000 Du        
    746 ****        32.5000  27.5000  -3.7500 Du        
    747 ****        32.5000  27.5000  -3.5000 Du        
    748 ****        32.5000  27.5000  -3.2500 Du        
    749 ****        32.5000  27.5000  -3.0000 Du        
    750 ****        32.5000  27.7500  -4.2500 Du        
    751 ****        32.5000  27.7500  -4.0000 Du        
    752 ****        32.5000  27.7500  -3.7500 Du        
    753 ****        32.5000  27.7500  -3.5000 Du        
    754 ****        32.5000  27.7500  -3.2500 Du        
    755 ****        32.5000  27.7500  -3.0000 Du        
    756 ****        32.5000  28.0000  -4.0000 Du        
    757 ****        32.5000  28.0000  -3.7500 Du        
    758 ****        32.5000  28.0000  -3.5000 Du        
    759 ****        32.5000  28.0000  -3.2500 Du        
    760 ****        32.5000  28.0000  -3.0000 Du        
    761 ****        32.5000  28.2500  -3.7500 Du        
    762 ****        32.5000  28.2500  -3.5000 Du        
    763 ****        32.5000  28.2500  -3.2500 Du        
    764 ****        32.5000  28.2500  -3.0000 Du        
    765 ****        32.5000  28.5000  -3.5000 Du        
    766 ****        32.5000  28.5000  -3.2500 Du        
    767 ****        32.5000  28.5000  -3.0000 Du        
    768 ****        32.5000  28.7500  -3.0000 Du        
    769 ****        32.7500  23.7500  -3.5000 Du        
    770 ****        32.7500  23.7500  -3.2500 Du        
    771 ****        32.7500  23.7500  -3.0000 Du        
    772 ****        32.7500  23.7500  -2.7500 Du        
    773 ****        32.7500  24.0000  -3.5000 Du        
    774 ****        32.7500  24.0000  -3.2500 Du        
    775 ****        32.7500  24.0000  -3.0000 Du        
    776 ****        32.7500  24.0000  -2.7500 Du        
    777 ****        32.7500  24.2500  -3.5000 Du        
    778 ****        32.7500  24.2500  -3.2500 Du        
    779 ****        32.7500  24.2500  -3.0000 Du        
    780 ****        32.7500  24.2500  -2.7500 Du        
    781 ****        32.7500  24.5000  -3.5000 Du        
    782 ****        32.7500  24.5000  -3.2500 Du        
    783 ****        32.7500  24.5000  -3.0000 Du        
    784 ****        32.7500  24.5000  -2.7500 Du        
    785 ****        32.7500  24.7500  -3.5000 Du        
    786 ****        32.7500  24.7500  -3.2500 Du        
    787 ****        32.7500  24.7500  -3.0000 Du        
    788 ****        32.7500  24.7500  -2.7500 Du        
    789 ****        32.7500  25.0000  -3.5000 Du        
    790 ****        32.7500  25.0000  -3.2500 Du        
    791 ****        32.7500  25.0000  -3.0000 Du        
    792 ****        32.7500  25.0000  -2.7500 Du        
    793 ****        32.7500  25.2500  -3.5000 Du        
    794 ****        32.7500  25.2500  -3.2500 Du        
    795 ****        32.7500  25.2500  -3.0000 Du        
    796 ****        32.7500  25.2500  -2.7500 Du        
    797 ****        32.7500  25.5000  -3.5000 Du        
    798 ****        32.7500  25.5000  -3.2500 Du        
    799 ****        32.7500  25.5000  -3.0000 Du        
    800 ****        32.7500  25.5000  -2.7500 Du        
    801 ****        32.7500  25.7500  -3.5000 Du        
    802 ****        32.7500  25.7500  -3.2500 Du        
    803 ****        32.7500  25.7500  -3.0000 Du        
    804 ****        32.7500  25.7500  -2.7500 Du        
    805 ****        32.7500  26.0000  -3.5000 Du        
    806 ****        32.7500  26.0000  -3.2500 Du        
    807 ****        32.7500  26.0000  -3.0000 Du        
    808 ****        32.7500  26.0000  -2.7500 Du        
    809 ****        32.7500  26.2500  -3.5000 Du        
    810 ****        32.7500  26.2500  -3.2500 Du        
    811 ****        32.7500  26.2500  -3.0000 Du        
    812 ****        32.7500  26.2500  -2.7500 Du        
    813 ****        32.7500  26.5000  -3.5000 Du        
    814 ****        32.7500  26.5000  -3.2500 Du        
    815 ****        32.7500  26.5000  -3.0000 Du        
    816 ****        32.7500  26.5000  -2.7500 Du        
    817 ****        32.7500  26.7500  -3.5000 Du        
    818 ****        32.7500  26.7500  -3.2500 Du        
    819 ****        32.7500  26.7500  -3.0000 Du        
    820 ****        32.7500  27.0000  -3.7500 Du        
    821 ****        32.7500  27.0000  -3.5000 Du        
    822 ****        32.7500  27.0000  -3.2500 Du        
    823 ****        32.7500  27.0000  -3.0000 Du        
    824 ****        32.7500  27.2500  -3.7500 Du        
    825 ****        32.7500  27.2500  -3.5000 Du        
    826 ****        32.7500  27.2500  -3.2500 Du        
    827 ****        32.7500  27.2500  -3.0000 Du        
    828 ****        32.7500  27.5000  -4.0000 Du        
    829 ****        32.7500  27.5000  -3.7500 Du        
    830 ****        32.7500  27.5000  -3.5000 Du        
    831 ****        32.7500  27.5000  -3.2500 Du        
    832 ****        32.7500  27.5000  -3.0000 Du        
    833 ****        32.7500  27.7500  -4.0000 Du        
    834 ****        32.7500  27.7500  -3.7500 Du        
    835 ****        32.7500  27.7500  -3.5000 Du        
    836 ****        32.7500  27.7500  -3.2500 Du        
    837 ****        32.7500  27.7500  -3.0000 Du        
    838 ****        32.7500  28.0000  -4.2500 Du        
    839 ****        32.7500  28.0000  -4.0000 Du        
    840 ****        32.7500  28.0000  -3.7500 Du        
    841 ****        32.7500  28.0000  -3.5000 Du        
    842 ****        32.7500  28.0000  -3.2500 Du        
    843 ****        32.7500  28.0000  -3.0000 Du        
    844 ****        32.7500  28.2500  -4.2500 Du        
    845 ****        32.7500  28.2500  -4.0000 Du        
    846 ****        32.7500  28.2500  -3.7500 Du        
    847 ****        32.7500  28.2500  -3.5000 Du        
    848 ****        32.7500  28.2500  -3.2500 Du        
    849 ****        32.7500  28.2500  -3.0000 Du        
    850 ****        32.7500  28.2500  -2.7500 Du        
    851 ****        32.7500  28.5000  -3.5000 Du        
    852 ****        32.7500  28.5000  -3.2500 Du        
    853 ****        32.7500  28.5000  -3.0000 Du        
    854 ****        32.7500  28.5000  -2.7500 Du        
    855 ****        32.7500  28.7500  -3.5000 Du        
    856 ****        32.7500  28.7500  -3.2500 Du        
    857 ****        32.7500  28.7500  -3.0000 Du        
    858 ****        32.7500  28.7500  -2.7500 Du        
    859 ****        32.7500  29.0000  -3.0000 Du        
    860 ****        32.7500  29.0000  -2.7500 Du        
    861 ****        33.0000  23.7500  -3.2500 Du        
    862 ****        33.0000  23.7500  -3.0000 Du        
    863 ****        33.0000  24.0000  -3.5000 Du        
    864 ****        33.0000  24.0000  -3.2500 Du        
    865 ****        33.0000  24.0000  -3.0000 Du        
    866 ****        33.0000  24.0000  -2.7500 Du        
    867 ****        33.0000  24.2500  -3.5000 Du        
    868 ****        33.0000  24.2500  -3.2500 Du        
    869 ****        33.0000  24.2500  -3.0000 Du        
    870 ****        33.0000  24.2500  -2.7500 Du        
    871 ****        33.0000  24.5000  -3.5000 Du        
    872 ****        33.0000  24.5000  -3.2500 Du        
    873 ****        33.0000  24.5000  -3.0000 Du        
    874 ****        33.0000  24.5000  -2.7500 Du        
    875 ****        33.0000  24.7500  -3.5000 Du        
    876 ****        33.0000  24.7500  -3.2500 Du        
    877 ****        33.0000  24.7500  -3.0000 Du        
    878 ****        33.0000  24.7500  -2.7500 Du        
    879 ****        33.0000  25.0000  -3.5000 Du        
    880 ****        33.0000  25.0000  -3.2500 Du        
    881 ****        33.0000  25.0000  -3.0000 Du        
    882 ****        33.0000  25.0000  -2.7500 Du        
    883 ****        33.0000  25.2500  -3.2500 Du        
    884 ****        33.0000  25.2500  -3.0000 Du        
    885 ****        33.0000  25.2500  -2.7500 Du        
    886 ****        33.0000  25.5000  -3.2500 Du        
    887 ****        33.0000  25.5000  -3.0000 Du        
    888 ****        33.0000  25.5000  -2.7500 Du        
    889 ****        33.0000  25.7500  -3.2500 Du        
    890 ****        33.0000  25.7500  -3.0000 Du        
    891 ****        33.0000  25.7500  -2.7500 Du        
    892 ****        33.0000  26.0000  -3.2500 Du        
    893 ****        33.0000  26.0000  -3.0000 Du        
    894 ****        33.0000  26.0000  -2.7500 Du        
    895 ****        33.0000  26.2500  -3.0000 Du        
    896 ****        33.0000  27.7500  -3.7500 Du        
    897 ****        33.0000  27.7500  -3.5000 Du        
    898 ****        33.0000  27.7500  -3.2500 Du        
    899 ****        33.0000  27.7500  -3.0000 Du        
    900 ****        33.0000  28.0000  -4.0000 Du        
    901 ****        33.0000  28.0000  -3.7500 Du        
    902 ****        33.0000  28.0000  -3.5000 Du        
    903 ****        33.0000  28.0000  -3.2500 Du        
    904 ****        33.0000  28.0000  -3.0000 Du        
    905 ****        33.0000  28.2500  -4.0000 Du        
    906 ****        33.0000  28.2500  -3.7500 Du        
    907 ****        33.0000  28.2500  -3.5000 Du        
    908 ****        33.0000  28.2500  -3.2500 Du        
    909 ****        33.0000  28.2500  -3.0000 Du        
    910 ****        33.0000  28.2500  -2.7500 Du        
    911 ****        33.0000  28.5000  -3.5000 Du        
    912 ****        33.0000  28.5000  -3.2500 Du        
    913 ****        33.0000  28.5000  -3.0000 Du        
    914 ****        33.0000  28.5000  -2.7500 Du        
    915 ****        33.0000  28.7500  -3.5000 Du        
    916 ****        33.0000  28.7500  -3.2500 Du        
    917 ****        33.0000  28.7500  -3.0000 Du        
    918 ****        33.0000  28.7500  -2.7500 Du        
    919 ****        33.0000  29.0000  -3.2500 Du        
    920 ****        33.0000  29.0000  -3.0000 Du        
    921 ****        33.0000  29.0000  -2.7500 Du        
    922 ****        33.0000  29.0000  -2.5000 Du        
    923 ****        33.0000  29.2500  -3.0000 Du        
    924 ****        33.0000  29.2500  -2.7500 Du        
    925 ****        33.0000  29.2500  -2.5000 Du        
    926 ****        33.2500  24.0000  -3.2500 Du        
    927 ****        33.2500  24.2500  -3.2500 Du        
    928 ****        33.2500  28.2500  -3.2500 Du        
    929 ****        33.2500  28.2500  -3.0000 Du        
    930 ****        33.2500  28.5000  -3.2500 Du        
    931 ****        33.2500  28.5000  -3.0000 Du        
    932 ****        33.2500  28.5000  -2.7500 Du        
    933 ****        33.2500  28.7500  -3.5000 Du        
    934 ****        33.2500  28.7500  -3.2500 Du        
    935 ****        33.2500  28.7500  -3.0000 Du        
    936 ****        33.2500  28.7500  -2.7500 Du        
    937 ****        33.2500  29.0000  -3.5000 Du        
    938 ****        33.2500  29.0000  -3.2500 Du        
    939 ****        33.2500  29.0000  -3.0000 Du        
    940 ****        33.2500  29.0000  -2.7500 Du        
    941 ****        33.2500  29.0000  -2.5000 Du        
    942 ****        33.2500  29.2500  -3.2500 Du        
    943 ****        33.2500  29.2500  -3.0000 Du        
    944 ****        33.2500  29.2500  -2.7500 Du        
    945 ****        33.2500  29.2500  -2.5000 Du        
    946 ****        33.5000  28.5000  -3.0000 Du        
    947 ****        33.5000  28.5000  -2.7500 Du        
    948 ****        33.5000  28.7500  -3.5000 Du        
    949 ****        33.5000  28.7500  -3.2500 Du        
    950 ****        33.5000  28.7500  -3.0000 Du        
    951 ****        33.5000  28.7500  -2.7500 Du        
    952 ****        33.5000  28.7500  -2.5000 Du        
    953 ****        33.5000  29.0000  -3.5000 Du        
    954 ****        33.5000  29.0000  -3.2500 Du        
    955 ****        33.5000  29.0000  -3.0000 Du        
    956 ****        33.5000  29.0000  -2.7500 Du        
    957 ****        33.5000  29.0000  -2.5000 Du        
    958 ****        33.5000  29.2500  -3.5000 Du        
    959 ****        33.5000  29.2500  -3.2500 Du        
    960 ****        33.5000  29.2500  -3.0000 Du        
    961 ****        33.5000  29.2500  -2.7500 Du        
    962 ****        33.5000  29.2500  -2.5000 Du        
    963 ****        33.5000  29.2500  -2.2500 Du        
    964 ****        33.5000  29.5000  -2.7500 Du        
    965 ****        33.5000  29.5000  -2.5000 Du        
    966 ****        33.7500  28.7500  -3.2500 Du        
    967 ****        33.7500  28.7500  -3.0000 Du        
    968 ****        33.7500  28.7500  -2.7500 Du        
    969 ****        33.7500  28.7500  -2.5000 Du        
    970 ****        33.7500  29.0000  -3.7500 Du        
    971 ****        33.7500  29.0000  -3.5000 Du        
    972 ****        33.7500  29.0000  -3.2500 Du        
    973 ****        33.7500  29.0000  -3.0000 Du        
    974 ****        33.7500  29.0000  -2.7500 Du        
    975 ****        33.7500  29.0000  -2.5000 Du        
    976 ****        33.7500  29.2500  -3.7500 Du        
    977 ****        33.7500  29.2500  -3.5000 Du        
    978 ****        33.7500  29.2500  -3.2500 Du        
    979 ****        33.7500  29.2500  -3.0000 Du        
    980 ****        33.7500  29.2500  -2.7500 Du        
    981 ****        33.7500  29.2500  -2.5000 Du        
    982 ****        33.7500  29.5000  -3.0000 Du        
    983 ****        33.7500  29.5000  -2.7500 Du        
    984 ****        34.0000  28.7500  -2.7500 Du        
    985 ****        34.0000  29.0000  -3.5000 Du        
    986 ****        34.0000  29.0000  -3.2500 Du        
    987 ****        34.0000  29.0000  -3.0000 Du        
    988 ****        34.0000  29.0000  -2.7500 Du        
    989 ****        34.0000  29.0000  -2.5000 Du        
    990 ****        34.0000  29.2500  -3.5000 Du        
    991 ****        34.0000  29.2500  -3.2500 Du        
    992 ****        34.0000  29.2500  -3.0000 Du        
    993 ****        34.0000  29.2500  -2.7500 Du        
    994 ****        34.0000  29.2500  -2.5000 Du        
    995 ****        34.0000  29.5000  -3.2500 Du        
    996 ****        34.0000  29.5000  -3.0000 Du        
    997 ****        34.0000  29.5000  -2.7500 Du        
    998 ****        34.0000  29.7500  -3.0000 Du        
    999 ****        34.0000  29.7500  -2.7500 Du        
   1000 ****        34.2500  29.0000  -3.2500 Du        
   1001 ****        34.2500  29.0000  -3.0000 Du        
   1002 ****        34.2500  29.0000  -2.7500 Du        
   1003 ****        34.2500  29.2500  -3.5000 Du        
   1004 ****        34.2500  29.2500  -3.2500 Du        
   1005 ****        34.2500  29.2500  -3.0000 Du        
   1006 ****        34.2500  29.2500  -2.7500 Du        
   1007 ****        34.2500  29.5000  -3.2500 Du        
   1008 ****        34.2500  29.5000  -3.0000 Du        
   1009 ****        34.2500  29.5000  -2.7500 Du        
   1010 ****        34.2500  29.7500  -3.0000 Du        
   1011 ****        34.5000  29.2500  -3.5000 Du        
   1012 ****        34.5000  29.2500  -3.2500 Du        
   1013 ****        34.5000  29.2500  -3.0000 Du        
   1014 ****        34.5000  29.2500  -2.7500 Du        
   1015 ****        34.5000  29.5000  -3.5000 Du        
   1016 ****        34.5000  29.5000  -3.2500 Du        
   1017 ****        34.5000  29.5000  -3.0000 Du        
   1018 ****        34.5000  29.7500  -3.2500 Du        
   1019 ****        34.5000  29.7500  -3.0000 Du        
   1020 ****        34.5000  30.0000  -3.0000 Du        
   1021 ****        34.7500  29.2500  -3.2500 Du        
   1022 ****        34.7500  29.2500  -3.0000 Du        
   1023 ****        34.7500  29.5000  -3.5000 Du        
   1024 ****        34.7500  29.5000  -3.2500 Du        
   1025 ****        34.7500  29.5000  -3.0000 Du        
   1026 ****        34.7500  29.7500  -3.7500 Du        
   1027 ****        34.7500  29.7500  -3.5000 Du        
   1028 ****        34.7500  29.7500  -3.2500 Du        
   1029 ****        34.7500  29.7500  -3.0000 Du        
   1030 ****        34.7500  30.0000  -3.2500 Du        
   1031 ****        34.7500  30.0000  -3.0000 Du        
   1032 ****        35.0000  29.5000  -3.5000 Du        
   1033 ****        35.0000  29.5000  -3.2500 Du        
   1034 ****        35.0000  29.5000  -3.0000 Du        
   1035 ****        35.0000  29.7500  -4.0000 Du        
   1036 ****        35.0000  29.7500  -3.7500 Du        
   1037 ****        35.0000  29.7500  -3.5000 Du        
   1038 ****        35.0000  29.7500  -3.2500 Du        
   1039 ****        35.0000  29.7500  -3.0000 Du        
   1040 ****        35.0000  30.0000  -3.7500 Du        
   1041 ****        35.0000  30.0000  -3.5000 Du        
   1042 ****        35.0000  30.0000  -3.2500 Du        
   1043 ****        35.0000  30.0000  -3.0000 Du        
   1044 ****        35.0000  30.2500  -3.2500 Du        
   1045 ****        35.2500  29.5000  -3.5000 Du        
   1046 ****        35.2500  29.5000  -3.2500 Du        
   1047 ****        35.2500  29.7500  -4.0000 Du        
   1048 ****        35.2500  29.7500  -3.7500 Du        
   1049 ****        35.2500  29.7500  -3.5000 Du        
   1050 ****        35.2500  29.7500  -3.2500 Du        
   1051 ****        35.2500  29.7500  -3.0000 Du        
   1052 ****        35.2500  30.0000  -3.7500 Du        
   1053 ****        35.2500  30.0000  -3.5000 Du        
   1054 ****        35.2500  30.0000  -3.2500 Du        
   1055 ****        35.2500  30.0000  -3.0000 Du        
   1056 ****        35.2500  30.2500  -3.5000 Du        
   1057 ****        35.2500  30.2500  -3.2500 Du        
   1058 ****        35.2500  30.2500  -3.0000 Du        
   1059 ****        35.5000  29.7500  -4.2500 Du        
   1060 ****        35.5000  29.7500  -4.0000 Du        
   1061 ****        35.5000  29.7500  -3.7500 Du        
   1062 ****        35.5000  29.7500  -3.5000 Du        
   1063 ****        35.5000  29.7500  -3.2500 Du        
   1064 ****        35.5000  30.0000  -4.0000 Du        
   1065 ****        35.5000  30.0000  -3.7500 Du        
   1066 ****        35.5000  30.0000  -3.5000 Du        
   1067 ****        35.5000  30.0000  -3.2500 Du        
   1068 ****        35.5000  30.2500  -3.7500 Du        
   1069 ****        35.5000  30.2500  -3.5000 Du        
   1070 ****        35.5000  30.2500  -3.2500 Du        
