#       Name:                CT1002167954
#       Creating user name   hitesit
#       Creation time:       Sun Apr 16 22:50:50 2023


#       File generated by GOLD software.
#

@<TRIPOS>MOLECULE
CT1002167954|ligand_prepared|mol2|1|dock7
    29    30     1
SMALL
NO_CHARGES


@<TRIPOS>ATOM
      1 C1          30.2464  27.7765  -4.3373 C.3            1 RES1               0.0000
      2 C2          30.9271  26.4915  -3.8233 C.ar           1 RES1               0.0000
      3 C3          31.3636  28.6704  -4.8675 C.2            1 RES1               0.0000
      4 C4          29.2466  27.3339  -5.3999 C.2            1 RES1               0.0000
      5 C5          29.4722  28.5526  -3.2466 C.3            1 RES1               0.0000
      6 C6          30.2090  25.5564  -3.0839 C.ar           1 RES1               0.0000
      7 C7          32.2692  26.2265  -4.0823 C.ar           1 RES1               0.0000
      8 N8          31.4845  28.7955  -6.2202 N.am           1 RES1               0.0000
      9 O9          32.1511  29.2255  -4.1113 O.2            1 RES1               0.0000
     10 N10         29.4702  27.7243  -6.6942 N.am           1 RES1               0.0000
     11 O11         28.2762  26.6367  -5.1306 O.2            1 RES1               0.0000
     12 C12         28.9845  29.9207  -3.6969 C.3            1 RES1               0.0000
     13 C13         30.8100  24.3969  -2.6227 C.ar           1 RES1               0.0000
     14 C14         32.8683  25.0664  -3.6199 C.ar           1 RES1               0.0000
     15 C15         30.5604  28.4092  -7.1574 C.2            1 RES1               0.0000
     16 C16         32.1398  24.1509  -2.8906 C.ar           1 RES1               0.0000
     17 O17         30.7173  28.6765  -8.3453 O.2            1 RES1               0.0000
     18 H18         28.6072  27.9546  -2.9344 H              1 RES1               0.0000
     19 H19         30.1244  28.6801  -2.3737 H              1 RES1               0.0000
     20 H20         29.1622  25.7340  -2.8611 H              1 RES1               0.0000
     21 H21         32.8622  26.9330  -4.6531 H              1 RES1               0.0000
     22 H22         32.3413  29.2150  -6.5669 H              1 RES1               0.0000
     23 H23         28.7578  27.4820  -7.3756 H              1 RES1               0.0000
     24 H24         28.4481  30.4224  -2.8943 H              1 RES1               0.0000
     25 H25         29.8213  30.5510  -3.9909 H              1 RES1               0.0000
     26 H26         28.3131  29.8298  -4.5482 H              1 RES1               0.0000
     27 H27         30.2326  23.6802  -2.0480 H              1 RES1               0.0000
     28 H28         33.9153  24.8773  -3.8326 H              1 RES1               0.0000
     29 H29         32.6102  23.2424  -2.5295 H              1 RES1               0.0000
@<TRIPOS>BOND
    1    1    2 1     
    2    1    3 1     
    3    1    4 1     
    4    1    5 1     
    5    2    6 ar    
    6    2    7 ar    
    7    3    8 1     
    8    3    9 2     
    9    4   10 1     
   10    4   11 2     
   11    5   12 1     
   12    5   18 1     
   13    5   19 1     
   14    6   13 ar    
   15    6   20 1     
   16    7   14 ar    
   17    7   21 1     
   18    8   15 1     
   19    8   22 1     
   20   10   15 1     
   21   10   23 1     
   22   12   24 1     
   23   12   25 1     
   24   12   26 1     
   25   13   16 ar    
   26   13   27 1     
   27   14   16 ar    
   28   14   28 1     
   29   15   17 2     
   30   16   29 1     
@<TRIPOS>SUBSTRUCTURE
      1 RES1           1
@<TRIPOS>SET
DONOR_HYDROGENS      STATIC     ATOMS    <user>   **** ""
2 22 23
ATOM$RED        STATIC     ATOMS    COLORGROUP SYSTEM
2 22 23
@<TRIPOS>COMMENT
> <Gold.Version>
2022.3.0

> <Gold.Id.Protein>
unknown|3nx8_clean|pdb

> <Gold.Protein.RotatedTorsions>
[ 1667 1658 1657 1655 ] final  127.46 input   59.99 | X-H torsion
[  510  504  502  499 ] final   19.00 input   60.04 | X-H torsion

> <Gold.Protein.ActiveResidues>
 HIS39   LEU40   ASP41   GLN42   PHE43   GLU44   ARG45   ILE46   LYS47   THR48  
 MET58   LEU59   VAL60   LYS61   HIS62   LYS63   MET71   ILE73   PHE110  ASP112 
 ASN115  TYR117  VAL119  GLU333  GLU334  ILE335  ARG336  VAL337 

> <Gold.Protein.RotatedAtoms>
   26.2124   19.6847   -8.0707 H   0  0  0  0  0  0  0  0  0  0  0  0  # atno 510  bound_to 504 
   28.0779   26.2032    2.0560 H   0  0  0  0  0  0  0  0  0  0  0  0  # atno 1667 bound_to 1658
   27.4926   26.3631    3.5656 LP  0  0  0  0  0  0  0  0  0  0  0  0  # atno 5360 bound_to 1658
   26.6828   25.4717    2.4627 LP  0  0  0  0  0  0  0  0  0  0  0  0  # atno 5361 bound_to 1658

> <Gold.Score>
     Fitness  S(hb_ext) S(vdw_ext)  S(hb_int)    S(int)      intcor
     33.36       5.94      21.15       0.00      -1.65      -0.76

> <Gold.Goldscore.Fitness>
33.3637

> <Gold.Goldscore.Internal.Vdw>
-1.9130

> <Gold.Goldscore.Internal.Torsion>
-0.4984

> <Gold.Goldscore.External.Vdw>
21.1455

> <Gold.Goldscore.Internal.HBond>
0.0000

> <Gold.Goldscore.External.HBond>
5.9414

> <Gold.Goldscore.Internal.Correction>
-0.7585

> <Gold.Goldscore.Hbonds>
donor molecule, donor type, donor heavy atom, donor atom, acceptor molecule, acceptor atom, score
      P1  H   443   456       L1    11  0.99

> <Gold.Goldscore.Internal.Vdw.Weighted>
-1.9130

> <Gold.Goldscore.Internal.Torsion.Weighted>
-0.4984

> <Gold.Goldscore.External.Vdw.Weighted>
29.0751

> <Gold.Goldscore.Internal.HBond.Weighted>
0.0000

> <Gold.Goldscore.External.HBond.Weighted>
5.9414

> <Gold.Goldscore.Internal.Correction.Weighted>
-0.7585

> <Gold.Rescore>
     Score     S(PLP)   S(hbond)     S(cho)   S(metal)  DE(clash)   DE(tors)     intcor
     38.17     -37.05       0.99       0.00       0.00       0.39       0.73       ----

> <Gold.PLP.Fitness>
38.1739

> <Gold.PLP.PLP>
-37.0506

> <Gold.PLP.part.hbond>
-1.0000

> <Gold.PLP.part.metal>
0.0000

> <Gold.PLP.part.buried>
2.4201

> <Gold.PLP.part.nonpolar>
-38.8682

> <Gold.PLP.part.repulsive>
0.1218

> <Gold.PLP.ligand.clash>
0.3927

> <Gold.PLP.ligand.torsion>
0.7289

> <Gold.PLP.Chemscore.Hbond>
0.9913

> <Gold.PLP.Chemscore.CHOScore>
0.0000

> <Gold.PLP.Chemscore.Metal>
0.0000

> <Gold.Chemscore.Hbonds>
donor molecule, donor type, donor heavy atom, donor atom, acceptor molecule, acceptor atom, score
      P1  H   443   456       L1    11  0.59

> <Gold.PLP.Chemscore.Internal.Correction>
   9.000000E+99

