#       Name:                CT1002167954
#       Creating user name   hitesit
#       Creation time:       Sun Apr 16 22:50:45 2023


#       File generated by GOLD software.
#

@<TRIPOS>MOLECULE
CT1002167954|ligand_prepared|mol2|1|dock1
    29    30     1
SMALL
NO_CHARGES


@<TRIPOS>ATOM
      1 C1          31.8886  27.7392  -3.8601 C.3            1 RES1               0.0000
      2 C2          31.6875  26.2381  -3.5687 C.ar           1 RES1               0.0000
      3 C3          32.7538  28.2834  -2.7271 C.2            1 RES1               0.0000
      4 C4          32.5404  27.8231  -5.2359 C.2            1 RES1               0.0000
      5 C5          30.5719  28.5489  -3.9050 C.3            1 RES1               0.0000
      6 C6          32.7714  25.3652  -3.5667 C.ar           1 RES1               0.0000
      7 C7          30.4268  25.7128  -3.2979 C.ar           1 RES1               0.0000
      8 N8          34.0571  28.5695  -3.0088 N.am           1 RES1               0.0000
      9 O9          32.3097  28.4221  -1.5941 O.2            1 RES1               0.0000
     10 N10         33.8178  28.3131  -5.3125 N.am           1 RES1               0.0000
     11 O11         31.9653  27.4538  -6.2524 O.2            1 RES1               0.0000
     12 C12         30.7671  30.0188  -4.2417 C.3            1 RES1               0.0000
     13 C13         32.6016  24.0166  -3.3008 C.ar           1 RES1               0.0000
     14 C14         30.2591  24.3638  -3.0325 C.ar           1 RES1               0.0000
     15 C15         34.6169  28.6614  -4.2578 C.2            1 RES1               0.0000
     16 C16         31.3456  23.5151  -3.0331 C.ar           1 RES1               0.0000
     17 O17         35.7748  29.0423  -4.4034 O.2            1 RES1               0.0000
     18 H18         29.9070  28.1005  -4.6535 H              1 RES1               0.0000
     19 H19         30.0772  28.4730  -2.9288 H              1 RES1               0.0000
     20 H20         33.7669  25.7412  -3.7776 H              1 RES1               0.0000
     21 H21         29.5575  26.3616  -3.2931 H              1 RES1               0.0000
     22 H22         34.6725  28.7300  -2.2177 H              1 RES1               0.0000
     23 H23         34.2092  28.4291  -6.2418 H              1 RES1               0.0000
     24 H24         29.8125  30.5404  -4.2602 H              1 RES1               0.0000
     25 H25         31.4033  30.5025  -3.5034 H              1 RES1               0.0000
     26 H26         31.2341  30.1322  -5.2179 H              1 RES1               0.0000
     27 H27         33.4596  23.3525  -3.3038 H              1 RES1               0.0000
     28 H28         29.2688  23.9734  -2.8229 H              1 RES1               0.0000
     29 H29         31.2129  22.4586  -2.8244 H              1 RES1               0.0000
@<TRIPOS>BOND
    1    1    2 1     
    2    1    3 1     
    3    1    4 1     
    4    1    5 1     
    5    2    6 ar    
    6    2    7 ar    
    7    3    8 1     
    8    3    9 2     
    9    4   10 1     
   10    4   11 2     
   11    5   12 1     
   12    5   18 1     
   13    5   19 1     
   14    6   13 ar    
   15    6   20 1     
   16    7   14 ar    
   17    7   21 1     
   18    8   15 1     
   19    8   22 1     
   20   10   15 1     
   21   10   23 1     
   22   12   24 1     
   23   12   25 1     
   24   12   26 1     
   25   13   16 ar    
   26   13   27 1     
   27   14   16 ar    
   28   14   28 1     
   29   15   17 2     
   30   16   29 1     
@<TRIPOS>SUBSTRUCTURE
      1 RES1           1
@<TRIPOS>SET
DONOR_HYDROGENS      STATIC     ATOMS    <user>   **** ""
2 22 23
ATOM$RED        STATIC     ATOMS    COLORGROUP SYSTEM
2 22 23
@<TRIPOS>COMMENT
> <Gold.Version>
2022.3.0

> <Gold.Id.Protein>
unknown|3nx8_clean|pdb

> <Gold.Protein.RotatedTorsions>
[ 1667 1658 1657 1655 ] final -140.20 input   59.99 | X-H torsion
[  510  504  502  499 ] final  -35.20 input   60.04 | X-H torsion

> <Gold.Protein.ActiveResidues>
 HIS39   LEU40   ASP41   GLN42   PHE43   GLU44   ARG45   ILE46   LYS47   THR48  
 MET58   LEU59   VAL60   LYS61   HIS62   LYS63   MET71   ILE73   PHE110  ASP112 
 ASN115  TYR117  VAL119  GLU333  GLU334  ILE335  ARG336  VAL337 

> <Gold.Protein.RotatedAtoms>
   26.0298   19.3289   -7.3172 H   0  0  0  0  0  0  0  0  0  0  0  0  # atno 510  bound_to 504 
   26.9297   25.4936    2.0882 H   0  0  0  0  0  0  0  0  0  0  0  0  # atno 1667 bound_to 1658
   28.2229   26.4236    2.4195 LP  0  0  0  0  0  0  0  0  0  0  0  0  # atno 5360 bound_to 1658
   27.1093   26.1262    3.5763 LP  0  0  0  0  0  0  0  0  0  0  0  0  # atno 5361 bound_to 1658

> <Gold.Score>
     Fitness  S(hb_ext) S(vdw_ext)  S(hb_int)    S(int)      intcor
     36.24       0.03      26.35       0.00      -0.02      -0.76

> <Gold.Goldscore.Fitness>
36.2357

> <Gold.Goldscore.Internal.Vdw>
-0.4041

> <Gold.Goldscore.Internal.Torsion>
-0.3735

> <Gold.Goldscore.External.Vdw>
26.3475

> <Gold.Goldscore.Internal.HBond>
0.0000

> <Gold.Goldscore.External.HBond>
0.0269

> <Gold.Goldscore.Internal.Correction>
-0.7585

> <Gold.Goldscore.Hbonds>
donor molecule, donor type, donor heavy atom, donor atom, acceptor molecule, acceptor atom, score
      P1  H   433   447       L1    11  0.01

> <Gold.Goldscore.Internal.Vdw.Weighted>
-0.4041

> <Gold.Goldscore.Internal.Torsion.Weighted>
-0.3735

> <Gold.Goldscore.External.Vdw.Weighted>
36.2278

> <Gold.Goldscore.Internal.HBond.Weighted>
0.0000

> <Gold.Goldscore.External.HBond.Weighted>
0.0269

> <Gold.Goldscore.Internal.Correction.Weighted>
-0.7585

> <Gold.Rescore>
     Score     S(PLP)   S(hbond)     S(cho)   S(metal)  DE(clash)   DE(tors)     intcor
     36.42     -33.88       0.96       0.00       0.00       0.00       0.17       ----

> <Gold.PLP.Fitness>
36.4246

> <Gold.PLP.PLP>
-33.8823

> <Gold.PLP.part.hbond>
-2.7240

> <Gold.PLP.part.metal>
0.0000

> <Gold.PLP.part.buried>
1.6762

> <Gold.PLP.part.nonpolar>
-34.4959

> <Gold.PLP.part.repulsive>
1.3449

> <Gold.PLP.ligand.clash>
0.0000

> <Gold.PLP.ligand.torsion>
0.1670

> <Gold.PLP.Chemscore.Hbond>
0.9588

> <Gold.PLP.Chemscore.CHOScore>
0.0000

> <Gold.PLP.Chemscore.Metal>
0.0000

> <Gold.Chemscore.Hbonds>
donor molecule, donor type, donor heavy atom, donor atom, acceptor molecule, acceptor atom, score
      P1  H   433   447       L1    11  0.21

> <Gold.PLP.Chemscore.Internal.Correction>
   9.000000E+99

