#       Name:                CT1002167954
#       Creating user name   hitesit
#       Creation time:       Sun Apr 16 22:50:47 2023


#       File generated by GOLD software.
#

@<TRIPOS>MOLECULE
CT1002167954|ligand_prepared|mol2|1|dock4
    29    30     1
SMALL
NO_CHARGES


@<TRIPOS>ATOM
      1 C1          30.4428  28.1529  -4.1010 C.3            1 RES1               0.0000
      2 C2          31.0374  26.8016  -3.6546 C.ar           1 RES1               0.0000
      3 C3          30.1822  28.0323  -5.5996 C.2            1 RES1               0.0000
      4 C4          29.1846  28.3621  -3.2656 C.2            1 RES1               0.0000
      5 C5          31.3814  29.3583  -3.8611 C.3            1 RES1               0.0000
      6 C6          30.2480  25.6559  -3.6230 C.ar           1 RES1               0.0000
      7 C7          32.3718  26.6848  -3.2748 C.ar           1 RES1               0.0000
      8 N8          28.8874  27.9005  -6.0071 N.am           1 RES1               0.0000
      9 O9          31.1017  28.0132  -6.4085 O.2            1 RES1               0.0000
     10 N10         27.9772  28.3678  -3.9136 N.am           1 RES1               0.0000
     11 O11         29.2266  28.5055  -2.0499 O.2            1 RES1               0.0000
     12 C12         30.7481  30.7024  -4.1846 C.3            1 RES1               0.0000
     13 C13         30.7743  24.4369  -3.2289 C.ar           1 RES1               0.0000
     14 C14         32.8960  25.4648  -2.8807 C.ar           1 RES1               0.0000
     15 C15         27.7692  28.1158  -5.2423 C.2            1 RES1               0.0000
     16 C16         32.0985  24.3404  -2.8580 C.ar           1 RES1               0.0000
     17 O17         26.6481  28.0845  -5.7416 O.2            1 RES1               0.0000
     18 H18         31.6935  29.3590  -2.8095 H              1 RES1               0.0000
     19 H19         32.2803  29.2341  -4.4775 H              1 RES1               0.0000
     20 H20         29.2031  25.7130  -3.9091 H              1 RES1               0.0000
     21 H21         33.0176  27.5562  -3.2839 H              1 RES1               0.0000
     22 H22         28.7366  27.6154  -6.9696 H              1 RES1               0.0000
     23 H23         27.1575  28.5796  -3.3536 H              1 RES1               0.0000
     24 H24         31.4489  31.5136  -3.9989 H              1 RES1               0.0000
     25 H25         30.4484  30.7461  -5.2296 H              1 RES1               0.0000
     26 H26         29.8651  30.8703  -3.5714 H              1 RES1               0.0000
     27 H27         30.1421  23.5552  -3.2114 H              1 RES1               0.0000
     28 H28         33.9386  25.3936  -2.5890 H              1 RES1               0.0000
     29 H29         32.5107  23.3852  -2.5496 H              1 RES1               0.0000
@<TRIPOS>BOND
    1    1    2 1     
    2    1    3 1     
    3    1    4 1     
    4    1    5 1     
    5    2    6 ar    
    6    2    7 ar    
    7    3    8 1     
    8    3    9 2     
    9    4   10 1     
   10    4   11 2     
   11    5   12 1     
   12    5   18 1     
   13    5   19 1     
   14    6   13 ar    
   15    6   20 1     
   16    7   14 ar    
   17    7   21 1     
   18    8   15 1     
   19    8   22 1     
   20   10   15 1     
   21   10   23 1     
   22   12   24 1     
   23   12   25 1     
   24   12   26 1     
   25   13   16 ar    
   26   13   27 1     
   27   14   16 ar    
   28   14   28 1     
   29   15   17 2     
   30   16   29 1     
@<TRIPOS>SUBSTRUCTURE
      1 RES1           1
@<TRIPOS>SET
DONOR_HYDROGENS      STATIC     ATOMS    <user>   **** ""
2 22 23
ATOM$RED        STATIC     ATOMS    COLORGROUP SYSTEM
2 22 23
@<TRIPOS>COMMENT
> <Gold.Version>
2022.3.0

> <Gold.Id.Protein>
unknown|3nx8_clean|pdb

> <Gold.Protein.RotatedTorsions>
[ 1667 1658 1657 1655 ] final  149.53 input   59.99 | X-H torsion
[  510  504  502  499 ] final  130.82 input   60.04 | X-H torsion

> <Gold.Protein.ActiveResidues>
 HIS39   LEU40   ASP41   GLN42   PHE43   GLU44   ARG45   ILE46   LYS47   THR48  
 MET58   LEU59   VAL60   LYS61   HIS62   LYS63   MET71   ILE73   PHE110  ASP112 
 ASN115  TYR117  VAL119  GLU333  GLU334  ILE335  ARG336  VAL337 

> <Gold.Protein.RotatedAtoms>
   24.7633   19.7116   -8.6230 H   0  0  0  0  0  0  0  0  0  0  0  0  # atno 510  bound_to 504 
   27.8553   25.9972    1.8652 H   0  0  0  0  0  0  0  0  0  0  0  0  # atno 1667 bound_to 1658
   27.7907   26.4970    3.4122 LP  0  0  0  0  0  0  0  0  0  0  0  0  # atno 5360 bound_to 1658
   26.6089   25.5454    2.8083 LP  0  0  0  0  0  0  0  0  0  0  0  0  # atno 5361 bound_to 1658

> <Gold.Score>
     Fitness  S(hb_ext) S(vdw_ext)  S(hb_int)    S(int)      intcor
     31.60       0.48      22.65       0.00      -0.02      -0.76

> <Gold.Goldscore.Fitness>
31.5997

> <Gold.Goldscore.Internal.Vdw>
-0.3712

> <Gold.Goldscore.Internal.Torsion>
-0.4089

> <Gold.Goldscore.External.Vdw>
22.6493

> <Gold.Goldscore.Internal.HBond>
0.0000

> <Gold.Goldscore.External.HBond>
0.4785

> <Gold.Goldscore.Internal.Correction>
-0.7585

> <Gold.Goldscore.Hbonds>
donor molecule, donor type, donor heavy atom, donor atom, acceptor molecule, acceptor atom, score
      P1  H  5107  5115       L1    17  0.12
      L1  H    10    23       P1  5110  0.12

> <Gold.Goldscore.Internal.Vdw.Weighted>
-0.3712

> <Gold.Goldscore.Internal.Torsion.Weighted>
-0.4089

> <Gold.Goldscore.External.Vdw.Weighted>
31.1428

> <Gold.Goldscore.Internal.HBond.Weighted>
0.0000

> <Gold.Goldscore.External.HBond.Weighted>
0.4785

> <Gold.Goldscore.Internal.Correction.Weighted>
-0.7585

> <Gold.Rescore>
     Score     S(PLP)   S(hbond)     S(cho)   S(metal)  DE(clash)   DE(tors)     intcor
     37.32     -38.07       0.11       0.00       0.00       0.00       0.55       ----

> <Gold.PLP.Fitness>
37.3175

> <Gold.PLP.PLP>
-38.0739

> <Gold.PLP.part.hbond>
-1.0000

> <Gold.PLP.part.metal>
0.0000

> <Gold.PLP.part.buried>
-0.9257

> <Gold.PLP.part.nonpolar>
-37.3437

> <Gold.PLP.part.repulsive>
0.1806

> <Gold.PLP.ligand.clash>
0.0000

> <Gold.PLP.ligand.torsion>
0.5481

> <Gold.PLP.Chemscore.Hbond>
0.1133

> <Gold.PLP.Chemscore.CHOScore>
0.0000

> <Gold.PLP.Chemscore.Metal>
0.0000

> <Gold.PLP.Chemscore.Internal.Correction>
   9.000000E+99

