#       Name:                CT1002167954
#       Creating user name   hitesit
#       Creation time:       Sun Apr 16 22:50:51 2023


#       File generated by GOLD software.
#

@<TRIPOS>MOLECULE
CT1002167954|ligand_prepared|mol2|1|dock8
    29    30     1
SMALL
NO_CHARGES


@<TRIPOS>ATOM
      1 C1          31.4268  27.5479  -3.7454 C.3            1 RES1               0.0000
      2 C2          31.3403  26.0390  -3.4380 C.ar           1 RES1               0.0000
      3 C3          29.9894  28.0378  -3.8946 C.2            1 RES1               0.0000
      4 C4          32.1811  28.1782  -2.5799 C.2            1 RES1               0.0000
      5 C5          32.1956  27.8775  -5.0461 C.3            1 RES1               0.0000
      6 C6          32.4400  25.2105  -3.6403 C.ar           1 RES1               0.0000
      7 C7          30.1706  25.4626  -2.9500 C.ar           1 RES1               0.0000
      8 N8          29.4688  28.7870  -2.8809 N.am           1 RES1               0.0000
      9 O9          29.3101  27.7382  -4.8688 O.2            1 RES1               0.0000
     10 N10         31.5018  29.0539  -1.7739 N.am           1 RES1               0.0000
     11 O11         33.3527  27.9117  -2.3423 O.2            1 RES1               0.0000
     12 C12         32.0949  29.3358  -5.4651 C.3            1 RES1               0.0000
     13 C13         32.3738  23.8553  -3.3620 C.ar           1 RES1               0.0000
     14 C14         30.1065  24.1071  -2.6726 C.ar           1 RES1               0.0000
     15 C15         30.1713  29.3633  -1.8533 C.2            1 RES1               0.0000
     16 C16         31.2073  23.3028  -2.8777 C.ar           1 RES1               0.0000
     17 O17         29.6197  30.1184  -1.0579 O.2            1 RES1               0.0000
     18 H18         33.2533  27.6228  -4.9053 H              1 RES1               0.0000
     19 H19         31.8045  27.2497  -5.8562 H              1 RES1               0.0000
     20 H20         33.3657  25.6269  -4.0232 H              1 RES1               0.0000
     21 H21         29.2918  26.0758  -2.7820 H              1 RES1               0.0000
     22 H22         28.4642  28.9321  -2.8875 H              1 RES1               0.0000
     23 H23         32.0377  29.5182  -1.0476 H              1 RES1               0.0000
     24 H24         32.6517  29.5127  -6.3829 H              1 RES1               0.0000
     25 H25         31.0581  29.6167  -5.6382 H              1 RES1               0.0000
     26 H26         32.4983  29.9876  -4.6930 H              1 RES1               0.0000
     27 H27         33.2425  23.2264  -3.5265 H              1 RES1               0.0000
     28 H28         29.1861  23.6764  -2.2921 H              1 RES1               0.0000
     29 H29         31.1558  22.2412  -2.6594 H              1 RES1               0.0000
@<TRIPOS>BOND
    1    1    2 1     
    2    1    3 1     
    3    1    4 1     
    4    1    5 1     
    5    2    6 ar    
    6    2    7 ar    
    7    3    8 1     
    8    3    9 2     
    9    4   10 1     
   10    4   11 2     
   11    5   12 1     
   12    5   18 1     
   13    5   19 1     
   14    6   13 ar    
   15    6   20 1     
   16    7   14 ar    
   17    7   21 1     
   18    8   15 1     
   19    8   22 1     
   20   10   15 1     
   21   10   23 1     
   22   12   24 1     
   23   12   25 1     
   24   12   26 1     
   25   13   16 ar    
   26   13   27 1     
   27   14   16 ar    
   28   14   28 1     
   29   15   17 2     
   30   16   29 1     
@<TRIPOS>SUBSTRUCTURE
      1 RES1           1
@<TRIPOS>SET
DONOR_HYDROGENS      STATIC     ATOMS    <user>   **** ""
2 22 23
ATOM$RED        STATIC     ATOMS    COLORGROUP SYSTEM
2 22 23
@<TRIPOS>COMMENT
> <Gold.Version>
2022.3.0

> <Gold.Id.Protein>
unknown|3nx8_clean|pdb

> <Gold.Protein.RotatedTorsions>
[ 1667 1658 1657 1655 ] final  129.76 input   59.99 | X-H torsion
[  510  504  502  499 ] final  128.82 input   60.04 | X-H torsion

> <Gold.Protein.ActiveResidues>
 HIS39   LEU40   ASP41   GLN42   PHE43   GLU44   ARG45   ILE46   LYS47   THR48  
 MET58   LEU59   VAL60   LYS61   HIS62   LYS63   MET71   ILE73   PHE110  ASP112 
 ASN115  TYR117  VAL119  GLU333  GLU334  ILE335  ARG336  VAL337 

> <Gold.Protein.RotatedAtoms>
   24.7897   19.7225   -8.6389 H   0  0  0  0  0  0  0  0  0  0  0  0  # atno 510  bound_to 504 
   28.0587   26.1825    2.0310 H   0  0  0  0  0  0  0  0  0  0  0  0  # atno 1667 bound_to 1658
   27.5251   26.3799    3.5553 LP  0  0  0  0  0  0  0  0  0  0  0  0  # atno 5360 bound_to 1658
   26.6697   25.4758    2.4981 LP  0  0  0  0  0  0  0  0  0  0  0  0  # atno 5361 bound_to 1658

> <Gold.Score>
     Fitness  S(hb_ext) S(vdw_ext)  S(hb_int)    S(int)      intcor
     35.12       0.00      26.32       0.00      -1.06      -0.76

> <Gold.Goldscore.Fitness>
35.1213

> <Gold.Goldscore.Internal.Vdw>
-1.3198

> <Gold.Goldscore.Internal.Torsion>
-0.5037

> <Gold.Goldscore.External.Vdw>
26.3173

> <Gold.Goldscore.Internal.HBond>
0.0000

> <Gold.Goldscore.External.HBond>
0.0000

> <Gold.Goldscore.Internal.Correction>
-0.7585

> <Gold.Goldscore.Internal.Vdw.Weighted>
-1.3198

> <Gold.Goldscore.Internal.Torsion.Weighted>
-0.5037

> <Gold.Goldscore.External.Vdw.Weighted>
36.1863

> <Gold.Goldscore.Internal.HBond.Weighted>
0.0000

> <Gold.Goldscore.External.HBond.Weighted>
0.0000

> <Gold.Goldscore.Internal.Correction.Weighted>
-0.7585

> <Gold.Rescore>
     Score     S(PLP)   S(hbond)     S(cho)   S(metal)  DE(clash)   DE(tors)     intcor
     37.34     -39.05       0.00       0.00       0.00       0.64       0.53       ----

> <Gold.PLP.Fitness>
37.3365

> <Gold.PLP.PLP>
-39.0456

> <Gold.PLP.part.hbond>
0.0000

> <Gold.PLP.part.metal>
0.0000

> <Gold.PLP.part.buried>
-3.7052

> <Gold.PLP.part.nonpolar>
-36.1352

> <Gold.PLP.part.repulsive>
0.1970

> <Gold.PLP.ligand.clash>
0.6440

> <Gold.PLP.ligand.torsion>
0.5326

> <Gold.PLP.Chemscore.Hbond>
0.0000

> <Gold.PLP.Chemscore.CHOScore>
0.0000

> <Gold.PLP.Chemscore.Metal>
0.0000

> <Gold.PLP.Chemscore.Internal.Correction>
   9.000000E+99

