#       Name:                CT1002167954
#       Creating user name   hitesit
#       Creation time:       Sun Apr 16 22:50:46 2023


#       File generated by GOLD software.
#

@<TRIPOS>MOLECULE
CT1002167954|ligand_prepared|mol2|1|dock2
    29    30     1
SMALL
NO_CHARGES


@<TRIPOS>ATOM
      1 C1          31.8137  27.6845  -3.9171 C.3            1 RES1               0.0000
      2 C2          31.6397  26.1978  -3.5454 C.ar           1 RES1               0.0000
      3 C3          32.7648  28.2767  -2.8813 C.2            1 RES1               0.0000
      4 C4          32.3540  27.7073  -5.3427 C.2            1 RES1               0.0000
      5 C5          30.4957  28.4931  -3.8927 C.3            1 RES1               0.0000
      6 C6          30.3837  25.5997  -3.5853 C.ar           1 RES1               0.0000
      7 C7          32.7241  25.4123  -3.1638 C.ar           1 RES1               0.0000
      8 N8          34.0411  28.5485  -3.2778 N.am           1 RES1               0.0000
      9 O9          32.4118  28.4653  -1.7237 O.2            1 RES1               0.0000
     10 N10         33.6202  28.1919  -5.5418 N.am           1 RES1               0.0000
     11 O11         31.7009  27.2946  -6.2932 O.2            1 RES1               0.0000
     12 C12         30.6967  29.9966  -3.9992 C.3            1 RES1               0.0000
     13 C13         30.2182  24.2640  -3.2585 C.ar           1 RES1               0.0000
     14 C14         32.5563  24.0768  -2.8372 C.ar           1 RES1               0.0000
     15 C15         34.4997  28.5850  -4.5701 C.2            1 RES1               0.0000
     16 C16         31.3042  23.5016  -2.8847 C.ar           1 RES1               0.0000
     17 O17         35.6416  28.9578  -4.8237 O.2            1 RES1               0.0000
     18 H18         29.8627  28.1617  -4.7251 H              1 RES1               0.0000
     19 H19         29.9638  28.2733  -2.9588 H              1 RES1               0.0000
     20 H20         29.5170  26.1845  -3.8748 H              1 RES1               0.0000
     21 H21         33.7182  25.8438  -3.1182 H              1 RES1               0.0000
     22 H22         34.7169  28.7426  -2.5458 H              1 RES1               0.0000
     23 H23         33.9364  28.2667  -6.5034 H              1 RES1               0.0000
     24 H24         29.7410  30.5160  -3.9772 H              1 RES1               0.0000
     25 H25         31.3013  30.3644  -3.1728 H              1 RES1               0.0000
     26 H26         31.2008  30.2534  -4.9286 H              1 RES1               0.0000
     27 H27         29.2305  23.8165  -3.2962 H              1 RES1               0.0000
     28 H28         33.4138  23.4806  -2.5429 H              1 RES1               0.0000
     29 H29         31.1744  22.4551  -2.6291 H              1 RES1               0.0000
@<TRIPOS>BOND
    1    1    2 1     
    2    1    3 1     
    3    1    4 1     
    4    1    5 1     
    5    2    6 ar    
    6    2    7 ar    
    7    3    8 1     
    8    3    9 2     
    9    4   10 1     
   10    4   11 2     
   11    5   12 1     
   12    5   18 1     
   13    5   19 1     
   14    6   13 ar    
   15    6   20 1     
   16    7   14 ar    
   17    7   21 1     
   18    8   15 1     
   19    8   22 1     
   20   10   15 1     
   21   10   23 1     
   22   12   24 1     
   23   12   25 1     
   24   12   26 1     
   25   13   16 ar    
   26   13   27 1     
   27   14   16 ar    
   28   14   28 1     
   29   15   17 2     
   30   16   29 1     
@<TRIPOS>SUBSTRUCTURE
      1 RES1           1
@<TRIPOS>SET
DONOR_HYDROGENS      STATIC     ATOMS    <user>   **** ""
2 22 23
ATOM$RED        STATIC     ATOMS    COLORGROUP SYSTEM
2 22 23
@<TRIPOS>COMMENT
> <Gold.Version>
2022.3.0

> <Gold.Id.Protein>
unknown|3nx8_clean|pdb

> <Gold.Protein.RotatedTorsions>
[ 1667 1658 1657 1655 ] final -116.80 input   59.99 | X-H torsion
[  510  504  502  499 ] final -117.39 input   60.04 | X-H torsion

> <Gold.Protein.ActiveResidues>
 HIS39   LEU40   ASP41   GLN42   PHE43   GLU44   ARG45   ILE46   LYS47   THR48  
 MET58   LEU59   VAL60   LYS61   HIS62   LYS63   MET71   ILE73   PHE110  ASP112 
 ASN115  TYR117  VAL119  GLU333  GLU334  ILE335  ARG336  VAL337 

> <Gold.Protein.RotatedAtoms>
   24.8261   19.0997   -7.1996 H   0  0  0  0  0  0  0  0  0  0  0  0  # atno 510  bound_to 504 
   26.7166   25.4685    2.4013 H   0  0  0  0  0  0  0  0  0  0  0  0  # atno 1667 bound_to 1658
   28.1144   26.2444    2.0996 LP  0  0  0  0  0  0  0  0  0  0  0  0  # atno 5360 bound_to 1658
   27.4324   26.3307    3.5808 LP  0  0  0  0  0  0  0  0  0  0  0  0  # atno 5361 bound_to 1658

> <Gold.Score>
     Fitness  S(hb_ext) S(vdw_ext)  S(hb_int)    S(int)      intcor
     34.97       0.05      25.86       0.00      -0.64      -0.76

> <Gold.Goldscore.Fitness>
34.9681

> <Gold.Goldscore.Internal.Vdw>
-0.8419

> <Gold.Goldscore.Internal.Torsion>
-0.5597

> <Gold.Goldscore.External.Vdw>
25.8633

> <Gold.Goldscore.Internal.HBond>
0.0000

> <Gold.Goldscore.External.HBond>
0.0492

> <Gold.Goldscore.Internal.Correction>
-0.7585

> <Gold.Goldscore.Hbonds>
donor molecule, donor type, donor heavy atom, donor atom, acceptor molecule, acceptor atom, score
      P1  H   433   447       L1    11  0.02

> <Gold.Goldscore.Internal.Vdw.Weighted>
-0.8419

> <Gold.Goldscore.Internal.Torsion.Weighted>
-0.5597

> <Gold.Goldscore.External.Vdw.Weighted>
35.5620

> <Gold.Goldscore.Internal.HBond.Weighted>
0.0000

> <Gold.Goldscore.External.HBond.Weighted>
0.0492

> <Gold.Goldscore.Internal.Correction.Weighted>
-0.7585

> <Gold.Rescore>
     Score     S(PLP)   S(hbond)     S(cho)   S(metal)  DE(clash)   DE(tors)     intcor
     37.24     -34.25       1.00       0.00       0.00       0.00       0.00       ----

> <Gold.PLP.Fitness>
37.2440

> <Gold.PLP.PLP>
-34.2529

> <Gold.PLP.part.hbond>
-1.9763

> <Gold.PLP.part.metal>
0.0000

> <Gold.PLP.part.buried>
1.2172

> <Gold.PLP.part.nonpolar>
-34.1193

> <Gold.PLP.part.repulsive>
0.4153

> <Gold.PLP.ligand.clash>
0.0000

> <Gold.PLP.ligand.torsion>
0.0045

> <Gold.PLP.Chemscore.Hbond>
1.0000

> <Gold.PLP.Chemscore.CHOScore>
0.0000

> <Gold.PLP.Chemscore.Metal>
0.0000

> <Gold.Chemscore.Hbonds>
donor molecule, donor type, donor heavy atom, donor atom, acceptor molecule, acceptor atom, score
      P1  H   433   447       L1    11  0.03

> <Gold.PLP.Chemscore.Internal.Correction>
   9.000000E+99

