#       Name:                CT1002167954
#       Creating user name   hitesit
#       Creation time:       Sun Apr 16 22:50:48 2023


#       File generated by GOLD software.
#

@<TRIPOS>MOLECULE
CT1002167954|ligand_prepared|mol2|1|dock5
    29    30     1
SMALL
NO_CHARGES


@<TRIPOS>ATOM
      1 C1          31.9516  27.5998  -3.7001 C.3            1 RES1               0.0000
      2 C2          31.7192  26.1014  -3.4179 C.ar           1 RES1               0.0000
      3 C3          30.5698  28.2209  -3.8821 C.2            1 RES1               0.0000
      4 C4          32.7257  28.1440  -2.5045 C.2            1 RES1               0.0000
      5 C5          32.7850  27.8739  -4.9736 C.3            1 RES1               0.0000
      6 C6          30.4611  25.6373  -3.0458 C.ar           1 RES1               0.0000
      7 C7          32.7506  25.1726  -3.5281 C.ar           1 RES1               0.0000
      8 N8          30.0901  29.0018  -2.8722 N.am           1 RES1               0.0000
      9 O9          29.8948  27.9967  -4.8793 O.2            1 RES1               0.0000
     10 N10         32.1057  29.0680  -1.7048 N.am           1 RES1               0.0000
     11 O11         33.8608  27.7685  -2.2382 O.2            1 RES1               0.0000
     12 C12         32.8682  29.3455  -5.3470 C.3            1 RES1               0.0000
     13 C13         30.2413  24.2929  -2.7956 C.ar           1 RES1               0.0000
     14 C14         32.5287  23.8286  -3.2772 C.ar           1 RES1               0.0000
     15 C15         30.8118  29.4987  -1.8168 C.2            1 RES1               0.0000
     16 C16         31.2746  23.3877  -2.9116 C.ar           1 RES1               0.0000
     17 O17         30.3082  30.2912  -1.0258 O.2            1 RES1               0.0000
     18 H18         33.8013  27.4906  -4.8199 H              1 RES1               0.0000
     19 H19         32.3415  27.3216  -5.8114 H              1 RES1               0.0000
     20 H20         29.6364  26.3352  -2.9470 H              1 RES1               0.0000
     21 H21         33.7456  25.4969  -3.8133 H              1 RES1               0.0000
     22 H22         29.1035  29.2382  -2.9047 H              1 RES1               0.0000
     23 H23         32.6602  29.4723  -0.9569 H              1 RES1               0.0000
     24 H24         33.4638  29.4820  -6.2472 H              1 RES1               0.0000
     25 H25         31.8765  29.7533  -5.5318 H              1 RES1               0.0000
     26 H26         33.3276  29.9212  -4.5462 H              1 RES1               0.0000
     27 H27         29.2528  23.9511  -2.5068 H              1 RES1               0.0000
     28 H28         33.3450  23.1198  -3.3691 H              1 RES1               0.0000
     29 H29         31.1021  22.3345  -2.7159 H              1 RES1               0.0000
@<TRIPOS>BOND
    1    1    2 1     
    2    1    3 1     
    3    1    4 1     
    4    1    5 1     
    5    2    6 ar    
    6    2    7 ar    
    7    3    8 1     
    8    3    9 2     
    9    4   10 1     
   10    4   11 2     
   11    5   12 1     
   12    5   18 1     
   13    5   19 1     
   14    6   13 ar    
   15    6   20 1     
   16    7   14 ar    
   17    7   21 1     
   18    8   15 1     
   19    8   22 1     
   20   10   15 1     
   21   10   23 1     
   22   12   24 1     
   23   12   25 1     
   24   12   26 1     
   25   13   16 ar    
   26   13   27 1     
   27   14   16 ar    
   28   14   28 1     
   29   15   17 2     
   30   16   29 1     
@<TRIPOS>SUBSTRUCTURE
      1 RES1           1
@<TRIPOS>SET
DONOR_HYDROGENS      STATIC     ATOMS    <user>   **** ""
2 22 23
ATOM$RED        STATIC     ATOMS    COLORGROUP SYSTEM
2 22 23
@<TRIPOS>COMMENT
> <Gold.Version>
2022.3.0

> <Gold.Id.Protein>
unknown|3nx8_clean|pdb

> <Gold.Protein.RotatedTorsions>
[ 1667 1658 1657 1655 ] final -110.92 input   59.99 | X-H torsion
[  510  504  502  499 ] final -153.60 input   60.04 | X-H torsion

> <Gold.Protein.ActiveResidues>
 HIS39   LEU40   ASP41   GLN42   PHE43   GLU44   ARG45   ILE46   LYS47   THR48  
 MET58   LEU59   VAL60   LYS61   HIS62   LYS63   MET71   ILE73   PHE110  ASP112 
 ASN115  TYR117  VAL119  GLU333  GLU334  ILE335  ARG336  VAL337 

> <Gold.Protein.RotatedAtoms>
   24.4543   19.2315   -7.6276 H   0  0  0  0  0  0  0  0  0  0  0  0  # atno 510  bound_to 504 
   26.6802   25.4764    2.4898 H   0  0  0  0  0  0  0  0  0  0  0  0  # atno 1667 bound_to 1658
   28.0680   26.1921    2.0328 LP  0  0  0  0  0  0  0  0  0  0  0  0  # atno 5360 bound_to 1658
   27.5154   26.3750    3.5585 LP  0  0  0  0  0  0  0  0  0  0  0  0  # atno 5361 bound_to 1658

> <Gold.Score>
     Fitness  S(hb_ext) S(vdw_ext)  S(hb_int)    S(int)      intcor
     35.09       0.00      26.60       0.00      -1.49      -0.76

> <Gold.Goldscore.Fitness>
35.0875

> <Gold.Goldscore.Internal.Vdw>
-1.7935

> <Gold.Goldscore.Internal.Torsion>
-0.4518

> <Gold.Goldscore.External.Vdw>
26.5995

> <Gold.Goldscore.Internal.HBond>
0.0000

> <Gold.Goldscore.External.HBond>
0.0000

> <Gold.Goldscore.Internal.Correction>
-0.7585

> <Gold.Goldscore.Internal.Vdw.Weighted>
-1.7935

> <Gold.Goldscore.Internal.Torsion.Weighted>
-0.4518

> <Gold.Goldscore.External.Vdw.Weighted>
36.5743

> <Gold.Goldscore.Internal.HBond.Weighted>
0.0000

> <Gold.Goldscore.External.HBond.Weighted>
0.0000

> <Gold.Goldscore.Internal.Correction.Weighted>
-0.7585

> <Gold.Rescore>
     Score     S(PLP)   S(hbond)     S(cho)   S(metal)  DE(clash)   DE(tors)     intcor
     37.77     -39.88       0.00       0.00       0.00       2.02       0.04       ----

> <Gold.PLP.Fitness>
37.7690

> <Gold.PLP.PLP>
-39.8774

> <Gold.PLP.part.hbond>
0.0000

> <Gold.PLP.part.metal>
0.0000

> <Gold.PLP.part.buried>
-4.3517

> <Gold.PLP.part.nonpolar>
-35.9419

> <Gold.PLP.part.repulsive>
0.1953

> <Gold.PLP.ligand.clash>
2.0248

> <Gold.PLP.ligand.torsion>
0.0418

> <Gold.PLP.Chemscore.Hbond>
0.0000

> <Gold.PLP.Chemscore.CHOScore>
0.0000

> <Gold.PLP.Chemscore.Metal>
0.0000

> <Gold.PLP.Chemscore.Internal.Correction>
   9.000000E+99

