#       Name:                CT1002167954
#       Creating user name   hitesit
#       Creation time:       Sun Apr 16 22:50:51 2023


#       File generated by GOLD software.
#

@<TRIPOS>MOLECULE
CT1002167954|ligand_prepared|mol2|1|dock9
    29    30     1
SMALL
NO_CHARGES


@<TRIPOS>ATOM
      1 C1          30.3889  27.3490  -4.2445 C.3            1 RES1               0.0000
      2 C2          31.1464  26.0952  -3.7618 C.ar           1 RES1               0.0000
      3 C3          29.8390  28.0258  -2.9923 C.2            1 RES1               0.0000
      4 C4          31.4023  28.1904  -5.0124 C.2            1 RES1               0.0000
      5 C5          29.2082  27.0388  -5.1939 C.3            1 RES1               0.0000
      6 C6          30.4659  25.0503  -3.1439 C.ar           1 RES1               0.0000
      7 C7          32.5227  25.9681  -3.9295 C.ar           1 RES1               0.0000
      8 N8          30.4484  29.1720  -2.5743 N.am           1 RES1               0.0000
      9 O9          28.9101  27.5399  -2.3589 O.2            1 RES1               0.0000
     10 N10         31.7497  29.4098  -4.4926 N.am           1 RES1               0.0000
     11 O11         31.9155  27.8013  -6.0542 O.2            1 RES1               0.0000
     12 C12         28.4273  28.2706  -5.6239 C.3            1 RES1               0.0000
     13 C13         31.1365  23.9180  -2.7120 C.ar           1 RES1               0.0000
     14 C14         33.1914  24.8350  -3.4966 C.ar           1 RES1               0.0000
     15 C15         31.3418  29.9254  -3.2926 C.2            1 RES1               0.0000
     16 C16         32.4994  23.8094  -2.8884 C.ar           1 RES1               0.0000
     17 O17         31.7408  31.0058  -2.8675 O.2            1 RES1               0.0000
     18 H18         29.5970  26.5371  -6.0886 H              1 RES1               0.0000
     19 H19         28.5237  26.3446  -4.6910 H              1 RES1               0.0000
     20 H20         29.3935  25.1189  -2.9943 H              1 RES1               0.0000
     21 H21         33.0878  26.7629  -4.4044 H              1 RES1               0.0000
     22 H22         30.2186  29.4993  -1.6414 H              1 RES1               0.0000
     23 H23         32.3697  29.9867  -5.0522 H              1 RES1               0.0000
     24 H24         27.6106  27.9969  -6.2887 H              1 RES1               0.0000
     25 H25         28.0050  28.7805  -4.7605 H              1 RES1               0.0000
     26 H26         29.0719  28.9718  -6.1498 H              1 RES1               0.0000
     27 H27         30.5875  23.1142  -2.2327 H              1 RES1               0.0000
     28 H28         34.2643  24.7541  -3.6370 H              1 RES1               0.0000
     29 H29         33.0245  22.9221  -2.5503 H              1 RES1               0.0000
@<TRIPOS>BOND
    1    1    2 1     
    2    1    3 1     
    3    1    4 1     
    4    1    5 1     
    5    2    6 ar    
    6    2    7 ar    
    7    3    8 1     
    8    3    9 2     
    9    4   10 1     
   10    4   11 2     
   11    5   12 1     
   12    5   18 1     
   13    5   19 1     
   14    6   13 ar    
   15    6   20 1     
   16    7   14 ar    
   17    7   21 1     
   18    8   15 1     
   19    8   22 1     
   20   10   15 1     
   21   10   23 1     
   22   12   24 1     
   23   12   25 1     
   24   12   26 1     
   25   13   16 ar    
   26   13   27 1     
   27   14   16 ar    
   28   14   28 1     
   29   15   17 2     
   30   16   29 1     
@<TRIPOS>SUBSTRUCTURE
      1 RES1           1
@<TRIPOS>SET
DONOR_HYDROGENS      STATIC     ATOMS    <user>   **** ""
2 22 23
ATOM$RED        STATIC     ATOMS    COLORGROUP SYSTEM
2 22 23
@<TRIPOS>COMMENT
> <Gold.Version>
2022.3.0

> <Gold.Id.Protein>
unknown|3nx8_clean|pdb

> <Gold.Protein.RotatedTorsions>
[ 1667 1658 1657 1655 ] final  149.34 input   59.99 | X-H torsion
[  510  504  502  499 ] final  -34.14 input   60.04 | X-H torsion

> <Gold.Protein.ActiveResidues>
 HIS39   LEU40   ASP41   GLN42   PHE43   GLU44   ARG45   ILE46   LYS47   THR48  
 MET58   LEU59   VAL60   LYS61   HIS62   LYS63   MET71   ILE73   PHE110  ASP112 
 ASN115  TYR117  VAL119  GLU333  GLU334  ILE335  ARG336  VAL337 

> <Gold.Protein.RotatedAtoms>
   26.0406   19.3356   -7.3290 H   0  0  0  0  0  0  0  0  0  0  0  0  # atno 510  bound_to 504 
   27.8576   25.9991    1.8664 H   0  0  0  0  0  0  0  0  0  0  0  0  # atno 1667 bound_to 1658
   27.7882   26.4961    3.4140 LP  0  0  0  0  0  0  0  0  0  0  0  0  # atno 5360 bound_to 1658
   26.6091   25.5444    2.8053 LP  0  0  0  0  0  0  0  0  0  0  0  0  # atno 5361 bound_to 1658

> <Gold.Score>
     Fitness  S(hb_ext) S(vdw_ext)  S(hb_int)    S(int)      intcor
     28.58       0.36      22.55       0.00      -2.79      -0.76

> <Gold.Goldscore.Fitness>
28.5809

> <Gold.Goldscore.Internal.Vdw>
-3.1697

> <Gold.Goldscore.Internal.Torsion>
-0.3768

> <Gold.Goldscore.External.Vdw>
22.5509

> <Gold.Goldscore.Internal.HBond>
0.0000

> <Gold.Goldscore.External.HBond>
0.3615

> <Gold.Goldscore.Internal.Correction>
-0.7585

> <Gold.Goldscore.Hbonds>
donor molecule, donor type, donor heavy atom, donor atom, acceptor molecule, acceptor atom, score
      P1  H   433   447       L1    11  0.18

> <Gold.Goldscore.Internal.Vdw.Weighted>
-3.1697

> <Gold.Goldscore.Internal.Torsion.Weighted>
-0.3768

> <Gold.Goldscore.External.Vdw.Weighted>
31.0075

> <Gold.Goldscore.Internal.HBond.Weighted>
0.0000

> <Gold.Goldscore.External.HBond.Weighted>
0.3615

> <Gold.Goldscore.Internal.Correction.Weighted>
-0.7585

> <Gold.Rescore>
     Score     S(PLP)   S(hbond)     S(cho)   S(metal)  DE(clash)   DE(tors)     intcor
     37.21     -38.98       0.00       0.00       0.00       0.49       0.64       ----

> <Gold.PLP.Fitness>
37.2115

> <Gold.PLP.PLP>
-38.9849

> <Gold.PLP.part.hbond>
0.0000

> <Gold.PLP.part.metal>
0.0000

> <Gold.PLP.part.buried>
-2.6104

> <Gold.PLP.part.nonpolar>
-36.5233

> <Gold.PLP.part.repulsive>
0.0505

> <Gold.PLP.ligand.clash>
0.4908

> <Gold.PLP.ligand.torsion>
0.6413

> <Gold.PLP.Chemscore.Hbond>
0.0000

> <Gold.PLP.Chemscore.CHOScore>
0.0000

> <Gold.PLP.Chemscore.Metal>
0.0000

> <Gold.PLP.Chemscore.Internal.Correction>
   9.000000E+99

