#       Name:                CT1002167954
#       Creating user name   hitesit
#       Creation time:       Sun Apr 16 22:50:52 2023


#       File generated by GOLD software.
#

@<TRIPOS>MOLECULE
CT1002167954|ligand_prepared|mol2|1|dock10
    29    30     1
SMALL
NO_CHARGES


@<TRIPOS>ATOM
      1 C1          29.9791  27.4993  -3.9474 C.3            1 RES1               0.0000
      2 C2          30.8884  26.3555  -3.4538 C.ar           1 RES1               0.0000
      3 C3          29.2263  28.0076  -2.7214 C.2            1 RES1               0.0000
      4 C4          30.9014  28.5331  -4.5839 C.2            1 RES1               0.0000
      5 C5          28.9460  27.0612  -5.0115 C.3            1 RES1               0.0000
      6 C6          32.2119  26.6039  -3.1023 C.ar           1 RES1               0.0000
      7 C7          30.4182  25.0498  -3.3423 C.ar           1 RES1               0.0000
      8 N8          29.6051  29.2099  -2.2009 N.am           1 RES1               0.0000
      9 O9          28.3402  27.3453  -2.1956 O.2            1 RES1               0.0000
     10 N10         31.0025  29.7603  -3.9825 N.am           1 RES1               0.0000
     11 O11         31.5544  28.2905  -5.5915 O.2            1 RES1               0.0000
     12 C12         28.1537  28.2140  -5.6079 C.3            1 RES1               0.0000
     13 C13         33.0347  25.5844  -2.6528 C.ar           1 RES1               0.0000
     14 C14         31.2428  24.0317  -2.8927 C.ar           1 RES1               0.0000
     15 C15         30.4197  30.1351  -2.8026 C.2            1 RES1               0.0000
     16 C16         32.5506  24.2979  -2.5473 C.ar           1 RES1               0.0000
     17 O17         30.6017  31.2388  -2.2968 O.2            1 RES1               0.0000
     18 H18         29.4718  26.5386  -5.8200 H              1 RES1               0.0000
     19 H19         28.2461  26.3517  -4.5531 H              1 RES1               0.0000
     20 H20         32.6111  27.6096  -3.1811 H              1 RES1               0.0000
     21 H21         29.3930  24.8168  -3.6095 H              1 RES1               0.0000
     22 H22         29.2498  29.4426  -1.2789 H              1 RES1               0.0000
     23 H23         31.5640  30.4591  -4.4585 H              1 RES1               0.0000
     24 H24         27.4436  27.8516  -6.3483 H              1 RES1               0.0000
     25 H25         27.5981  28.7409  -4.8349 H              1 RES1               0.0000
     26 H26         28.8165  28.9266  -6.0943 H              1 RES1               0.0000
     27 H27         34.0636  25.7989  -2.3835 H              1 RES1               0.0000
     28 H28         30.8578  23.0205  -2.8119 H              1 RES1               0.0000
     29 H29         33.1953  23.4995  -2.1948 H              1 RES1               0.0000
@<TRIPOS>BOND
    1    1    2 1     
    2    1    3 1     
    3    1    4 1     
    4    1    5 1     
    5    2    6 ar    
    6    2    7 ar    
    7    3    8 1     
    8    3    9 2     
    9    4   10 1     
   10    4   11 2     
   11    5   12 1     
   12    5   18 1     
   13    5   19 1     
   14    6   13 ar    
   15    6   20 1     
   16    7   14 ar    
   17    7   21 1     
   18    8   15 1     
   19    8   22 1     
   20   10   15 1     
   21   10   23 1     
   22   12   24 1     
   23   12   25 1     
   24   12   26 1     
   25   13   16 ar    
   26   13   27 1     
   27   14   16 ar    
   28   14   28 1     
   29   15   17 2     
   30   16   29 1     
@<TRIPOS>SUBSTRUCTURE
      1 RES1           1
@<TRIPOS>SET
DONOR_HYDROGENS      STATIC     ATOMS    <user>   **** ""
2 22 23
ATOM$RED        STATIC     ATOMS    COLORGROUP SYSTEM
2 22 23
@<TRIPOS>COMMENT
> <Gold.Version>
2022.3.0

> <Gold.Id.Protein>
unknown|3nx8_clean|pdb

> <Gold.Protein.RotatedTorsions>
[ 1667 1658 1657 1655 ] final  150.22 input   59.99 | X-H torsion
[  510  504  502  499 ] final  147.79 input   60.04 | X-H torsion

> <Gold.Protein.ActiveResidues>
 HIS39   LEU40   ASP41   GLN42   PHE43   GLU44   ARG45   ILE46   LYS47   THR48  
 MET58   LEU59   VAL60   LYS61   HIS62   LYS63   MET71   ILE73   PHE110  ASP112 
 ASN115  TYR117  VAL119  GLU333  GLU334  ILE335  ARG336  VAL337 

> <Gold.Protein.RotatedAtoms>
   24.5695   19.6095   -8.4546 H   0  0  0  0  0  0  0  0  0  0  0  0  # atno 510  bound_to 504 
   27.8472   25.9907    1.8611 H   0  0  0  0  0  0  0  0  0  0  0  0  # atno 1667 bound_to 1658
   27.7993   26.5001    3.4055 LP  0  0  0  0  0  0  0  0  0  0  0  0  # atno 5360 bound_to 1658
   26.6085   25.5489    2.8191 LP  0  0  0  0  0  0  0  0  0  0  0  0  # atno 5361 bound_to 1658

> <Gold.Score>
     Fitness  S(hb_ext) S(vdw_ext)  S(hb_int)    S(int)      intcor
     31.56       0.00      23.65       0.00      -0.95      -0.76

> <Gold.Goldscore.Fitness>
31.5592

> <Gold.Goldscore.Internal.Vdw>
-1.2831

> <Gold.Goldscore.Internal.Torsion>
-0.4296

> <Gold.Goldscore.External.Vdw>
23.6461

> <Gold.Goldscore.Internal.HBond>
0.0000

> <Gold.Goldscore.External.HBond>
0.0000

> <Gold.Goldscore.Internal.Correction>
-0.7585

> <Gold.Goldscore.Internal.Vdw.Weighted>
-1.2831

> <Gold.Goldscore.Internal.Torsion.Weighted>
-0.4296

> <Gold.Goldscore.External.Vdw.Weighted>
32.5134

> <Gold.Goldscore.Internal.HBond.Weighted>
0.0000

> <Gold.Goldscore.External.HBond.Weighted>
0.0000

> <Gold.Goldscore.Internal.Correction.Weighted>
-0.7585

> <Gold.Rescore>
     Score     S(PLP)   S(hbond)     S(cho)   S(metal)  DE(clash)   DE(tors)     intcor
     36.85     -38.92       0.00       0.00       0.00       0.08       1.00       ----

> <Gold.PLP.Fitness>
36.8515

> <Gold.PLP.PLP>
-38.9224

> <Gold.PLP.part.hbond>
0.0000

> <Gold.PLP.part.metal>
0.0000

> <Gold.PLP.part.buried>
-2.5483

> <Gold.PLP.part.nonpolar>
-36.7748

> <Gold.PLP.part.repulsive>
0.0401

> <Gold.PLP.ligand.clash>
0.0791

> <Gold.PLP.ligand.torsion>
0.9959

> <Gold.PLP.Chemscore.Hbond>
0.0000

> <Gold.PLP.Chemscore.CHOScore>
0.0000

> <Gold.PLP.Chemscore.Metal>
0.0000

> <Gold.PLP.Chemscore.Internal.Correction>
   9.000000E+99

