#       Name:                CT1002167954
#       Creating user name   hitesit
#       Creation time:       Sun Apr 16 22:50:49 2023


#       File generated by GOLD software.
#

@<TRIPOS>MOLECULE
CT1002167954|ligand_prepared|mol2|1|dock6
    29    30     1
SMALL
NO_CHARGES


@<TRIPOS>ATOM
      1 C1          29.6652  27.7890  -3.8571 C.3            1 RES1               0.0000
      2 C2          30.5174  26.5381  -3.5609 C.ar           1 RES1               0.0000
      3 C3          30.6470  28.9421  -4.0434 C.2            1 RES1               0.0000
      4 C4          28.8459  27.4624  -5.1008 C.2            1 RES1               0.0000
      5 C5          28.6828  28.1590  -2.7215 C.3            1 RES1               0.0000
      6 C6          31.8876  26.5404  -3.8042 C.ar           1 RES1               0.0000
      7 C7          29.9490  25.3775  -3.0427 C.ar           1 RES1               0.0000
      8 N8          30.8512  29.3994  -5.3119 N.am           1 RES1               0.0000
      9 O9          31.2625  29.4166  -3.0967 O.2            1 RES1               0.0000
     10 N10         29.0997  28.1763  -6.2426 N.am           1 RES1               0.0000
     11 O11         27.9944  26.5820  -5.1069 O.2            1 RES1               0.0000
     12 C12         27.7345  29.2934  -3.0765 C.3            1 RES1               0.0000
     13 C13         32.6622  25.4239  -3.5364 C.ar           1 RES1               0.0000
     14 C14         30.7254  24.2620  -2.7758 C.ar           1 RES1               0.0000
     15 C15         30.0864  29.1089  -6.4130 C.2            1 RES1               0.0000
     16 C16         32.0818  24.2842  -3.0217 C.ar           1 RES1               0.0000
     17 O17         30.2880  29.6693  -7.4865 O.2            1 RES1               0.0000
     18 H18         28.0913  27.2720  -2.4633 H              1 RES1               0.0000
     19 H19         29.2607  28.4465  -1.8344 H              1 RES1               0.0000
     20 H20         32.3616  27.4273  -4.2114 H              1 RES1               0.0000
     21 H21         28.8838  25.3369  -2.8425 H              1 RES1               0.0000
     22 H22         31.6461  30.0142  -5.4551 H              1 RES1               0.0000
     23 H23         28.4973  27.9958  -7.0394 H              1 RES1               0.0000
     24 H24         27.0673  29.5127  -2.2455 H              1 RES1               0.0000
     25 H25         28.2885  30.1991  -3.3144 H              1 RES1               0.0000
     26 H26         27.1260  29.0316  -3.9396 H              1 RES1               0.0000
     27 H27         33.7290  25.4460  -3.7329 H              1 RES1               0.0000
     28 H28         30.2643  23.3670  -2.3714 H              1 RES1               0.0000
     29 H29         32.6889  23.4098  -2.8116 H              1 RES1               0.0000
@<TRIPOS>BOND
    1    1    2 1     
    2    1    3 1     
    3    1    4 1     
    4    1    5 1     
    5    2    6 ar    
    6    2    7 ar    
    7    3    8 1     
    8    3    9 2     
    9    4   10 1     
   10    4   11 2     
   11    5   12 1     
   12    5   18 1     
   13    5   19 1     
   14    6   13 ar    
   15    6   20 1     
   16    7   14 ar    
   17    7   21 1     
   18    8   15 1     
   19    8   22 1     
   20   10   15 1     
   21   10   23 1     
   22   12   24 1     
   23   12   25 1     
   24   12   26 1     
   25   13   16 ar    
   26   13   27 1     
   27   14   16 ar    
   28   14   28 1     
   29   15   17 2     
   30   16   29 1     
@<TRIPOS>SUBSTRUCTURE
      1 RES1           1
@<TRIPOS>SET
DONOR_HYDROGENS      STATIC     ATOMS    <user>   **** ""
2 22 23
ATOM$RED        STATIC     ATOMS    COLORGROUP SYSTEM
2 22 23
@<TRIPOS>COMMENT
> <Gold.Version>
2022.3.0

> <Gold.Id.Protein>
unknown|3nx8_clean|pdb

> <Gold.Protein.RotatedTorsions>
[ 1667 1658 1657 1655 ] final -156.24 input   59.99 | X-H torsion
[  510  504  502  499 ] final  -49.68 input   60.04 | X-H torsion

> <Gold.Protein.ActiveResidues>
 HIS39   LEU40   ASP41   GLN42   PHE43   GLU44   ARG45   ILE46   LYS47   THR48  
 MET58   LEU59   VAL60   LYS61   HIS62   LYS63   MET71   ILE73   PHE110  ASP112 
 ASN115  TYR117  VAL119  GLU333  GLU334  ILE335  ARG336  VAL337 

> <Gold.Protein.RotatedAtoms>
   25.8592   19.2431   -7.1784 H   0  0  0  0  0  0  0  0  0  0  0  0  # atno 510  bound_to 504 
   27.1251   25.5608    1.9286 H   0  0  0  0  0  0  0  0  0  0  0  0  # atno 1667 bound_to 1658
   28.2210   26.5088    2.6684 LP  0  0  0  0  0  0  0  0  0  0  0  0  # atno 5360 bound_to 1658
   26.9143   25.9732    3.4882 LP  0  0  0  0  0  0  0  0  0  0  0  0  # atno 5361 bound_to 1658

> <Gold.Score>
     Fitness  S(hb_ext) S(vdw_ext)  S(hb_int)    S(int)      intcor
     31.24       6.00      20.38       0.00      -2.79      -0.76

> <Gold.Goldscore.Fitness>
31.2412

> <Gold.Goldscore.Internal.Vdw>
-3.1138

> <Gold.Goldscore.Internal.Torsion>
-0.4326

> <Gold.Goldscore.External.Vdw>
20.3848

> <Gold.Goldscore.Internal.HBond>
0.0000

> <Gold.Goldscore.External.HBond>
6.0000

> <Gold.Goldscore.Internal.Correction>
-0.7585

> <Gold.Goldscore.Hbonds>
donor molecule, donor type, donor heavy atom, donor atom, acceptor molecule, acceptor atom, score
      P1  H   443   456       L1    11  1.00

> <Gold.Goldscore.Internal.Vdw.Weighted>
-3.1138

> <Gold.Goldscore.Internal.Torsion.Weighted>
-0.4326

> <Gold.Goldscore.External.Vdw.Weighted>
28.0291

> <Gold.Goldscore.Internal.HBond.Weighted>
0.0000

> <Gold.Goldscore.External.HBond.Weighted>
6.0000

> <Gold.Goldscore.Internal.Correction.Weighted>
-0.7585

> <Gold.Rescore>
     Score     S(PLP)   S(hbond)     S(cho)   S(metal)  DE(clash)   DE(tors)     intcor
     39.44     -38.78       0.94       0.00       0.00       1.89       0.14       ----

> <Gold.PLP.Fitness>
39.4351

> <Gold.PLP.PLP>
-38.7784

> <Gold.PLP.part.hbond>
-0.8772

> <Gold.PLP.part.metal>
0.0000

> <Gold.PLP.part.buried>
1.4524

> <Gold.PLP.part.nonpolar>
-39.6239

> <Gold.PLP.part.repulsive>
0.0368

> <Gold.PLP.ligand.clash>
1.8889

> <Gold.PLP.ligand.torsion>
0.1410

> <Gold.PLP.Chemscore.Hbond>
0.9425

> <Gold.PLP.Chemscore.CHOScore>
0.0000

> <Gold.PLP.Chemscore.Metal>
0.0000

> <Gold.Chemscore.Hbonds>
donor molecule, donor type, donor heavy atom, donor atom, acceptor molecule, acceptor atom, score
      P1  H   443   456       L1    11  1.00

> <Gold.PLP.Chemscore.Internal.Correction>
   9.000000E+99

