#       Name:                CT1002167954
#       Creating user name   hitesit
#       Creation time:       Sun Apr 16 22:50:47 2023


#       File generated by GOLD software.
#

@<TRIPOS>MOLECULE
CT1002167954|ligand_prepared|mol2|1|dock3
    29    30     1
SMALL
NO_CHARGES


@<TRIPOS>ATOM
      1 C1          31.5671  27.4700  -3.9223 C.3            1 RES1               0.0000
      2 C2          31.4473  25.9715  -3.5776 C.ar           1 RES1               0.0000
      3 C3          31.9043  27.5421  -5.4087 C.2            1 RES1               0.0000
      4 C4          30.2276  28.1002  -3.5571 C.2            1 RES1               0.0000
      5 C5          32.6731  28.2067  -3.1314 C.3            1 RES1               0.0000
      6 C6          32.5834  25.2117  -3.3156 C.ar           1 RES1               0.0000
      7 C7          30.2097  25.3367  -3.5153 C.ar           1 RES1               0.0000
      8 N8          30.9179  27.9410  -6.2618 N.am           1 RES1               0.0000
      9 O9          33.0071  27.2160  -5.8303 O.2            1 RES1               0.0000
     10 N10         29.4577  28.6055  -4.5718 N.am           1 RES1               0.0000
     11 O11         29.8244  28.1488  -2.4015 O.2            1 RES1               0.0000
     12 C12         32.6052  29.7213  -3.2482 C.3            1 RES1               0.0000
     13 C13         32.4857  23.8667  -2.9998 C.ar           1 RES1               0.0000
     14 C14         30.1142  23.9915  -3.1995 C.ar           1 RES1               0.0000
     15 C15         29.7283  28.5269  -5.9108 C.2            1 RES1               0.0000
     16 C16         31.2512  23.2558  -2.9411 C.ar           1 RES1               0.0000
     17 O17         28.9602  28.9567  -6.7667 O.2            1 RES1               0.0000
     18 H18         32.5939  27.9302  -2.0728 H              1 RES1               0.0000
     19 H19         33.6516  27.8682  -3.4940 H              1 RES1               0.0000
     20 H20         33.5637  25.6746  -3.3594 H              1 RES1               0.0000
     21 H21         29.3018  25.8954  -3.7159 H              1 RES1               0.0000
     22 H22         31.0797  27.7897  -7.2524 H              1 RES1               0.0000
     23 H23         28.6038  29.0847  -4.3042 H              1 RES1               0.0000
     24 H24         33.4031  30.1885  -2.6748 H              1 RES1               0.0000
     25 H25         32.7060  30.0331  -4.2857 H              1 RES1               0.0000
     26 H26         31.6546  30.0948  -2.8729 H              1 RES1               0.0000
     27 H27         33.3837  23.2918  -2.7986 H              1 RES1               0.0000
     28 H28         29.1406  23.5147  -3.1551 H              1 RES1               0.0000
     29 H29         31.1749  22.2023  -2.6933 H              1 RES1               0.0000
@<TRIPOS>BOND
    1    1    2 1     
    2    1    3 1     
    3    1    4 1     
    4    1    5 1     
    5    2    6 ar    
    6    2    7 ar    
    7    3    8 1     
    8    3    9 2     
    9    4   10 1     
   10    4   11 2     
   11    5   12 1     
   12    5   18 1     
   13    5   19 1     
   14    6   13 ar    
   15    6   20 1     
   16    7   14 ar    
   17    7   21 1     
   18    8   15 1     
   19    8   22 1     
   20   10   15 1     
   21   10   23 1     
   22   12   24 1     
   23   12   25 1     
   24   12   26 1     
   25   13   16 ar    
   26   13   27 1     
   27   14   16 ar    
   28   14   28 1     
   29   15   17 2     
   30   16   29 1     
@<TRIPOS>SUBSTRUCTURE
      1 RES1           1
@<TRIPOS>SET
DONOR_HYDROGENS      STATIC     ATOMS    <user>   **** ""
2 22 23
ATOM$RED        STATIC     ATOMS    COLORGROUP SYSTEM
2 22 23
@<TRIPOS>COMMENT
> <Gold.Version>
2022.3.0

> <Gold.Id.Protein>
unknown|3nx8_clean|pdb

> <Gold.Protein.RotatedTorsions>
[ 1667 1658 1657 1655 ] final  -39.81 input   59.99 | X-H torsion
[  510  504  502  499 ] final  -36.05 input   60.04 | X-H torsion

> <Gold.Protein.ActiveResidues>
 HIS39   LEU40   ASP41   GLN42   PHE43   GLU44   ARG45   ILE46   LYS47   THR48  
 MET58   LEU59   VAL60   LYS61   HIS62   LYS63   MET71   ILE73   PHE110  ASP112 
 ASN115  TYR117  VAL119  GLU333  GLU334  ILE335  ARG336  VAL337 

> <Gold.Protein.RotatedAtoms>
   26.0209   19.3235   -7.3079 H   0  0  0  0  0  0  0  0  0  0  0  0  # atno 510  bound_to 504 
   26.8811   25.9377    3.4550 H   0  0  0  0  0  0  0  0  0  0  0  0  # atno 1667 bound_to 1658
   27.1691   25.5796    1.8942 LP  0  0  0  0  0  0  0  0  0  0  0  0  # atno 5360 bound_to 1658
   28.2120   26.5227    2.7247 LP  0  0  0  0  0  0  0  0  0  0  0  0  # atno 5361 bound_to 1658

> <Gold.Score>
     Fitness  S(hb_ext) S(vdw_ext)  S(hb_int)    S(int)      intcor
     34.16       0.33      25.22       0.00      -0.85      -0.76

> <Gold.Goldscore.Fitness>
34.1552

> <Gold.Goldscore.Internal.Vdw>
-1.0219

> <Gold.Goldscore.Internal.Torsion>
-0.5893

> <Gold.Goldscore.External.Vdw>
25.2179

> <Gold.Goldscore.Internal.HBond>
0.0000

> <Gold.Goldscore.External.HBond>
0.3333

> <Gold.Goldscore.Internal.Correction>
-0.7585

> <Gold.Goldscore.Hbonds>
donor molecule, donor type, donor heavy atom, donor atom, acceptor molecule, acceptor atom, score
      P1  H   433   447       L1     9  0.17

> <Gold.Goldscore.Internal.Vdw.Weighted>
-1.0219

> <Gold.Goldscore.Internal.Torsion.Weighted>
-0.5893

> <Gold.Goldscore.External.Vdw.Weighted>
34.6746

> <Gold.Goldscore.Internal.HBond.Weighted>
0.0000

> <Gold.Goldscore.External.HBond.Weighted>
0.3333

> <Gold.Goldscore.Internal.Correction.Weighted>
-0.7585

> <Gold.Rescore>
     Score     S(PLP)   S(hbond)     S(cho)   S(metal)  DE(clash)   DE(tors)     intcor
     43.31     -41.82       1.00       0.00       0.00       1.28       0.11       ----

> <Gold.PLP.Fitness>
43.3094

> <Gold.PLP.PLP>
-41.8169

> <Gold.PLP.part.hbond>
-1.0000

> <Gold.PLP.part.metal>
0.0000

> <Gold.PLP.part.buried>
-4.2034

> <Gold.PLP.part.nonpolar>
-37.6206

> <Gold.PLP.part.repulsive>
0.1422

> <Gold.PLP.ligand.clash>
1.2781

> <Gold.PLP.ligand.torsion>
0.1147

> <Gold.PLP.Chemscore.Hbond>
1.0000

> <Gold.PLP.Chemscore.CHOScore>
0.0000

> <Gold.PLP.Chemscore.Metal>
0.0000

> <Gold.Chemscore.Hbonds>
donor molecule, donor type, donor heavy atom, donor atom, acceptor molecule, acceptor atom, score
      P1  H   433   447       L1     9  1.00

> <Gold.PLP.Chemscore.Internal.Correction>
   9.000000E+99

