@<TRIPOS>MOLECULE
A:L9N351
    46    49     1     0     1
SMALL
NO_CHARGES
****
Generated from the CSD

@<TRIPOS>ATOM
     1 CL1     36.1800  17.3630  59.0120   C.3       1 L9N351   0.0000
     2 C1      33.2850  19.8420  57.4660   C.ar      1 L9N351   0.0000
     3 N1      34.7850  12.6360  55.9320   N.2       1 L9N351   0.0000
     4 S1      31.0860  17.6540  58.9400   S.3       1 L9N351   0.0000
     5 C2      34.2570  18.7700  57.5560   C.ar      1 L9N351   0.0000
     6 N2      28.6840  17.3840  59.3000   N.2       1 L9N351   0.0000
     7 C3      34.9850  18.6460  58.8070   C.ar      1 L9N351   0.0000
     8 N3      29.6000  22.2690  58.5680   N.3       1 L9N351   0.0000
     9 C4      34.8130  19.5120  59.9510   C.ar      1 L9N351   0.0000
    10 N4      33.5410  12.1190  55.8610   N.pl3     1 L9N351   0.0000
    11 C5      33.8510  20.5700  59.8560   C.ar      1 L9N351   0.0000
    12 N5      28.9930  16.2070  58.6980   N.2       1 L9N351   0.0000
    13 C6      33.1040  20.7110  58.6180   C.ar      1 L9N351   0.0000
    14 N6      29.4300  19.6270  60.1750   N.pl3     1 L9N351   0.0000
    15 C7      30.4600  20.6520  60.1920   C.3       1 L9N351   0.0000
    16 C8      32.0450  21.8180  58.5330   C.3       1 L9N351   0.0000
    17 C9      34.6460  13.8420  56.5680   C.2       1 L9N351   0.0000
    18 C10     30.6360  21.2270  58.7690   C.3       1 L9N351   0.0000
    19 C11     30.3580  13.8280  57.2290   C.ar      1 L9N351   0.0000
    20 C12     29.6280  18.3220  59.5400   C.2       1 L9N351   0.0000
    21 C13     31.0830  12.7200  56.5520   C.ar      1 L9N351   0.0000
    22 C14     32.5250  12.8370  56.3860   C.ar      1 L9N351   0.0000
    23 C15     33.2650  14.0390  56.8860   C.ar      1 L9N351   0.0000
    24 C16     32.5200  15.0970  57.5440   C.ar      1 L9N351   0.0000
    25 C17     31.0550  15.0350  57.7380   C.ar      1 L9N351   0.0000
    26 C18     30.3390  16.1750  58.4130   C.2       1 L9N351   0.0000
    27 H1      29.7183  23.0017  59.2604   H         1 L9N351   0.0000
    28 H2      29.6937  22.6642  57.6378   H         1 L9N351   0.0000
    29 H3      31.4003  20.2165  60.5266   H         1 L9N351   0.0000
    30 H4      30.1670  21.4501  60.8726   H         1 L9N351   0.0000
    31 H5      33.3737  11.2173  55.4260   H         1 L9N351   0.0000
    32 H6      32.7042  19.9929  56.5573   H         1 L9N351   0.0000
    33 H7      36.9627  17.4729  58.2629   H         1 L9N351   0.0000
    34 H8      36.6177  17.4302  60.0069   H         1 L9N351   0.0000
    35 H9      35.6968  16.3944  58.8927   H         1 L9N351   0.0000
    36 H10     30.5488  11.8430  56.1894   H         1 L9N351   0.0000
    37 H11     34.4332  18.0893  56.7244   H         1 L9N351   0.0000
    38 H12     28.5392  19.8229  60.6203   H         1 L9N351   0.0000
    39 H13     33.6843  21.2503  60.6898   H         1 L9N351   0.0000
    40 H14     30.4693  20.4278  58.0483   H         1 L9N351   0.0000
    41 H15     29.2791  13.7509  57.3555   H         1 L9N351   0.0000
    42 H16     33.0602  15.9694  57.9086   H         1 L9N351   0.0000
    43 H17     32.0822  22.2766  57.5460   H         1 L9N351   0.0000
    44 H18     32.2507  22.5718  59.2915   H         1 L9N351   0.0000
    45 H19     35.4539  14.5363  56.7942   H         1 L9N351   0.0000
    46 H20     35.3970  19.3650  60.8583   H         1 L9N351   0.0000
@<TRIPOS>BOND
     1     2     5   ar
     2     1     7    1
     3     5     7   ar
     4     7     9   ar
     5     3    10    1
     6     9    11   ar
     7     6    12    1
     8     2    13   ar
     9    11    13   ar
    10    14    15    1
    11    13    16    1
    12     3    17    2
    13     8    18    1
    14    15    18    1
    15    16    18    1
    16     4    20    1
    17     6    20    2
    18    14    20    1
    19    19    21   ar
    20    10    22    1
    21    21    22   ar
    22    17    23    1
    23    22    23   ar
    24    23    24   ar
    25    19    25   ar
    26    24    25   ar
    27     4    26    1
    28    12    26    2
    29    25    26    1
    30     8    27    1
    31     8    28    1
    32    15    29    1
    33    15    30    1
    34    10    31    1
    35     2    32    1
    36     1    33    1
    37     1    34    1
    38     1    35    1
    39    21    36    1
    40     5    37    1
    41    14    38    1
    42    11    39    1
    43    18    40    1
    44    19    41    1
    45    24    42    1
    46    16    43    1
    47    16    44    1
    48    17    45    1
    49     9    46    1
@<TRIPOS>SUBSTRUCTURE
     1 L9N351      1 GROUP             0 A     L9N     0  
@<TRIPOS>SET
CCDC_LIGAND STATIC ATOMS
46 1 2 3 4 5 6 7 8 9 \
10 11 12 13 14 15 16 17 18 19 \
20 21 22 23 24 25 26 27 28 29 \
30 31 32 33 34 35 36 37 38 39 \
40 41 42 43 44 45 46 
