@<TRIPOS>MOLECULE
C:THR5
   284   286    19     0     1
SMALL
NO_CHARGES
****
Generated from the CSD

@<TRIPOS>ATOM
     1 N       45.6580  45.2680  46.5900   N.3       1 THR5   0.0000
     2 CA      45.0010  44.2830  45.6790   C.3       1 THR5   0.0000
     3 C       43.7570  43.7290  46.3510   C.2       1 THR5   0.0000
     4 O       43.6340  43.7630  47.5760   O.2       1 THR5   0.0000
     5 CB      45.9190  43.1010  45.3780   C.3       1 THR5   0.0000
     6 CG2     47.2710  43.5890  44.8750   C.3       1 THR5   0.0000
     7 OG1     46.1060  42.3430  46.5770   O.3       1 THR5   0.0000
     8 N       42.8310  43.2180  45.5490   N.am      2 THR6   0.0000
     9 CA      41.6060  42.6560  46.0950   C.3       2 THR6   0.0000
    10 C       41.9750  41.5340  47.0630   C.2       2 THR6   0.0000
    11 O       41.4230  41.4400  48.1670   O.2       2 THR6   0.0000
    12 CB      40.7110  42.1170  44.9630   C.3       2 THR6   0.0000
    13 CG2     39.3730  41.6310  45.5170   C.3       2 THR6   0.0000
    14 OG1     40.4810  43.1660  44.0110   O.3       2 THR6   0.0000
    15 N       42.9230  40.6930  46.6600   N.am      3 TYR7   0.0000
    16 CA      43.3510  39.5950  47.5200   C.3       3 TYR7   0.0000
    17 C       43.8430  40.1510  48.8550   C.2       3 TYR7   0.0000
    18 O       43.5350  39.6150  49.9150   O.2       3 TYR7   0.0000
    19 CB      44.4790  38.7830  46.8580   C.3       3 TYR7   0.0000
    20 CG      45.0750  37.7160  47.7640   C.ar      3 TYR7   0.0000
    21 CD1     44.3050  36.6480  48.2280   C.ar      3 TYR7   0.0000
    22 CD2     46.4110  37.7750  48.1520   C.ar      3 TYR7   0.0000
    23 CE1     44.8570  35.6610  49.0590   C.ar      3 TYR7   0.0000
    24 CE2     46.9740  36.7990  48.9810   C.ar      3 TYR7   0.0000
    25 CZ      46.1900  35.7450  49.4280   C.ar      3 TYR7   0.0000
    26 OH      46.7510  34.7790  50.2410   O.3       3 TYR7   0.0000
    27 N       44.6120  41.2330  48.7890   N.am      4 ALA8   0.0000
    28 CA      45.1420  41.8670  49.9910   C.3       4 ALA8   0.0000
    29 C       43.9840  42.3150  50.8820   C.2       4 ALA8   0.0000
    30 O       44.0120  42.1470  52.1090   O.2       4 ALA8   0.0000
    31 CB      46.0050  43.0710  49.6220   C.3       4 ALA8   0.0000
    32 N       42.9630  42.9030  50.2720   N.am      5 ASP9   0.0000
    33 CA      41.8150  43.3450  51.0390   C.3       5 ASP9   0.0000
    34 C       41.1590  42.1530  51.7370   C.2       5 ASP9   0.0000
    35 O       40.7860  42.2490  52.9120   O.2       5 ASP9   0.0000
    36 CB      40.8050  44.0710  50.1030   C.3       5 ASP9   0.0000
    37 CG      41.3750  45.3370  49.4910   C.ar      5 ASP9   0.0000
    38 OD1     42.3910  45.8610  50.0010   O.co2     5 ASP9   0.0000
    39 OD2     40.8000  45.8160  48.4830   O.co2     5 ASP9   0.0000
    40 N       41.0390  41.0360  51.0180   N.am      6 PHE10   0.0000
    41 CA      40.4430  39.8190  51.5880   C.3       6 PHE10   0.0000
    42 C       41.1760  39.4290  52.8570   C.2       6 PHE10   0.0000
    43 O       40.5580  39.2450  53.8980   O.2       6 PHE10   0.0000
    44 CB      40.4970  38.6120  50.5800   C.3       6 PHE10   0.0000
    45 CG      40.0230  37.2950  51.1720   C.ar      6 PHE10   0.0000
    46 CD1     38.7850  37.2110  51.7900   C.ar      6 PHE10   0.0000
    47 CD2     40.8080  36.1490  51.1040   C.ar      6 PHE10   0.0000
    48 CE1     38.3290  36.0110  52.3410   C.ar      6 PHE10   0.0000
    49 CE2     40.3580  34.9340  51.6570   C.ar      6 PHE10   0.0000
    50 CZ      39.1160  34.8760  52.2720   C.ar      6 PHE10   0.0000
    51 N       42.4930  39.2960  52.7710   N.am      7 ILE11   0.0000
    52 CA      43.2570  38.9290  53.9480   C.3       7 ILE11   0.0000
    53 C       42.9570  39.8990  55.0790   C.2       7 ILE11   0.0000
    54 O       42.6300  39.4920  56.1980   O.2       7 ILE11   0.0000
    55 CB      44.7740  38.9520  53.6750   C.3       7 ILE11   0.0000
    56 CG1     45.1150  38.0190  52.5340   C.3       7 ILE11   0.0000
    57 CG2     45.5360  38.5740  54.9440   C.3       7 ILE11   0.0000
    58 CD1     44.6770  36.5720  52.7380   C.3       7 ILE11   0.0000
    59 N       43.0400  41.1850  54.7690   N.am      8 ALA12   0.0000
    60 CA      42.8020  42.2060  55.7730   C.3       8 ALA12   0.0000
    61 C       41.4550  42.0560  56.4590   C.2       8 ALA12   0.0000
    62 O       41.3130  42.4300  57.6190   O.2       8 ALA12   0.0000
    63 CB      42.9360  43.5930  55.1590   C.3       8 ALA12   0.0000
    64 N       40.4770  41.5030  55.7500   N.am      9 SER13   0.0000
    65 CA      39.1580  41.3010  56.3240   C.3       9 SER13   0.0000
    66 C       39.2450  40.3340  57.5090   C.2       9 SER13   0.0000
    67 O       38.4090  40.3710  58.4120   O.2       9 SER13   0.0000
    68 CB      38.2240  40.7200  55.3130   C.3       9 SER13   0.0000
    69 OG      38.5070  39.3470  55.1540   O.3       9 SER13   0.0000
    70 N       40.2220  39.4320  57.4890   N.am     10 GLY14   0.0000
    71 CA      40.3780  38.4950  58.5910   C.3      10 GLY14   0.0000
    72 C       39.4620  37.2810  58.6450   C.2      10 GLY14   0.0000
    73 O       39.4490  36.5680  59.6480   O.2      10 GLY14   0.0000
    74 N       38.6760  37.0370  57.6040   N.am     11 ARG15   0.0000
    75 CA      37.7990  35.8710  57.6120   C.3      11 ARG15   0.0000
    76 C       38.3220  34.8900  56.5620   C.2      11 ARG15   0.0000
    77 O       37.6320  34.5470  55.6030   O.2      11 ARG15   0.0000
    78 CB      36.3240  36.2860  57.3300   C.3      11 ARG15   0.0000
    79 CG      35.5980  36.9070  58.5480   C.3      11 ARG15   0.0000
    80 CD      34.2080  37.4190  58.1730   C.3      11 ARG15   0.0000
    81 NE      33.2940  36.3470  57.7740   N.2      11 ARG15   0.0000
    82 CZ      32.6090  35.5790  58.6240   C.ar     11 ARG15   0.0000
    83 NH1     32.7180  35.7530  59.9420   N.2      11 ARG15   0.0000
    84 NH2     31.8090  34.6270  58.1580   N.2      11 ARG15   0.0000
    85 N       39.5540  34.4360  56.7660   N.am     12 THR16   0.0000
    86 CA      40.2340  33.5160  55.8520   C.3      12 THR16   0.0000
    87 C       40.1780  32.0610  56.2890   C.2      12 THR16   0.0000
    88 O       40.5840  31.1730  55.5430   O.2      12 THR16   0.0000
    89 CB      41.7280  33.8770  55.7180   C.3      12 THR16   0.0000
    90 CG2     41.9020  35.2550  55.0910   C.3      12 THR16   0.0000
    91 OG1     42.3350  33.8580  57.0170   O.3      12 THR16   0.0000
    92 N       39.6970  31.8270  57.5050   N.am     13 GLY17   0.0000
    93 CA      39.6170  30.4740  58.0240   C.3      13 GLY17   0.0000
    94 C       38.2280  29.8930  57.8530   C.2      13 GLY17   0.0000
    95 O       37.3400  30.5680  57.3440   O.2      13 GLY17   0.0000
    96 N       38.0450  28.6440  58.2780   N.am     14 ARG18   0.0000
    97 CA      36.7460  27.9720  58.1740   C.3      14 ARG18   0.0000
    98 C       35.6290  28.8400  58.7640   C.2      14 ARG18   0.0000
    99 O       35.7270  29.3160  59.8900   O.2      14 ARG18   0.0000
   100 CB      36.7930  26.6120  58.9010   C.3      14 ARG18   0.0000
   101 CG      37.8370  25.6390  58.3600   C.3      14 ARG18   0.0000
   102 CD      37.7380  24.3080  59.0720   C.3      14 ARG18   0.0000
   103 NE      38.6020  23.2730  58.5100   N.2      14 ARG18   0.0000
   104 CZ      39.9210  23.2270  58.6640   C.ar     14 ARG18   0.0000
   105 NH1     40.5440  24.1670  59.3610   N.2      14 ARG18   0.0000
   106 NH2     40.6160  22.2200  58.1490   N.2      14 ARG18   0.0000
   107 N       34.5580  29.0230  58.0010   N.am     15 ARG19   0.0000
   108 CA      33.4390  29.8620  58.4200   C.3      15 ARG19   0.0000
   109 C       32.2410  29.0980  58.9880   C.2      15 ARG19   0.0000
   110 O       31.8120  28.1020  58.4210   O.2      15 ARG19   0.0000
   111 CB      32.9910  30.7240  57.2190   C.3      15 ARG19   0.0000
   112 CG      34.0960  31.6430  56.6990   C.3      15 ARG19   0.0000
   113 CD      33.9390  31.9730  55.2250   C.3      15 ARG19   0.0000
   114 NE      34.1400  30.8010  54.3800   N.2      15 ARG19   0.0000
   115 CZ      34.5200  30.8510  53.1050   C.ar     15 ARG19   0.0000
   116 NH1     34.7510  32.0260  52.5160   N.2      15 ARG19   0.0000
   117 NH2     34.6590  29.7280  52.4110   N.2      15 ARG19   0.0000
   118 N       31.7040  29.5830  60.1080   N.am     16 ASN20   0.0000
   119 CA      30.5510  28.9570  60.7510   C.3      16 ASN20   0.0000
   120 C       29.2320  29.4380  60.1700   C.2      16 ASN20   0.0000
   121 O       29.1330  30.5510  59.6570   O.2      16 ASN20   0.0000
   122 CB      30.5310  29.2620  62.2550   C.3      16 ASN20   0.0000
   123 CG      31.5630  28.4780  63.0260   C.2      16 ASN20   0.0000
   124 ND2     32.1790  27.5060  62.3740   N.am     16 ASN20   0.0000
   125 OD1     31.7970  28.7390  64.2090   O.2      16 ASN20   0.0000
   126 N       28.2170  28.5890  60.2640   N.am     17 ALA21   0.0000
   127 CA      26.8880  28.9450  59.8000   C.3      17 ALA21   0.0000
   128 C       26.4010  29.9090  60.8770   C.2      17 ALA21   0.0000
   129 O       26.8460  29.8360  62.0260   O.2      17 ALA21   0.0000
   130 CB      26.0080  27.7170  59.7460   C.3      17 ALA21   0.0000
   131 N       25.5050  30.8180  60.5180   N.am     18 ILE22   0.0000
   132 CA      25.0160  31.7960  61.4770   C.3      18 ILE22   0.0000
   133 C       24.0130  31.2210  62.4560   C.2      18 ILE22   0.0000
   134 O       23.1930  30.3620  62.1210   O.2      18 ILE22   0.0000
   135 CB      24.3570  32.9780  60.7860   C.3      18 ILE22   0.0000
   136 CG1     23.1810  32.4990  59.9480   C.3      18 ILE22   0.0000
   137 CG2     25.3750  33.6920  59.9150   C.3      18 ILE22   0.0000
   138 CD1     22.5640  33.5790  59.1040   C.3      18 ILE22   0.0000
   139 N       24.0780  31.7090  63.6870   N.am     19 HIS23   0.0000
   140 CA      23.1770  31.2720  64.7430   C.3      19 HIS23   0.0000
   141 C       22.8930  32.4790  65.6130   C.2      19 HIS23   0.0000
   142 O       21.7020  32.8950  65.6640   O.2      19 HIS23   0.0000
   143 CB      23.8060  30.1530  65.5480   C.3      19 HIS23   0.0000
   144 CG      25.2570  30.3640  65.8630   C.2      19 HIS23   0.0000
   145 CD2     25.8880  30.6810  67.0290   C.2      19 HIS23   0.0000
   146 ND1     26.2510  30.2700  64.9170   N.pl3    19 HIS23   0.0000
   147 CE1     27.4310  30.5200  65.4670   C.2      19 HIS23   0.0000
   148 NE2     27.2280  30.7720  66.7510   N.2      19 HIS23   0.0000
   149 H1      38.8610  42.4580  46.0068   H         2 THR6   0.0000
   150 H2      38.7574  41.2550  44.7012   H         2 THR6   0.0000
   151 H3      39.5468  40.8336  46.2380   H         2 THR6   0.0000
   152 H4      41.0676  43.4322  46.6368   H         2 THR6   0.0000
   153 H5      41.2170  41.2888  44.4691   H         2 THR6   0.0000
   154 H6      41.3492  43.4692  43.6364   H         2 THR6   0.0000
   155 H7      45.0582  39.9639  53.3902   H         7 ILE11   0.0000
   156 H8      45.2272  42.0120  46.8998   H         1 THR5   0.0000
   157 H9      45.7509  41.1461  50.5346   H         4 ALA8   0.0000
   158 H10     44.8357  41.6274  47.8809   H         4 ALA8   0.0000
   159 H11     42.9794  43.2195  44.5449   H         2 THR6   0.0000
   160 H12     38.3546  41.2314  54.3604   H         9 SER13   0.0000
   161 H13     37.1968  40.8430  55.6532   H         9 SER13   0.0000
   162 H14     42.2081  43.7068  54.3570   H         8 ALA12   0.0000
   163 H15     42.7550  44.3473  55.9233   H         8 ALA12   0.0000
   164 H16     43.9407  43.7168  54.7576   H         8 ALA12   0.0000
   165 H17     43.5957  36.5341  52.8619   H         7 ILE11   0.0000
   166 H18     44.9639  35.9801  51.8701   H         7 ILE11   0.0000
   167 H19     45.1587  36.1689  53.6276   H         7 ILE11   0.0000
   168 H20     42.1538  44.0489  51.7977   H         5 ASP9   0.0000
   169 H21     45.2427  37.5737  55.2591   H         7 ILE11   0.0000
   170 H22     46.6063  38.5923  54.7438   H         7 ILE11   0.0000
   171 H23     45.3022  39.2865  55.7337   H         7 ILE11   0.0000
   172 H24     45.4029  43.7953  49.0754   H         4 ALA8   0.0000
   173 H25     46.3921  43.5319  50.5295   H         4 ALA8   0.0000
   174 H26     46.8356  42.7446  48.9979   H         4 ALA8   0.0000
   175 H27     38.3882  38.8817  56.0232   H         9 SER13   0.0000
   176 H28     40.8615  39.3971  56.7016   H        10 GLY14   0.0000
   177 H29     40.2257  39.0543  59.5129   H        10 GLY14   0.0000
   178 H30     41.4015  38.1246  58.5560   H        10 GLY14   0.0000
   179 H31     38.6849  37.6607  56.8033   H        11 ARG15   0.0000
   180 H32     37.8505  35.3985  58.5918   H        11 ARG15   0.0000
   181 H33     46.1955  38.0300  52.3988   H         7 ILE11   0.0000
   182 H34     44.6326  38.3952  51.6331   H         7 ILE11   0.0000
   183 H35     32.1461  31.3376  57.5281   H        15 ARG19   0.0000
   184 H36     32.6823  30.0612  56.4120   H        15 ARG19   0.0000
   185 H37     35.0562  31.1506  56.8453   H        15 ARG19   0.0000
   186 H38     34.0736  32.5712  57.2681   H        15 ARG19   0.0000
   187 H39     34.6716  32.7319  54.9543   H        15 ARG19   0.0000
   188 H40     32.9355  32.3607  55.0561   H        15 ARG19   0.0000
   189 H41     35.0405  32.0581  51.5437   H        15 ARG19   0.0000
   190 H42     34.9486  29.7647  51.4389   H        15 ARG19   0.0000
   191 H43     32.1092  30.4138  60.5273   H        16 ASN20   0.0000
   192 H44     30.6191  27.8787  60.6150   H        16 ASN20   0.0000
   193 H45     29.5447  29.0170  62.6462   H        16 ASN20   0.0000
   194 H46     30.7242  30.3243  62.3968   H        16 ASN20   0.0000
   195 H47     32.8829  26.9461  62.8443   H        16 ASN20   0.0000
   196 H48     31.9478  27.3200  61.4033   H        16 ASN20   0.0000
   197 H49     28.3727  27.6713  60.6688   H        17 ALA21   0.0000
   198 H50     26.9326  29.4357  58.8288   H        17 ALA21   0.0000
   199 H51     23.9922  33.6708  61.5428   H        18 ILE22   0.0000
   200 H52     22.4173  32.1075  60.6184   H        18 ILE22   0.0000
   201 H53     23.5284  31.7040  59.2898   H        18 ILE22   0.0000
   202 H54     25.7582  33.0021  59.1646   H        18 ILE22   0.0000
   203 H55     24.9001  34.5384  59.4211   H        18 ILE22   0.0000
   204 H56     26.1970  34.0476  60.5345   H        18 ILE22   0.0000
   205 H57     23.3115  33.9756  58.4185   H        18 ILE22   0.0000
   206 H58     21.7331  33.1648  58.5349   H        18 ILE22   0.0000
   207 H59     22.2004  34.3791  59.7471   H        18 ILE22   0.0000
   208 H60     24.7796  32.4108  63.9000   H        19 HIS23   0.0000
   209 H61     22.2466  30.9192  64.3005   H        19 HIS23   0.0000
   210 H62     23.6869  32.9699  66.1739   H        19 HIS23   0.0000
   211 H63     23.7105  29.2284  64.9806   H        19 HIS23   0.0000
   212 H64     23.2624  30.0604  66.4871   H        19 HIS23   0.0000
   213 H65     25.4168  30.8333  67.9989   H        19 HIS23   0.0000
   214 H66     26.1025  30.0421  63.9391   H        19 HIS23   0.0000
   215 H67     28.3925  30.5184  64.9557   H        19 HIS23   0.0000
   216 H68     35.7730  35.3997  57.0188   H        11 ARG15   0.0000
   217 H69     36.3228  37.0164  56.5223   H        11 ARG15   0.0000
   218 H70     36.1907  37.7385  58.9266   H        11 ARG15   0.0000
   219 H71     35.4982  36.1495  59.3239   H        11 ARG15   0.0000
   220 H72     34.3072  38.1176  57.3435   H        11 ARG15   0.0000
   221 H73     33.7840  37.9348  59.0333   H        11 ARG15   0.0000
   222 H74     32.1914  35.1619  60.5772   H        11 ARG15   0.0000
   223 H75     31.2873  34.0419  58.8027   H        11 ARG15   0.0000
   224 H76     40.0488  34.7424  57.5975   H        12 THR16   0.0000
   225 H77     39.7698  33.5993  54.8704   H        12 THR16   0.0000
   226 H78     42.2168  33.1360  55.0872   H        12 THR16   0.0000
   227 H79     41.4167  36.0025  55.7168   H        12 THR16   0.0000
   228 H80     42.9633  35.4847  55.0081   H        12 THR16   0.0000
   229 H81     41.4504  35.2626  54.1001   H        12 THR16   0.0000
   230 H82     42.2450  32.9510  57.4112   H        12 THR16   0.0000
   231 H83     39.3818  32.6034  58.0777   H        13 GLY17   0.0000
   232 H84     39.8670  30.4865  59.0838   H        13 GLY17   0.0000
   233 H85     40.3303  29.8478  57.4902   H        13 GLY17   0.0000
   234 H86     38.8277  28.1427  58.6858   H        14 ARG18   0.0000
   235 H87     36.5295  27.7958  57.1214   H        14 ARG18   0.0000
   236 H88     35.8137  26.1444  58.8107   H        14 ARG18   0.0000
   237 H89     37.0120  26.7958  59.9518   H        14 ARG18   0.0000
   238 H90     38.8308  26.0561  58.5160   H        14 ARG18   0.0000
   239 H91     37.6694  25.4891  57.2945   H        14 ARG18   0.0000
   240 H92     36.7067  23.9633  59.0136   H        14 ARG18   0.0000
   241 H93     38.0129  24.4555  60.1154   H        14 ARG18   0.0000
   242 H94     41.5517  24.1290  59.4768   H        14 ARG18   0.0000
   243 H95     41.6235  22.1859  58.2672   H        14 ARG18   0.0000
   244 H96     34.5158  28.5645  57.0965   H        15 ARG19   0.0000
   245 H97     33.8011  30.5355  59.1953   H        15 ARG19   0.0000
   246 H98     43.3516  40.8158  45.7482   H         3 TYR7   0.0000
   247 H99     42.9857  43.0435  49.2670   H         5 ASP9   0.0000
   248 H100    38.1556  38.0978  51.8471   H         6 PHE10   0.0000
   249 H101    44.7239  44.7757  44.7482   H         1 THR5   0.0000
   250 H102    45.9168  44.8071  47.4565   H         1 THR5   0.0000
   251 H103    46.4899  45.6398  46.1429   H         1 THR5   0.0000
   252 H104    43.2570  36.5795  47.9399   H         3 TYR7   0.0000
   253 H105    41.3660  41.0260  50.0572   H         6 PHE10   0.0000
   254 H106    40.6542  41.2172  54.7923   H         9 SER13   0.0000
   255 H107    38.7657  42.2568  56.6682   H         9 SER13   0.0000
   256 H108    42.9689  37.9254  54.2575   H         7 ILE11   0.0000
   257 H109    44.2418  34.8345  49.4115   H         3 TYR7   0.0000
   258 H110    25.9332  27.2800  60.7407   H        17 ALA21   0.0000
   259 H111    25.0152  27.9970  59.3969   H        17 ALA21   0.0000
   260 H112    26.4417  26.9895  59.0615   H        17 ALA21   0.0000
   261 H113    25.1570  30.8315  59.5646   H        18 ILE22   0.0000
   262 H114    25.8676  32.1680  62.0447   H        18 ILE22   0.0000
   263 H115    38.7616  33.9391  52.6994   H         6 PHE10   0.0000
   264 H116    40.9828  34.0437  51.6019   H         6 PHE10   0.0000
   265 H117    48.0208  36.8660  49.2737   H         3 TYR7   0.0000
   266 H118    37.3542  35.9694  52.8247   H         6 PHE10   0.0000
   267 H119    39.9203  44.3322  50.6818   H         5 ASP9   0.0000
   268 H120    40.5253  43.3915  49.2993   H         5 ASP9   0.0000
   269 H121    43.5736  42.1062  56.5349   H         8 ALA12   0.0000
   270 H122    43.2724  41.4587  53.8196   H         8 ALA12   0.0000
   271 H123    47.7372  44.2138  45.6354   H         1 THR5   0.0000
   272 H124    47.9110  42.7331  44.6660   H         1 THR5   0.0000
   273 H125    47.1316  44.1691  43.9640   H         1 THR5   0.0000
   274 H126    46.6833  33.8931  49.7976   H         3 TYR7   0.0000
   275 H127    45.2724  39.4699  46.5672   H         3 TYR7   0.0000
   276 H128    44.0773  38.2959  45.9707   H         3 TYR7   0.0000
   277 H129    41.7815  36.1914  50.6178   H         6 PHE10   0.0000
   278 H130    42.9641  39.4504  51.8853   H         7 ILE11   0.0000
   279 H131    47.0312  38.5991  47.8024   H         3 TYR7   0.0000
   280 H132    41.5267  38.4881  50.2480   H         6 PHE10   0.0000
   281 H133    39.8662  38.8506  49.7250   H         6 PHE10   0.0000
   282 H134    39.4019  40.0222  51.8343   H         6 PHE10   0.0000
   283 H135    45.4580  42.4697  44.6198   H         1 THR5   0.0000
   284 H136    42.5023  38.9374  47.7023   H         3 TYR7   0.0000
@<TRIPOS>BOND
     1     1     2    1
     2     2     3    1
     3     3     4    2
     4     2     5    1
     5     5     6    1
     6     5     7    1
     7     3     8   am
     8     8     9    1
     9     9    10    1
    10    10    11    2
    11     9    12    1
    12    12    13    1
    13    12    14    1
    14    10    15   am
    15    15    16    1
    16    16    17    1
    17    17    18    2
    18    16    19    1
    19    19    20    1
    20    20    21   ar
    21    20    22   ar
    22    21    23   ar
    23    22    24   ar
    24    23    25   ar
    25    24    25   ar
    26    25    26    1
    27    17    27   am
    28    27    28    1
    29    28    29    1
    30    29    30    2
    31    28    31    1
    32    29    32   am
    33    32    33    1
    34    33    34    1
    35    34    35    2
    36    33    36    1
    37    36    37    1
    38    37    38   ar
    39    37    39   ar
    40    34    40   am
    41    40    41    1
    42    41    42    1
    43    42    43    2
    44    41    44    1
    45    44    45    1
    46    45    46   ar
    47    45    47   ar
    48    46    48   ar
    49    47    49   ar
    50    48    50   ar
    51    49    50   ar
    52    42    51   am
    53    51    52    1
    54    52    53    1
    55    53    54    2
    56    52    55    1
    57    55    56    1
    58    55    57    1
    59    56    58    1
    60    53    59   am
    61    59    60    1
    62    60    61    1
    63    61    62    2
    64    60    63    1
    65    61    64   am
    66    64    65    1
    67    65    66    1
    68    66    67    2
    69    65    68    1
    70    68    69    1
    71    66    70   am
    72    70    71    1
    73    71    72    1
    74    72    73    2
    75    72    74   am
    76    74    75    1
    77    75    76    1
    78    76    77    2
    79    75    78    1
    80    78    79    1
    81    79    80    1
    82    80    81    1
    83    81    82   ar
    84    82    83   ar
    85    82    84   ar
    86    76    85   am
    87    85    86    1
    88    86    87    1
    89    87    88    2
    90    86    89    1
    91    89    90    1
    92    89    91    1
    93    87    92   am
    94    92    93    1
    95    93    94    1
    96    94    95    2
    97    94    96   am
    98    96    97    1
    99    97    98    1
   100    98    99    2
   101    97   100    1
   102   100   101    1
   103   101   102    1
   104   102   103    1
   105   103   104   ar
   106   104   105   ar
   107   104   106   ar
   108    98   107   am
   109   107   108    1
   110   108   109    1
   111   109   110    2
   112   108   111    1
   113   111   112    1
   114   112   113    1
   115   113   114    1
   116   114   115   ar
   117   115   116   ar
   118   115   117   ar
   119   109   118   am
   120   118   119    1
   121   119   120    1
   122   120   121    2
   123   119   122    1
   124   122   123    1
   125   123   124   am
   126   123   125    2
   127   120   126   am
   128   126   127    1
   129   127   128    1
   130   128   129    2
   131   127   130    1
   132   128   131   am
   133   131   132    1
   134   132   133    1
   135   133   134    2
   136   132   135    1
   137   135   136    1
   138   135   137    1
   139   136   138    1
   140   133   139   am
   141   139   140    1
   142   140   141    1
   143   141   142    2
   144   140   143    1
   145   143   144    1
   146   144   145    2
   147   144   146    1
   148   146   147    1
   149   145   148    1
   150   147   148    2
   151    13   149    1
   152    13   150    1
   153    13   151    1
   154     9   152    1
   155    12   153    1
   156    14   154    1
   157    55   155    1
   158     7   156    1
   159    28   157    1
   160    27   158    1
   161     8   159    1
   162    68   160    1
   163    68   161    1
   164    63   162    1
   165    63   163    1
   166    63   164    1
   167    58   165    1
   168    58   166    1
   169    58   167    1
   170    33   168    1
   171    57   169    1
   172    57   170    1
   173    57   171    1
   174    31   172    1
   175    31   173    1
   176    31   174    1
   177    69   175    1
   178    70   176    1
   179    71   177    1
   180    71   178    1
   181    74   179    1
   182    75   180    1
   183    56   181    1
   184    56   182    1
   185   111   183    1
   186   111   184    1
   187   112   185    1
   188   112   186    1
   189   113   187    1
   190   113   188    1
   191   116   189    1
   192   117   190    1
   193   118   191    1
   194   119   192    1
   195   122   193    1
   196   122   194    1
   197   124   195    1
   198   124   196    1
   199   126   197    1
   200   127   198    1
   201   135   199    1
   202   136   200    1
   203   136   201    1
   204   137   202    1
   205   137   203    1
   206   137   204    1
   207   138   205    1
   208   138   206    1
   209   138   207    1
   210   139   208    1
   211   140   209    1
   212   141   210    1
   213   143   211    1
   214   143   212    1
   215   145   213    1
   216   146   214    1
   217   147   215    1
   218    78   216    1
   219    78   217    1
   220    79   218    1
   221    79   219    1
   222    80   220    1
   223    80   221    1
   224    83   222    1
   225    84   223    1
   226    85   224    1
   227    86   225    1
   228    89   226    1
   229    90   227    1
   230    90   228    1
   231    90   229    1
   232    91   230    1
   233    92   231    1
   234    93   232    1
   235    93   233    1
   236    96   234    1
   237    97   235    1
   238   100   236    1
   239   100   237    1
   240   101   238    1
   241   101   239    1
   242   102   240    1
   243   102   241    1
   244   105   242    1
   245   106   243    1
   246   107   244    1
   247   108   245    1
   248    15   246    1
   249    32   247    1
   250    46   248    1
   251     2   249    1
   252     1   250    1
   253     1   251    1
   254    21   252    1
   255    40   253    1
   256    64   254    1
   257    65   255    1
   258    52   256    1
   259    23   257    1
   260   130   258    1
   261   130   259    1
   262   130   260    1
   263   131   261    1
   264   132   262    1
   265    50   263    1
   266    49   264    1
   267    24   265    1
   268    48   266    1
   269    36   267    1
   270    36   268    1
   271    60   269    1
   272    59   270    1
   273     6   271    1
   274     6   272    1
   275     6   273    1
   276    26   274    1
   277    19   275    1
   278    19   276    1
   279    47   277    1
   280    51   278    1
   281    22   279    1
   282    44   280    1
   283    44   281    1
   284    41   282    1
   285     5   283    1
   286    16   284    1
@<TRIPOS>SUBSTRUCTURE
     1 THR5        1 GROUP             0 C     THR     0  
     2 THR6        8 GROUP             0 C     THR     0  
     3 TYR7       15 GROUP             0 C     TYR     0  
     4 ALA8       27 GROUP             0 C     ALA     0  
     5 ASP9       32 GROUP             0 C     ASP     0  
     6 PHE10      40 GROUP             0 C     PHE     0  
     7 ILE11      51 GROUP             0 C     ILE     0  
     8 ALA12      59 GROUP             0 C     ALA     0  
     9 SER13      64 GROUP             0 C     SER     0  
    10 GLY14      70 GROUP             0 C     GLY     0  
    11 ARG15      74 GROUP             0 C     ARG     0  
    12 THR16      85 GROUP             0 C     THR     0  
    13 GLY17      92 GROUP             0 C     GLY     0  
    14 ARG18      96 GROUP             0 C     ARG     0  
    15 ARG19     107 GROUP             0 C     ARG     0  
    16 ASN20     118 GROUP             0 C     ASN     0  
    17 ALA21     126 GROUP             0 C     ALA     0  
    18 ILE22     131 GROUP             0 C     ILE     0  
    19 HIS23     139 GROUP             0 C     HIS     0  
@<TRIPOS>SET
CCDC_LIGAND STATIC ATOMS
284 1 2 3 4 5 6 7 8 9 \
10 11 12 13 14 15 16 17 18 19 \
20 21 22 23 24 25 26 27 28 29 \
30 31 32 33 34 35 36 37 38 39 \
40 41 42 43 44 45 46 47 48 49 \
50 51 52 53 54 55 56 57 58 59 \
60 61 62 63 64 65 66 67 68 69 \
70 71 72 73 74 75 76 77 78 79 \
80 81 82 83 84 85 86 87 88 89 \
90 91 92 93 94 95 96 97 98 99 \
100 101 102 103 104 105 106 107 108 109 \
110 111 112 113 114 115 116 117 118 119 \
120 121 122 123 124 125 126 127 128 129 \
130 131 132 133 134 135 136 137 138 139 \
140 141 142 143 144 145 146 147 148 149 \
150 151 152 153 154 155 156 157 158 159 \
160 161 162 163 164 165 166 167 168 169 \
170 171 172 173 174 175 176 177 178 179 \
180 181 182 183 184 185 186 187 188 189 \
190 191 192 193 194 195 196 197 198 199 \
200 201 202 203 204 205 206 207 208 209 \
210 211 212 213 214 215 216 217 218 219 \
220 221 222 223 224 225 226 227 228 229 \
230 231 232 233 234 235 236 237 238 239 \
240 241 242 243 244 245 246 247 248 249 \
250 251 252 253 254 255 256 257 258 259 \
260 261 262 263 264 265 266 267 268 269 \
270 271 272 273 274 275 276 277 278 279 \
280 281 282 283 284 
