#       Name:                CT1002167954
#       Creating user name   hitesit
#       Creation time:       Sun Apr 16 22:50:19 2023


#       File generated by GOLD software.
#

@<TRIPOS>MOLECULE
CT1002167954|ligand_prepared|mol2|1|dock1
    29    30     1
SMALL
NO_CHARGES


@<TRIPOS>ATOM
      1 C1          15.4575  14.2764  14.2206 C.3            1 RES1               0.0000
      2 C2          16.9066  14.2665  14.7488 C.ar           1 RES1               0.0000
      3 C3          14.9905  15.7279  14.2781 C.2            1 RES1               0.0000
      4 C4          15.5130  13.6961  12.8118 C.2            1 RES1               0.0000
      5 C5          14.4825  13.4133  15.0549 C.3            1 RES1               0.0000
      6 C6          17.8603  15.1297  14.2176 C.ar           1 RES1               0.0000
      7 C7          17.3032  13.4034  15.7667 C.ar           1 RES1               0.0000
      8 N8          14.8907  16.4067  13.0995 N.am           1 RES1               0.0000
      9 O9          14.7513  16.2805  15.3448 O.2            1 RES1               0.0000
     10 N10         15.2001  14.5222  11.7643 N.am           1 RES1               0.0000
     11 O11         15.8409  12.5354  12.5982 O.2            1 RES1               0.0000
     12 C12         13.0377  13.4957  14.5882 C.3            1 RES1               0.0000
     13 C13         19.1626  15.1320  14.6890 C.ar           1 RES1               0.0000
     14 C14         18.6062  13.4072  16.2365 C.ar           1 RES1               0.0000
     15 C15         14.9213  15.8596  11.8420 C.2            1 RES1               0.0000
     16 C16         19.5364  14.2712  15.6989 C.ar           1 RES1               0.0000
     17 O17         14.7031  16.5480  10.8492 O.2            1 RES1               0.0000
     18 H18         14.8093  12.3671  15.0089 H              1 RES1               0.0000
     19 H19         14.5340  13.7349  16.1024 H              1 RES1               0.0000
     20 H20         17.5853  15.8125  13.4206 H              1 RES1               0.0000
     21 H21         16.5887  12.7142  16.2039 H              1 RES1               0.0000
     22 H22         14.7836  17.4144  13.1586 H              1 RES1               0.0000
     23 H23         15.1723  14.1013  10.8411 H              1 RES1               0.0000
     24 H24         12.3963  12.8719  15.2071 H              1 RES1               0.0000
     25 H25         12.6719  14.5188  14.6446 H              1 RES1               0.0000
     26 H26         12.9455  13.1591  13.5576 H              1 RES1               0.0000
     27 H27         19.8912  15.8130  14.2615 H              1 RES1               0.0000
     28 H28         18.8961  12.7276  17.0311 H              1 RES1               0.0000
     29 H29         20.5566  14.2735  16.0682 H              1 RES1               0.0000
@<TRIPOS>BOND
    1    1    2 1     
    2    1    3 1     
    3    1    4 1     
    4    1    5 1     
    5    2    6 ar    
    6    2    7 ar    
    7    3    8 1     
    8    3    9 2     
    9    4   10 1     
   10    4   11 2     
   11    5   12 1     
   12    5   18 1     
   13    5   19 1     
   14    6   13 ar    
   15    6   20 1     
   16    7   14 ar    
   17    7   21 1     
   18    8   15 1     
   19    8   22 1     
   20   10   15 1     
   21   10   23 1     
   22   12   24 1     
   23   12   25 1     
   24   12   26 1     
   25   13   16 ar    
   26   13   27 1     
   27   14   16 ar    
   28   14   28 1     
   29   15   17 2     
   30   16   29 1     
@<TRIPOS>SUBSTRUCTURE
      1 RES1           1
@<TRIPOS>SET
DONOR_HYDROGENS      STATIC     ATOMS    <user>   **** ""
2 22 23
ATOM$RED        STATIC     ATOMS    COLORGROUP SYSTEM
2 22 23
@<TRIPOS>COMMENT
> <Gold.Version>
2022.3.0

> <Gold.Id.Protein>
unknown|3mvj_clean|pdb

> <Gold.Protein.RotatedTorsions>
[ 8490 8455 8453 8450 ] final  -94.17 input   60.02 | X-H torsion
[ 15484 15454 15453 15451 ] final   50.43 input   59.98 | X-H torsion
[ 5453 5415 5414 5412 ] final -133.23 input   60.02 | X-H torsion
[ 7768 7713 7712 7711 ] final   24.79 input   60.03 | X-H torsion
[ 7530 7488 7487 7485 ] final   14.61 input   60.03 | X-H torsion

> <Gold.Protein.ActiveResidues>
 THR48   LEU49   GLY50   THR51   GLY52   ARG56   VAL57   MET58   LEU59   TYR69  
 ALA70   MET71   LYS72   GLU91   LEU95   VAL104  LYS105  LEU106  MET118  VAL119 
 MET120  GLU121  TYR122  VAL123  PRO124  GLY125  GLY126  GLU127  PHE129  TYR164 
 LYS168  PRO169  GLU170  ASN171  LEU172  LEU173  ILE174  GLN181  VAL182  THR183 
 ASP184  PHE185  THR324  PHE327  ASP328  TYR330 

> <Gold.Protein.RotatedAtoms>
   26.2183   15.1314   20.0593 H   0  0  0  0  0  0  0  0  0  0  0  0  # atno 5453 bound_to 5415
   10.8806   21.4378   12.9680 H   0  0  0  0  0  0  0  0  0  0  0  0  # atno 7530 bound_to 7488
    6.2367   13.1017   15.4946 H   0  0  0  0  0  0  0  0  0  0  0  0  # atno 7768 bound_to 7713
    6.8486   13.3690   13.9778 H   0  0  0  0  0  0  0  0  0  0  0  0  # atno 7769 bound_to 7713
    7.7993   12.6744   15.1446 H   0  0  0  0  0  0  0  0  0  0  0  0  # atno 7770 bound_to 7713
   15.1851   19.1571   15.5076 H   0  0  0  0  0  0  0  0  0  0  0  0  # atno 8490 bound_to 8455
   16.0411    9.2432   17.6659 H   0  0  0  0  0  0  0  0  0  0  0  0  # atno 15484 bound_to 15454
   15.4302   18.0134   14.3763 LP  0  0  0  0  0  0  0  0  0  0  0  0  # atno 16480 bound_to 8455
   14.0848   18.9377   14.3290 LP  0  0  0  0  0  0  0  0  0  0  0  0  # atno 16481 bound_to 8455
   15.7695    8.1889   18.8750 LP  0  0  0  0  0  0  0  0  0  0  0  0  # atno 16486 bound_to 15454
   14.7507    8.2544   17.6006 LP  0  0  0  0  0  0  0  0  0  0  0  0  # atno 16487 bound_to 15454
   26.6855   14.0297   18.9559 LP  0  0  0  0  0  0  0  0  0  0  0  0  # atno 16508 bound_to 5415
   25.0992   14.3527   19.1702 LP  0  0  0  0  0  0  0  0  0  0  0  0  # atno 16509 bound_to 5415

> <Gold.Score>
     Fitness  S(hb_ext) S(vdw_ext)  S(hb_int)    S(int)      intcor
     41.18       4.41      26.80       0.00      -0.08      -0.77

> <Gold.Goldscore.Fitness>
41.1787

> <Gold.Goldscore.Internal.Vdw>
-0.4593

> <Gold.Goldscore.Internal.Torsion>
-0.3914

> <Gold.Goldscore.External.Vdw>
26.8032

> <Gold.Goldscore.Internal.HBond>
0.0000

> <Gold.Goldscore.External.HBond>
4.4065

> <Gold.Goldscore.Internal.Correction>
-0.7686

> <Gold.Goldscore.Hbonds>
donor molecule, donor type, donor heavy atom, donor atom, acceptor molecule, acceptor atom, score
      P1  H  2793  2837       L1    17  0.68
      L1  H     8    22       P1  8455  0.17

> <Gold.Goldscore.Internal.Vdw.Weighted>
-0.4593

> <Gold.Goldscore.Internal.Torsion.Weighted>
-0.3914

> <Gold.Goldscore.External.Vdw.Weighted>
36.8543

> <Gold.Goldscore.Internal.HBond.Weighted>
0.0000

> <Gold.Goldscore.External.HBond.Weighted>
4.4065

> <Gold.Goldscore.Internal.Correction.Weighted>
-0.7686

> <Gold.Rescore>
     Score     S(PLP)   S(hbond)     S(cho)   S(metal)  DE(clash)   DE(tors)     intcor
     32.10     -29.57       1.00       0.00       0.00       0.00       0.23       ----

> <Gold.PLP.Fitness>
32.1014

> <Gold.PLP.PLP>
-29.5690

> <Gold.PLP.part.hbond>
-2.2439

> <Gold.PLP.part.metal>
0.0000

> <Gold.PLP.part.buried>
0.8145

> <Gold.PLP.part.nonpolar>
-31.0299

> <Gold.PLP.part.repulsive>
1.7908

> <Gold.PLP.ligand.clash>
0.0000

> <Gold.PLP.ligand.torsion>
0.2338

> <Gold.PLP.Chemscore.Hbond>
1.0000

> <Gold.PLP.Chemscore.CHOScore>
0.0000

> <Gold.PLP.Chemscore.Metal>
0.0000

> <Gold.Chemscore.Hbonds>
donor molecule, donor type, donor heavy atom, donor atom, acceptor molecule, acceptor atom, score
      L1  H     8    22       P1  8455  0.77

> <Gold.PLP.Chemscore.Internal.Correction>
   9.000000E+99

#       Name:                CT1002167954
#       Creating user name   hitesit
#       Creation time:       Sun Apr 16 22:50:21 2023


#       File generated by GOLD software.
#

@<TRIPOS>MOLECULE
CT1002167954|ligand_prepared|mol2|1|dock2
    29    30     1
SMALL
NO_CHARGES


@<TRIPOS>ATOM
      1 C1          15.6040  14.5683  13.9922 C.3            1 RES1               0.0000
      2 C2          17.0704  14.6200  14.4674 C.ar           1 RES1               0.0000
      3 C3          15.1705  16.0162  13.7821 C.2            1 RES1               0.0000
      4 C4          15.5969  13.7260  12.7214 C.2            1 RES1               0.0000
      5 C5          14.6411  13.9097  15.0074 C.3            1 RES1               0.0000
      6 C6          17.8480  15.7524  14.2446 C.ar           1 RES1               0.0000
      7 C7          17.6576  13.5461  15.1312 C.ar           1 RES1               0.0000
      8 N8          15.0434  16.4576  12.4980 N.am           1 RES1               0.0000
      9 O9          14.9814  16.7704  14.7284 O.2            1 RES1               0.0000
     10 N10         15.2647  14.3432  11.5439 N.am           1 RES1               0.0000
     11 O11         15.8921  12.5373  12.7264 O.2            1 RES1               0.0000
     12 C12         13.1778  13.9818  14.6002 C.3            1 RES1               0.0000
     13 C13         19.1641  15.8104  14.6724 C.ar           1 RES1               0.0000
     14 C14         18.9739  13.6061  15.5579 C.ar           1 RES1               0.0000
     15 C15         15.0175  15.6777  11.3698 C.2            1 RES1               0.0000
     16 C16         19.7278  14.7376  15.3296 C.ar           1 RES1               0.0000
     17 O17         14.7790  16.1677  10.2697 O.2            1 RES1               0.0000
     18 H18         14.9224  12.8564  15.1287 H              1 RES1               0.0000
     19 H19         14.7617  14.4030  15.9797 H              1 RES1               0.0000
     20 H20         17.4224  16.6055  13.7268 H              1 RES1               0.0000
     21 H21         17.0839  12.6452  15.3208 H              1 RES1               0.0000
     22 H22         14.9600  17.4603  12.3641 H              1 RES1               0.0000
     23 H23         15.1950  13.7531  10.7209 H              1 RES1               0.0000
     24 H24         12.5458  13.5053  15.3467 H              1 RES1               0.0000
     25 H25         12.8572  15.0161  14.4950 H              1 RES1               0.0000
     26 H26         13.0170  13.4786  13.6489 H              1 RES1               0.0000
     27 H27         19.7535  16.7027  14.4890 H              1 RES1               0.0000
     28 H28         19.4137  12.7592  16.0743 H              1 RES1               0.0000
     29 H29         20.7586  14.7834  15.6650 H              1 RES1               0.0000
@<TRIPOS>BOND
    1    1    2 1     
    2    1    3 1     
    3    1    4 1     
    4    1    5 1     
    5    2    6 ar    
    6    2    7 ar    
    7    3    8 1     
    8    3    9 2     
    9    4   10 1     
   10    4   11 2     
   11    5   12 1     
   12    5   18 1     
   13    5   19 1     
   14    6   13 ar    
   15    6   20 1     
   16    7   14 ar    
   17    7   21 1     
   18    8   15 1     
   19    8   22 1     
   20   10   15 1     
   21   10   23 1     
   22   12   24 1     
   23   12   25 1     
   24   12   26 1     
   25   13   16 ar    
   26   13   27 1     
   27   14   16 ar    
   28   14   28 1     
   29   15   17 2     
   30   16   29 1     
@<TRIPOS>SUBSTRUCTURE
      1 RES1           1
@<TRIPOS>SET
DONOR_HYDROGENS      STATIC     ATOMS    <user>   **** ""
2 22 23
ATOM$RED        STATIC     ATOMS    COLORGROUP SYSTEM
2 22 23
@<TRIPOS>COMMENT
> <Gold.Version>
2022.3.0

> <Gold.Id.Protein>
unknown|3mvj_clean|pdb

> <Gold.Protein.RotatedTorsions>
[ 8490 8455 8453 8450 ] final   -7.35 input   60.02 | X-H torsion
[ 15484 15454 15453 15451 ] final   73.60 input   59.98 | X-H torsion
[ 5453 5415 5414 5412 ] final  134.25 input   60.02 | X-H torsion
[ 7768 7713 7712 7711 ] final  126.62 input   60.03 | X-H torsion
[ 7530 7488 7487 7485 ] final  -16.49 input   60.03 | X-H torsion

> <Gold.Protein.ActiveResidues>
 THR48   LEU49   GLY50   THR51   GLY52   ARG56   VAL57   MET58   LEU59   TYR69  
 ALA70   MET71   LYS72   GLU91   LEU95   VAL104  LYS105  LEU106  MET118  VAL119 
 MET120  GLU121  TYR122  VAL123  PRO124  GLY125  GLY126  GLU127  PHE129  TYR164 
 LYS168  PRO169  GLU170  ASN171  LEU172  LEU173  ILE174  GLN181  VAL182  THR183 
 ASP184  PHE185  THR324  PHE327  ASP328  TYR330 

> <Gold.Protein.RotatedAtoms>
   26.9011   14.2945   19.2433 H   0  0  0  0  0  0  0  0  0  0  0  0  # atno 5453 bound_to 5415
   10.6375   21.1052   12.6817 H   0  0  0  0  0  0  0  0  0  0  0  0  # atno 7530 bound_to 7488
    6.5732   13.4293   14.0856 H   0  0  0  0  0  0  0  0  0  0  0  0  # atno 7768 bound_to 7713
    7.8681   12.7415   14.8582 H   0  0  0  0  0  0  0  0  0  0  0  0  # atno 7769 bound_to 7713
    6.4440   12.9739   15.6738 H   0  0  0  0  0  0  0  0  0  0  0  0  # atno 7770 bound_to 7713
   14.1470   19.2587   14.7544 H   0  0  0  0  0  0  0  0  0  0  0  0  # atno 8490 bound_to 8455
   15.7695    9.2031   17.4092 H   0  0  0  0  0  0  0  0  0  0  0  0  # atno 15484 bound_to 15454
   15.5648   18.7928   15.4029 LP  0  0  0  0  0  0  0  0  0  0  0  0  # atno 16480 bound_to 8455
   14.9959   18.0559   14.0612 LP  0  0  0  0  0  0  0  0  0  0  0  0  # atno 16481 bound_to 8455
   16.0432    8.4454   18.8227 LP  0  0  0  0  0  0  0  0  0  0  0  0  # atno 16486 bound_to 15454
   14.7506    8.0384   17.9115 LP  0  0  0  0  0  0  0  0  0  0  0  0  # atno 16487 bound_to 15454
   25.3251   14.0758   18.9002 LP  0  0  0  0  0  0  0  0  0  0  0  0  # atno 16508 bound_to 5415
   25.7725   15.1488   20.0470 LP  0  0  0  0  0  0  0  0  0  0  0  0  # atno 16509 bound_to 5415

> <Gold.Score>
     Fitness  S(hb_ext) S(vdw_ext)  S(hb_int)    S(int)      intcor
     41.10       5.99      26.48       0.00      -1.31      -0.77

> <Gold.Goldscore.Fitness>
41.0973

> <Gold.Goldscore.Internal.Vdw>
-1.6585

> <Gold.Goldscore.Internal.Torsion>
-0.4209

> <Gold.Goldscore.External.Vdw>
26.4846

> <Gold.Goldscore.Internal.HBond>
0.0000

> <Gold.Goldscore.External.HBond>
5.9918

> <Gold.Goldscore.Internal.Correction>
-0.7686

> <Gold.Goldscore.Hbonds>
donor molecule, donor type, donor heavy atom, donor atom, acceptor molecule, acceptor atom, score
      P1  H  2793  2837       L1    17  1.00

> <Gold.Goldscore.Internal.Vdw.Weighted>
-1.6585

> <Gold.Goldscore.Internal.Torsion.Weighted>
-0.4209

> <Gold.Goldscore.External.Vdw.Weighted>
36.4163

> <Gold.Goldscore.Internal.HBond.Weighted>
0.0000

> <Gold.Goldscore.External.HBond.Weighted>
5.9918

> <Gold.Goldscore.Internal.Correction.Weighted>
-0.7686

> <Gold.Rescore>
     Score     S(PLP)   S(hbond)     S(cho)   S(metal)  DE(clash)   DE(tors)     intcor
     35.38     -38.54       0.00       0.00       0.00       0.00       1.58       ----

> <Gold.PLP.Fitness>
35.3809

> <Gold.PLP.PLP>
-38.5396

> <Gold.PLP.part.hbond>
-1.3020

> <Gold.PLP.part.metal>
0.0000

> <Gold.PLP.part.buried>
-3.7458

> <Gold.PLP.part.nonpolar>
-34.3134

> <Gold.PLP.part.repulsive>
0.5876

> <Gold.PLP.ligand.clash>
0.0009

> <Gold.PLP.ligand.torsion>
1.5789

> <Gold.PLP.Chemscore.Hbond>
0.0000

> <Gold.PLP.Chemscore.CHOScore>
0.0000

> <Gold.PLP.Chemscore.Metal>
0.0000

> <Gold.Chemscore.Hbonds>
donor molecule, donor type, donor heavy atom, donor atom, acceptor molecule, acceptor atom, score
      P1  H  2793  2837       L1    17  1.00

> <Gold.PLP.Chemscore.Internal.Correction>
   9.000000E+99

#       Name:                CT1002167954
#       Creating user name   hitesit
#       Creation time:       Sun Apr 16 22:50:25 2023


#       File generated by GOLD software.
#

@<TRIPOS>MOLECULE
CT1002167954|ligand_prepared|mol2|1|dock5
    29    30     1
SMALL
NO_CHARGES


@<TRIPOS>ATOM
      1 C1          15.9901  14.6934  14.1083 C.3            1 RES1               0.0000
      2 C2          15.6000  13.9580  12.8100 C.ar           1 RES1               0.0000
      3 C3          15.9265  13.6550  15.2246 C.2            1 RES1               0.0000
      4 C4          17.3824  15.2678  13.8715 C.2            1 RES1               0.0000
      5 C5          15.0461  15.8633  14.4715 C.3            1 RES1               0.0000
      6 C6          15.9042  12.6106  12.6400 C.ar           1 RES1               0.0000
      7 C7          14.9346  14.6116  11.7763 C.ar           1 RES1               0.0000
      8 N8          17.1077  13.1941  15.7267 N.am           1 RES1               0.0000
      9 O9          14.8567  13.2180  15.6306 O.2            1 RES1               0.0000
     10 N10         18.4170  14.7738  14.6221 N.am           1 RES1               0.0000
     11 O11         17.5958  16.1318  13.0300 O.2            1 RES1               0.0000
     12 C12         15.3096  16.4601  15.8450 C.3            1 RES1               0.0000
     13 C13         15.5532  11.9402  11.4800 C.ar           1 RES1               0.0000
     14 C14         14.5847  13.9393  10.6169 C.ar           1 RES1               0.0000
     15 C15         18.3480  13.7413  15.5174 C.2            1 RES1               0.0000
     16 C16         14.8930  12.6038  10.4679 C.ar           1 RES1               0.0000
     17 O17         19.3334  13.3171  16.1142 O.2            1 RES1               0.0000
     18 H18         15.1549  16.6521  13.7169 H              1 RES1               0.0000
     19 H19         14.0098  15.5052  14.4351 H              1 RES1               0.0000
     20 H20         16.4256  12.0724  13.4245 H              1 RES1               0.0000
     21 H21         14.6828  15.6625  11.8711 H              1 RES1               0.0000
     22 H22         17.0649  12.3658  16.3120 H              1 RES1               0.0000
     23 H23         19.3224  15.2169  14.5025 H              1 RES1               0.0000
     24 H24         14.6202  17.2765  16.0495 H              1 RES1               0.0000
     25 H25         15.1855  15.7089  16.6222 H              1 RES1               0.0000
     26 H26         16.3238  16.8490  15.9083 H              1 RES1               0.0000
     27 H27         15.7993  10.8895  11.3671 H              1 RES1               0.0000
     28 H28         14.0657  14.4658   9.8227 H              1 RES1               0.0000
     29 H29         14.6178  12.0783   9.5595 H              1 RES1               0.0000
@<TRIPOS>BOND
    1    1    2 1     
    2    1    3 1     
    3    1    4 1     
    4    1    5 1     
    5    2    6 ar    
    6    2    7 ar    
    7    3    8 1     
    8    3    9 2     
    9    4   10 1     
   10    4   11 2     
   11    5   12 1     
   12    5   18 1     
   13    5   19 1     
   14    6   13 ar    
   15    6   20 1     
   16    7   14 ar    
   17    7   21 1     
   18    8   15 1     
   19    8   22 1     
   20   10   15 1     
   21   10   23 1     
   22   12   24 1     
   23   12   25 1     
   24   12   26 1     
   25   13   16 ar    
   26   13   27 1     
   27   14   16 ar    
   28   14   28 1     
   29   15   17 2     
   30   16   29 1     
@<TRIPOS>SUBSTRUCTURE
      1 RES1           1
@<TRIPOS>SET
DONOR_HYDROGENS      STATIC     ATOMS    <user>   **** ""
2 22 23
ATOM$RED        STATIC     ATOMS    COLORGROUP SYSTEM
2 22 23
@<TRIPOS>COMMENT
> <Gold.Version>
2022.3.0

> <Gold.Id.Protein>
unknown|3mvj_clean|pdb

> <Gold.Protein.RotatedTorsions>
[ 8490 8455 8453 8450 ] final   -2.94 input   60.02 | X-H torsion
[ 15484 15454 15453 15451 ] final   57.94 input   59.98 | X-H torsion
[ 5453 5415 5414 5412 ] final   30.20 input   60.02 | X-H torsion
[ 7768 7713 7712 7711 ] final -145.09 input   60.03 | X-H torsion
[ 7530 7488 7487 7485 ] final  -33.04 input   60.03 | X-H torsion

> <Gold.Protein.ActiveResidues>
 THR48   LEU49   GLY50   THR51   GLY52   ARG56   VAL57   MET58   LEU59   TYR69  
 ALA70   MET71   LYS72   GLU91   LEU95   VAL104  LYS105  LEU106  MET118  VAL119 
 MET120  GLU121  TYR122  VAL123  PRO124  GLY125  GLY126  GLU127  PHE129  TYR164 
 LYS168  PRO169  GLU170  ASN171  LEU172  LEU173  ILE174  GLN181  VAL182  THR183 
 ASP184  PHE185  THR324  PHE327  ASP328  TYR330 

> <Gold.Protein.RotatedAtoms>
   25.5342   13.9616   18.7941 H   0  0  0  0  0  0  0  0  0  0  0  0  # atno 5453 bound_to 5415
   10.4560   20.9142   12.6260 H   0  0  0  0  0  0  0  0  0  0  0  0  # atno 7530 bound_to 7488
    7.7715   12.9252   14.3785 H   0  0  0  0  0  0  0  0  0  0  0  0  # atno 7768 bound_to 7713
    6.9143   12.7766   15.7891 H   0  0  0  0  0  0  0  0  0  0  0  0  # atno 7769 bound_to 7713
    6.1988   13.4430   14.4506 H   0  0  0  0  0  0  0  0  0  0  0  0  # atno 7770 bound_to 7713
   14.1241   19.2247   14.6953 H   0  0  0  0  0  0  0  0  0  0  0  0  # atno 8490 bound_to 8455
   15.9603    9.2423   17.5737 H   0  0  0  0  0  0  0  0  0  0  0  0  # atno 15484 bound_to 15454
   15.5250   18.8460   15.4317 LP  0  0  0  0  0  0  0  0  0  0  0  0  # atno 16480 bound_to 8455
   15.0588   18.0371   14.0919 LP  0  0  0  0  0  0  0  0  0  0  0  0  # atno 16481 bound_to 8455
   15.8650    8.2673   18.8727 LP  0  0  0  0  0  0  0  0  0  0  0  0  # atno 16486 bound_to 15454
   14.7366    8.1770   17.6957 LP  0  0  0  0  0  0  0  0  0  0  0  0  # atno 16487 bound_to 15454
   25.5303   15.0898   19.9674 LP  0  0  0  0  0  0  0  0  0  0  0  0  # atno 16508 bound_to 5415
   26.9429   14.4699   19.4319 LP  0  0  0  0  0  0  0  0  0  0  0  0  # atno 16509 bound_to 5415

> <Gold.Score>
     Fitness  S(hb_ext) S(vdw_ext)  S(hb_int)    S(int)      intcor
     39.64       0.00      29.28       0.00      -0.63      -0.77

> <Gold.Goldscore.Fitness>
39.6363

> <Gold.Goldscore.Internal.Vdw>
-0.9214

> <Gold.Goldscore.Internal.Torsion>
-0.4771

> <Gold.Goldscore.External.Vdw>
29.2844

> <Gold.Goldscore.Internal.HBond>
0.0000

> <Gold.Goldscore.External.HBond>
0.0000

> <Gold.Goldscore.Internal.Correction>
-0.7686

> <Gold.Goldscore.Internal.Vdw.Weighted>
-0.9214

> <Gold.Goldscore.Internal.Torsion.Weighted>
-0.4771

> <Gold.Goldscore.External.Vdw.Weighted>
40.2661

> <Gold.Goldscore.Internal.HBond.Weighted>
0.0000

> <Gold.Goldscore.External.HBond.Weighted>
0.0000

> <Gold.Goldscore.Internal.Correction.Weighted>
-0.7686

> <Gold.Rescore>
     Score     S(PLP)   S(hbond)     S(cho)   S(metal)  DE(clash)   DE(tors)     intcor
     32.36     -34.41       0.00       0.00       0.00       0.02       1.02       ----

> <Gold.PLP.Fitness>
32.3610

> <Gold.PLP.PLP>
-34.4131

> <Gold.PLP.part.hbond>
-0.4907

> <Gold.PLP.part.metal>
0.0000

> <Gold.PLP.part.buried>
-1.0587

> <Gold.PLP.part.nonpolar>
-35.6617

> <Gold.PLP.part.repulsive>
0.3575

> <Gold.PLP.ligand.clash>
0.0186

> <Gold.PLP.ligand.torsion>
1.0168

> <Gold.PLP.Chemscore.Hbond>
0.0000

> <Gold.PLP.Chemscore.CHOScore>
0.0000

> <Gold.PLP.Chemscore.Metal>
0.0000

> <Gold.PLP.Chemscore.Internal.Correction>
   9.000000E+99

#       Name:                CT1002167954
#       Creating user name   hitesit
#       Creation time:       Sun Apr 16 22:50:23 2023


#       File generated by GOLD software.
#

@<TRIPOS>MOLECULE
CT1002167954|ligand_prepared|mol2|1|dock4
    29    30     1
SMALL
NO_CHARGES


@<TRIPOS>ATOM
      1 C1          16.8475  14.1708  14.2409 C.3            1 RES1               0.0000
      2 C2          16.1754  13.6331  12.9611 C.ar           1 RES1               0.0000
      3 C3          16.8671  15.6908  14.1084 C.2            1 RES1               0.0000
      4 C4          16.0119  13.6589  15.4090 C.2            1 RES1               0.0000
      5 C5          18.2993  13.6763  14.4392 C.3            1 RES1               0.0000
      6 C6          16.4386  12.3428  12.5111 C.ar           1 RES1               0.0000
      7 C7          15.2895  14.4132  12.2228 C.ar           1 RES1               0.0000
      8 N8          15.9913  16.4031  14.8736 N.am           1 RES1               0.0000
      9 O9          17.6120  16.2535  13.3156 O.2            1 RES1               0.0000
     10 N10         15.3386  14.5792  16.1688 N.am           1 RES1               0.0000
     11 O11         15.9171  12.4655  15.6680 O.2            1 RES1               0.0000
     12 C12         19.0561  14.4179  15.5298 C.3            1 RES1               0.0000
     13 C13         15.8357  11.8491  11.3660 C.ar           1 RES1               0.0000
     14 C14         14.6879  13.9176  11.0778 C.ar           1 RES1               0.0000
     15 C15         15.2658  15.9255  15.9354 C.2            1 RES1               0.0000
     16 C16         14.9597  12.6359  10.6489 C.ar           1 RES1               0.0000
     17 O17         14.5950  16.6818  16.6319 O.2            1 RES1               0.0000
     18 H18         18.2776  12.6082  14.6883 H              1 RES1               0.0000
     19 H19         18.8430  13.7890  13.4931 H              1 RES1               0.0000
     20 H20         17.1270  11.7098  13.0610 H              1 RES1               0.0000
     21 H21         15.0615  15.4249  12.5407 H              1 RES1               0.0000
     22 H22         15.8640  17.3812  14.6343 H              1 RES1               0.0000
     23 H23         14.8462  14.2283  16.9841 H              1 RES1               0.0000
     24 H24         20.0686  14.0320  15.6275 H              1 RES1               0.0000
     25 H25         19.1188  15.4800  15.3020 H              1 RES1               0.0000
     26 H26         18.5567  14.3062  16.4900 H              1 RES1               0.0000
     27 H27         16.0540  10.8402  11.0320 H              1 RES1               0.0000
     28 H28         13.9996  14.5406  10.5162 H              1 RES1               0.0000
     29 H29         14.4873  12.2488   9.7522 H              1 RES1               0.0000
@<TRIPOS>BOND
    1    1    2 1     
    2    1    3 1     
    3    1    4 1     
    4    1    5 1     
    5    2    6 ar    
    6    2    7 ar    
    7    3    8 1     
    8    3    9 2     
    9    4   10 1     
   10    4   11 2     
   11    5   12 1     
   12    5   18 1     
   13    5   19 1     
   14    6   13 ar    
   15    6   20 1     
   16    7   14 ar    
   17    7   21 1     
   18    8   15 1     
   19    8   22 1     
   20   10   15 1     
   21   10   23 1     
   22   12   24 1     
   23   12   25 1     
   24   12   26 1     
   25   13   16 ar    
   26   13   27 1     
   27   14   16 ar    
   28   14   28 1     
   29   15   17 2     
   30   16   29 1     
@<TRIPOS>SUBSTRUCTURE
      1 RES1           1
@<TRIPOS>SET
DONOR_HYDROGENS      STATIC     ATOMS    <user>   **** ""
2 22 23
ATOM$RED        STATIC     ATOMS    COLORGROUP SYSTEM
2 22 23
@<TRIPOS>COMMENT
> <Gold.Version>
2022.3.0

> <Gold.Id.Protein>
unknown|3mvj_clean|pdb

> <Gold.Protein.RotatedTorsions>
[ 8490 8455 8453 8450 ] final  -66.04 input   60.02 | X-H torsion
[ 15484 15454 15453 15451 ] final  -82.68 input   59.98 | X-H torsion
[ 5453 5415 5414 5412 ] final   89.18 input   60.02 | X-H torsion
[ 7768 7713 7712 7711 ] final -149.55 input   60.03 | X-H torsion
[ 7530 7488 7487 7485 ] final  147.60 input   60.03 | X-H torsion

> <Gold.Protein.ActiveResidues>
 THR48   LEU49   GLY50   THR51   GLY52   ARG56   VAL57   MET58   LEU59   TYR69  
 ALA70   MET71   LYS72   GLU91   LEU95   VAL104  LYS105  LEU106  MET118  VAL119 
 MET120  GLU121  TYR122  VAL123  PRO124  GLY125  GLY126  GLU127  PHE129  TYR164 
 LYS168  PRO169  GLU170  ASN171  LEU172  LEU173  ILE174  GLN181  VAL182  THR183 
 ASP184  PHE185  THR324  PHE327  ASP328  TYR330 

> <Gold.Protein.RotatedAtoms>
   26.4552   13.9212   18.8223 H   0  0  0  0  0  0  0  0  0  0  0  0  # atno 5453 bound_to 5415
   10.0254   21.1624   14.4301 H   0  0  0  0  0  0  0  0  0  0  0  0  # atno 7530 bound_to 7488
    7.7369   12.9555   14.3199 H   0  0  0  0  0  0  0  0  0  0  0  0  # atno 7768 bound_to 7713
    6.9851   12.7542   15.7831 H   0  0  0  0  0  0  0  0  0  0  0  0  # atno 7769 bound_to 7713
    6.1626   13.4351   14.5153 H   0  0  0  0  0  0  0  0  0  0  0  0  # atno 7770 bound_to 7713
   14.7879   19.3535   15.4040 H   0  0  0  0  0  0  0  0  0  0  0  0  # atno 8490 bound_to 8455
   15.5947    8.0701   18.8380 H   0  0  0  0  0  0  0  0  0  0  0  0  # atno 15484 bound_to 15454
   15.6675   18.1552   14.7419 LP  0  0  0  0  0  0  0  0  0  0  0  0  # atno 16480 bound_to 8455
   14.2476   18.5981   14.0678 LP  0  0  0  0  0  0  0  0  0  0  0  0  # atno 16481 bound_to 8455
   14.8066    8.4015   17.4537 LP  0  0  0  0  0  0  0  0  0  0  0  0  # atno 16486 bound_to 15454
   16.1633    9.2236   17.8413 LP  0  0  0  0  0  0  0  0  0  0  0  0  # atno 16487 bound_to 15454
   25.0601   14.5524   19.3743 LP  0  0  0  0  0  0  0  0  0  0  0  0  # atno 16508 bound_to 5415
   26.4862   15.0479   19.9966 LP  0  0  0  0  0  0  0  0  0  0  0  0  # atno 16509 bound_to 5415

> <Gold.Score>
     Fitness  S(hb_ext) S(vdw_ext)  S(hb_int)    S(int)      intcor
     38.97       1.91      27.60       0.00      -0.89      -0.77

> <Gold.Goldscore.Fitness>
38.9721

> <Gold.Goldscore.Internal.Vdw>
-1.0638

> <Gold.Goldscore.Internal.Torsion>
-0.5939

> <Gold.Goldscore.External.Vdw>
27.5990

> <Gold.Goldscore.Internal.HBond>
0.0000

> <Gold.Goldscore.External.HBond>
1.9125

> <Gold.Goldscore.Internal.Correction>
-0.7686

> <Gold.Goldscore.Hbonds>
donor molecule, donor type, donor heavy atom, donor atom, acceptor molecule, acceptor atom, score
      L1  H     8    22       P1  8455  0.69
      L1  H    10    23       P1  5607  0.09

> <Gold.Goldscore.Internal.Vdw.Weighted>
-1.0638

> <Gold.Goldscore.Internal.Torsion.Weighted>
-0.5939

> <Gold.Goldscore.External.Vdw.Weighted>
37.9486

> <Gold.Goldscore.Internal.HBond.Weighted>
0.0000

> <Gold.Goldscore.External.HBond.Weighted>
1.9125

> <Gold.Goldscore.Internal.Correction.Weighted>
-0.7686

> <Gold.Rescore>
     Score     S(PLP)   S(hbond)     S(cho)   S(metal)  DE(clash)   DE(tors)     intcor
     32.13     -29.50       1.38       0.00       0.00       1.27       0.12       ----

> <Gold.PLP.Fitness>
32.1323

> <Gold.PLP.PLP>
-29.4963

> <Gold.PLP.part.hbond>
-3.5850

> <Gold.PLP.part.metal>
0.0000

> <Gold.PLP.part.buried>
-2.2262

> <Gold.PLP.part.nonpolar>
-30.7260

> <Gold.PLP.part.repulsive>
5.8915

> <Gold.PLP.ligand.clash>
1.2687

> <Gold.PLP.ligand.torsion>
0.1153

> <Gold.PLP.Chemscore.Hbond>
1.3784

> <Gold.PLP.Chemscore.CHOScore>
0.0000

> <Gold.PLP.Chemscore.Metal>
0.0000

> <Gold.Chemscore.Hbonds>
donor molecule, donor type, donor heavy atom, donor atom, acceptor molecule, acceptor atom, score
      L1  H     8    22       P1  8455  1.00
      L1  H    10    23       P1  5607  0.67

> <Gold.PLP.Chemscore.Internal.Correction>
   9.000000E+99

#       Name:                CT1002167954
#       Creating user name   hitesit
#       Creation time:       Sun Apr 16 22:50:30 2023


#       File generated by GOLD software.
#

@<TRIPOS>MOLECULE
CT1002167954|ligand_prepared|mol2|1|dock10
    29    30     1
SMALL
NO_CHARGES


@<TRIPOS>ATOM
      1 C1          15.9114  14.6918  14.2079 C.3            1 RES1               0.0000
      2 C2          17.3523  14.6765  14.7578 C.ar           1 RES1               0.0000
      3 C3          15.6071  13.2641  13.7637 C.2            1 RES1               0.0000
      4 C4          15.0264  15.1917  15.3444 C.2            1 RES1               0.0000
      5 C5          15.7142  15.6352  12.9985 C.3            1 RES1               0.0000
      6 C6          18.2654  15.6563  14.3800 C.ar           1 RES1               0.0000
      7 C7          17.7814  13.6922  15.6442 C.ar           1 RES1               0.0000
      8 N8          14.7651  12.5261  14.5423 N.am           1 RES1               0.0000
      9 O9          16.1290  12.7801  12.7669 O.2            1 RES1               0.0000
     10 N10         14.1102  14.3218  15.8751 N.am           1 RES1               0.0000
     11 O11         15.1255  16.3259  15.7962 O.2            1 RES1               0.0000
     12 C12         14.3754  15.4629  12.2984 C.3            1 RES1               0.0000
     13 C13         19.5599  15.6541  14.8726 C.ar           1 RES1               0.0000
     14 C14         19.0765  13.6917  16.1355 C.ar           1 RES1               0.0000
     15 C15         13.9606  13.0020  15.5462 C.2            1 RES1               0.0000
     16 C16         19.9661  14.6722  15.7509 C.ar           1 RES1               0.0000
     17 O17         13.1509  12.2689  16.1066 O.2            1 RES1               0.0000
     18 H18         15.8019  16.6732  13.3423 H              1 RES1               0.0000
     19 H19         16.5175  15.4529  12.2739 H              1 RES1               0.0000
     20 H20         17.9645  16.4356  13.6877 H              1 RES1               0.0000
     21 H21         17.0991  12.9103  15.9598 H              1 RES1               0.0000
     22 H22         14.7305  11.5279  14.3614 H              1 RES1               0.0000
     23 H23         13.4815  14.6923  16.5806 H              1 RES1               0.0000
     24 H24         14.2888  16.1481  11.4578 H              1 RES1               0.0000
     25 H25         14.2650  14.4483  11.9214 H              1 RES1               0.0000
     26 H26         13.5537  15.6613  12.9834 H              1 RES1               0.0000
     27 H27         20.2566  16.4272  14.5658 H              1 RES1               0.0000
     28 H28         19.3921  12.9167  16.8261 H              1 RES1               0.0000
     29 H29         20.9801  14.6709  16.1370 H              1 RES1               0.0000
@<TRIPOS>BOND
    1    1    2 1     
    2    1    3 1     
    3    1    4 1     
    4    1    5 1     
    5    2    6 ar    
    6    2    7 ar    
    7    3    8 1     
    8    3    9 2     
    9    4   10 1     
   10    4   11 2     
   11    5   12 1     
   12    5   18 1     
   13    5   19 1     
   14    6   13 ar    
   15    6   20 1     
   16    7   14 ar    
   17    7   21 1     
   18    8   15 1     
   19    8   22 1     
   20   10   15 1     
   21   10   23 1     
   22   12   24 1     
   23   12   25 1     
   24   12   26 1     
   25   13   16 ar    
   26   13   27 1     
   27   14   16 ar    
   28   14   28 1     
   29   15   17 2     
   30   16   29 1     
@<TRIPOS>SUBSTRUCTURE
      1 RES1           1
@<TRIPOS>SET
DONOR_HYDROGENS      STATIC     ATOMS    <user>   **** ""
2 22 23
ATOM$RED        STATIC     ATOMS    COLORGROUP SYSTEM
2 22 23
@<TRIPOS>COMMENT
> <Gold.Version>
2022.3.0

> <Gold.Id.Protein>
unknown|3mvj_clean|pdb

> <Gold.Protein.RotatedTorsions>
[ 8490 8455 8453 8450 ] final -131.19 input   60.02 | X-H torsion
[ 15484 15454 15453 15451 ] final   65.57 input   59.98 | X-H torsion
[ 5453 5415 5414 5412 ] final  -25.45 input   60.02 | X-H torsion
[ 7768 7713 7712 7711 ] final  145.08 input   60.03 | X-H torsion
[ 7530 7488 7487 7485 ] final  -40.33 input   60.03 | X-H torsion

> <Gold.Protein.ActiveResidues>
 THR48   LEU49   GLY50   THR51   GLY52   ARG56   VAL57   MET58   LEU59   TYR69  
 ALA70   MET71   LYS72   GLU91   LEU95   VAL104  LYS105  LEU106  MET118  VAL119 
 MET120  GLU121  TYR122  VAL123  PRO124  GLY125  GLY126  GLU127  PHE129  TYR164 
 LYS168  PRO169  GLU170  ASN171  LEU172  LEU173  ILE174  GLN181  VAL182  THR183 
 ASP184  PHE185  THR324  PHE327  ASP328  TYR330 

> <Gold.Protein.RotatedAtoms>
   25.0689   14.4930   19.3098 H   0  0  0  0  0  0  0  0  0  0  0  0  # atno 5453 bound_to 5415
   10.3696   20.8325   12.6252 H   0  0  0  0  0  0  0  0  0  0  0  0  # atno 7530 bound_to 7488
    6.8533   13.3671   13.9771 H   0  0  0  0  0  0  0  0  0  0  0  0  # atno 7768 bound_to 7713
    7.7979   12.6741   15.1493 H   0  0  0  0  0  0  0  0  0  0  0  0  # atno 7769 bound_to 7713
    6.2340   13.1035   15.4915 H   0  0  0  0  0  0  0  0  0  0  0  0  # atno 7770 bound_to 7713
   15.5922   18.7469   15.3690 H   0  0  0  0  0  0  0  0  0  0  0  0  # atno 8490 bound_to 8455
   15.8707    9.2294   17.4884 H   0  0  0  0  0  0  0  0  0  0  0  0  # atno 15484 bound_to 15454
   14.9405   18.0756   14.0377 LP  0  0  0  0  0  0  0  0  0  0  0  0  # atno 16480 bound_to 8455
   14.1643   19.2887   14.8073 LP  0  0  0  0  0  0  0  0  0  0  0  0  # atno 16481 bound_to 8455
   15.9558    8.3520   18.8559 LP  0  0  0  0  0  0  0  0  0  0  0  0  # atno 16486 bound_to 15454
   14.7361    8.1052   17.7985 LP  0  0  0  0  0  0  0  0  0  0  0  0  # atno 16487 bound_to 15454
   26.4086   15.0799   20.0239 LP  0  0  0  0  0  0  0  0  0  0  0  0  # atno 16508 bound_to 5415
   26.5330   13.9450   18.8564 LP  0  0  0  0  0  0  0  0  0  0  0  0  # atno 16509 bound_to 5415

> <Gold.Score>
     Fitness  S(hb_ext) S(vdw_ext)  S(hb_int)    S(int)      intcor
     37.75       1.08      27.21       0.00      -0.75      -0.77

> <Gold.Goldscore.Fitness>
37.7469

> <Gold.Goldscore.Internal.Vdw>
-0.9686

> <Gold.Goldscore.Internal.Torsion>
-0.5511

> <Gold.Goldscore.External.Vdw>
27.2112

> <Gold.Goldscore.Internal.HBond>
0.0000

> <Gold.Goldscore.External.HBond>
1.0825

> <Gold.Goldscore.Internal.Correction>
-0.7686

> <Gold.Goldscore.Hbonds>
donor molecule, donor type, donor heavy atom, donor atom, acceptor molecule, acceptor atom, score
      L1  H    10    23       P1  7816  0.54

> <Gold.Goldscore.Internal.Vdw.Weighted>
-0.9686

> <Gold.Goldscore.Internal.Torsion.Weighted>
-0.5511

> <Gold.Goldscore.External.Vdw.Weighted>
37.4154

> <Gold.Goldscore.Internal.HBond.Weighted>
0.0000

> <Gold.Goldscore.External.HBond.Weighted>
1.0825

> <Gold.Goldscore.Internal.Correction.Weighted>
-0.7686

> <Gold.Rescore>
     Score     S(PLP)   S(hbond)     S(cho)   S(metal)  DE(clash)   DE(tors)     intcor
     36.53     -36.50       0.75       0.00       0.00       0.00       1.11       ----

> <Gold.PLP.Fitness>
36.5316

> <Gold.PLP.PLP>
-36.5009

> <Gold.PLP.part.hbond>
-2.0940

> <Gold.PLP.part.metal>
0.0000

> <Gold.PLP.part.buried>
-1.4318

> <Gold.PLP.part.nonpolar>
-34.1773

> <Gold.PLP.part.repulsive>
0.6384

> <Gold.PLP.ligand.clash>
0.0000

> <Gold.PLP.ligand.torsion>
1.1126

> <Gold.PLP.Chemscore.Hbond>
0.7520

> <Gold.PLP.Chemscore.CHOScore>
0.0000

> <Gold.PLP.Chemscore.Metal>
0.0000

> <Gold.Chemscore.Hbonds>
donor molecule, donor type, donor heavy atom, donor atom, acceptor molecule, acceptor atom, score
      L1  H    10    23       P1  7816  1.00

> <Gold.PLP.Chemscore.Internal.Correction>
   9.000000E+99

#       Name:                CT1002167954
#       Creating user name   hitesit
#       Creation time:       Sun Apr 16 22:50:29 2023


#       File generated by GOLD software.
#

@<TRIPOS>MOLECULE
CT1002167954|ligand_prepared|mol2|1|dock9
    29    30     1
SMALL
NO_CHARGES


@<TRIPOS>ATOM
      1 C1          13.1704  13.2951  14.0311 C.3            1 RES1               0.0000
      2 C2          13.7837  12.7467  12.7266 C.ar           1 RES1               0.0000
      3 C3          11.8960  14.0315  13.6290 C.2            1 RES1               0.0000
      4 C4          12.9334  12.0877  14.9316 C.2            1 RES1               0.0000
      5 C5          14.0901  14.2819  14.7874 C.3            1 RES1               0.0000
      6 C6          15.0585  12.1883  12.7228 C.ar           1 RES1               0.0000
      7 C7          13.0872  12.7898  11.5218 C.ar           1 RES1               0.0000
      8 N8          10.7040  13.4331  13.9132 N.am           1 RES1               0.0000
      9 O9          11.9370  15.1025  13.0360 O.2            1 RES1               0.0000
     10 N10         11.6387  11.7600  15.2386 N.am           1 RES1               0.0000
     11 O11         13.8553  11.4073  15.3644 O.2            1 RES1               0.0000
     12 C12         14.8090  15.2680  13.8803 C.3            1 RES1               0.0000
     13 C13         15.6156  11.6883  11.5575 C.ar           1 RES1               0.0000
     14 C14         13.6463  12.2894  10.3575 C.ar           1 RES1               0.0000
     15 C15         10.5121  12.3595  14.7452 C.2            1 RES1               0.0000
     16 C16         14.9098  11.7381  10.3743 C.ar           1 RES1               0.0000
     17 O17          9.3810  11.9730  15.0253 O.2            1 RES1               0.0000
     18 H18         13.4864  14.8432  15.5111 H              1 RES1               0.0000
     19 H19         14.8382  13.7081  15.3483 H              1 RES1               0.0000
     20 H20         15.6299  12.1427  13.6439 H              1 RES1               0.0000
     21 H21         12.0921  13.2199  11.4846 H              1 RES1               0.0000
     22 H22          9.8789  13.8195  13.4656 H              1 RES1               0.0000
     23 H23         11.5023  10.9986  15.8958 H              1 RES1               0.0000
     24 H24         15.4406  15.9368  14.4613 H              1 RES1               0.0000
     25 H25         15.4386  14.7446  13.1637 H              1 RES1               0.0000
     26 H26         14.0948  15.8730  13.3255 H              1 RES1               0.0000
     27 H27         16.6109  11.2567  11.5758 H              1 RES1               0.0000
     28 H28         13.0875  12.3312   9.4284 H              1 RES1               0.0000
     29 H29         15.3463  11.3460   9.4616 H              1 RES1               0.0000
@<TRIPOS>BOND
    1    1    2 1     
    2    1    3 1     
    3    1    4 1     
    4    1    5 1     
    5    2    6 ar    
    6    2    7 ar    
    7    3    8 1     
    8    3    9 2     
    9    4   10 1     
   10    4   11 2     
   11    5   12 1     
   12    5   18 1     
   13    5   19 1     
   14    6   13 ar    
   15    6   20 1     
   16    7   14 ar    
   17    7   21 1     
   18    8   15 1     
   19    8   22 1     
   20   10   15 1     
   21   10   23 1     
   22   12   24 1     
   23   12   25 1     
   24   12   26 1     
   25   13   16 ar    
   26   13   27 1     
   27   14   16 ar    
   28   14   28 1     
   29   15   17 2     
   30   16   29 1     
@<TRIPOS>SUBSTRUCTURE
      1 RES1           1
@<TRIPOS>SET
DONOR_HYDROGENS      STATIC     ATOMS    <user>   **** ""
2 22 23
ATOM$RED        STATIC     ATOMS    COLORGROUP SYSTEM
2 22 23
@<TRIPOS>COMMENT
> <Gold.Version>
2022.3.0

> <Gold.Id.Protein>
unknown|3mvj_clean|pdb

> <Gold.Protein.RotatedTorsions>
[ 8490 8455 8453 8450 ] final   46.51 input   60.02 | X-H torsion
[ 15484 15454 15453 15451 ] final -101.37 input   59.98 | X-H torsion
[ 5453 5415 5414 5412 ] final  -26.24 input   60.02 | X-H torsion
[ 7768 7713 7712 7711 ] final -101.65 input   60.03 | X-H torsion
[ 7530 7488 7487 7485 ] final -130.27 input   60.03 | X-H torsion

> <Gold.Protein.ActiveResidues>
 THR48   LEU49   GLY50   THR51   GLY52   ARG56   VAL57   MET58   LEU59   TYR69  
 ALA70   MET71   LYS72   GLU91   LEU95   VAL104  LYS105  LEU106  MET118  VAL119 
 MET120  GLU121  TYR122  VAL123  PRO124  GLY125  GLY126  GLU127  PHE129  TYR164 
 LYS168  PRO169  GLU170  ASN171  LEU172  LEU173  ILE174  GLN181  VAL182  THR183 
 ASP184  PHE185  THR324  PHE327  ASP328  TYR330 

> <Gold.Protein.RotatedAtoms>
   25.0680   14.5020   19.3190 H   0  0  0  0  0  0  0  0  0  0  0  0  # atno 5453 bound_to 5415
    9.5553   20.4111   13.5783 H   0  0  0  0  0  0  0  0  0  0  0  0  # atno 7530 bound_to 7488
    7.8334   12.6942   15.0449 H   0  0  0  0  0  0  0  0  0  0  0  0  # atno 7768 bound_to 7713
    6.3028   13.0568   15.5669 H   0  0  0  0  0  0  0  0  0  0  0  0  # atno 7769 bound_to 7713
    6.7479   13.3940   14.0063 H   0  0  0  0  0  0  0  0  0  0  0  0  # atno 7770 bound_to 7713
   14.1931   18.6903   14.1269 H   0  0  0  0  0  0  0  0  0  0  0  0  # atno 8490 bound_to 8455
   15.3417    7.9451   18.7250 H   0  0  0  0  0  0  0  0  0  0  0  0  # atno 15484 bound_to 15454
   14.8935   19.3183   15.4547 LP  0  0  0  0  0  0  0  0  0  0  0  0  # atno 16480 bound_to 8455
   15.6208   18.1031   14.6416 LP  0  0  0  0  0  0  0  0  0  0  0  0  # atno 16481 bound_to 8455
   14.9497    8.6238   17.2992 LP  0  0  0  0  0  0  0  0  0  0  0  0  # atno 16486 bound_to 15454
   16.2750    9.1272   18.1096 LP  0  0  0  0  0  0  0  0  0  0  0  0  # atno 16487 bound_to 15454
   26.4203   15.0755   20.0202 LP  0  0  0  0  0  0  0  0  0  0  0  0  # atno 16508 bound_to 5415
   26.5222   13.9403   18.8508 LP  0  0  0  0  0  0  0  0  0  0  0  0  # atno 16509 bound_to 5415

> <Gold.Score>
     Fitness  S(hb_ext) S(vdw_ext)  S(hb_int)    S(int)      intcor
     37.32       6.00      25.15       0.00      -3.25      -0.77

> <Gold.Goldscore.Fitness>
37.3245

> <Gold.Goldscore.Internal.Vdw>
-3.1468

> <Gold.Goldscore.Internal.Torsion>
-0.8753

> <Gold.Goldscore.External.Vdw>
25.1476

> <Gold.Goldscore.Internal.HBond>
0.0000

> <Gold.Goldscore.External.HBond>
6.0000

> <Gold.Goldscore.Internal.Correction>
-0.7686

> <Gold.Goldscore.Hbonds>
donor molecule, donor type, donor heavy atom, donor atom, acceptor molecule, acceptor atom, score
      P1  H  7713  7768       L1    17  1.00

> <Gold.Goldscore.Internal.Vdw.Weighted>
-3.1468

> <Gold.Goldscore.Internal.Torsion.Weighted>
-0.8753

> <Gold.Goldscore.External.Vdw.Weighted>
34.5780

> <Gold.Goldscore.Internal.HBond.Weighted>
0.0000

> <Gold.Goldscore.External.HBond.Weighted>
6.0000

> <Gold.Goldscore.Internal.Correction.Weighted>
-0.7686

> <Gold.Rescore>
     Score     S(PLP)   S(hbond)     S(cho)   S(metal)  DE(clash)   DE(tors)     intcor
     21.66     -21.57       0.63       0.00       0.00       0.86       0.47       ----

> <Gold.PLP.Fitness>
21.6581

> <Gold.PLP.PLP>
-21.5654

> <Gold.PLP.part.hbond>
-0.6031

> <Gold.PLP.part.metal>
0.0000

> <Gold.PLP.part.buried>
-2.9036

> <Gold.PLP.part.nonpolar>
-26.8592

> <Gold.PLP.part.repulsive>
8.6219

> <Gold.PLP.ligand.clash>
0.8624

> <Gold.PLP.ligand.torsion>
0.4731

> <Gold.PLP.Chemscore.Hbond>
0.6338

> <Gold.PLP.Chemscore.CHOScore>
0.0000

> <Gold.PLP.Chemscore.Metal>
0.0000

> <Gold.Chemscore.Hbonds>
donor molecule, donor type, donor heavy atom, donor atom, acceptor molecule, acceptor atom, score
      P1  H  7713  7768       L1    17  1.00

> <Gold.PLP.Chemscore.Internal.Correction>
   9.000000E+99

#       Name:                CT1002167954
#       Creating user name   hitesit
#       Creation time:       Sun Apr 16 22:50:27 2023


#       File generated by GOLD software.
#

@<TRIPOS>MOLECULE
CT1002167954|ligand_prepared|mol2|1|dock7
    29    30     1
SMALL
NO_CHARGES


@<TRIPOS>ATOM
      1 C1          15.6625  15.1953  13.9405 C.3            1 RES1               0.0000
      2 C2          16.0750  16.1143  12.7726 C.ar           1 RES1               0.0000
      3 C3          14.4878  15.8816  14.6314 C.2            1 RES1               0.0000
      4 C4          15.3175  13.8459  13.3201 C.2            1 RES1               0.0000
      5 C5          16.7819  14.9695  14.9833 C.3            1 RES1               0.0000
      6 C6          15.1998  16.3562  11.7180 C.ar           1 RES1               0.0000
      7 C7          17.3242  16.7284  12.7372 C.ar           1 RES1               0.0000
      8 N8          13.2453  15.3531  14.4391 N.am           1 RES1               0.0000
      9 O9          14.6440  16.8942  15.3024 O.2            1 RES1               0.0000
     10 N10         14.0175  13.4189  13.3939 N.am           1 RES1               0.0000
     11 O11         16.1563  13.1562  12.7536 O.2            1 RES1               0.0000
     12 C12         16.3774  14.0547  16.1286 C.3            1 RES1               0.0000
     13 C13         15.5591  17.1843  10.6675 C.ar           1 RES1               0.0000
     14 C14         17.6815  17.5559  11.6856 C.ar           1 RES1               0.0000
     15 C15         12.9597  14.1253  13.8982 C.2            1 RES1               0.0000
     16 C16         16.7999  17.7850  10.6508 C.ar           1 RES1               0.0000
     17 O17         11.8095  13.6964  13.8798 O.2            1 RES1               0.0000
     18 H18         17.6540  14.5373  14.4773 H              1 RES1               0.0000
     19 H19         17.0811  15.9408  15.3961 H              1 RES1               0.0000
     20 H20         14.2201  15.8903  11.7126 H              1 RES1               0.0000
     21 H21         18.0344  16.5618  13.5400 H              1 RES1               0.0000
     22 H22         12.4555  15.9236  14.7238 H              1 RES1               0.0000
     23 H23         13.8201  12.4882  13.0401 H              1 RES1               0.0000
     24 H24         17.1987  13.9300  16.8312 H              1 RES1               0.0000
     25 H25         15.5281  14.4666  16.6698 H              1 RES1               0.0000
     26 H26         16.0976  13.0713  15.7564 H              1 RES1               0.0000
     27 H27         14.8621  17.3602   9.8548 H              1 RES1               0.0000
     28 H28         18.6593  18.0261  11.6763 H              1 RES1               0.0000
     29 H29         17.0809  18.4339   9.8279 H              1 RES1               0.0000
@<TRIPOS>BOND
    1    1    2 1     
    2    1    3 1     
    3    1    4 1     
    4    1    5 1     
    5    2    6 ar    
    6    2    7 ar    
    7    3    8 1     
    8    3    9 2     
    9    4   10 1     
   10    4   11 2     
   11    5   12 1     
   12    5   18 1     
   13    5   19 1     
   14    6   13 ar    
   15    6   20 1     
   16    7   14 ar    
   17    7   21 1     
   18    8   15 1     
   19    8   22 1     
   20   10   15 1     
   21   10   23 1     
   22   12   24 1     
   23   12   25 1     
   24   12   26 1     
   25   13   16 ar    
   26   13   27 1     
   27   14   16 ar    
   28   14   28 1     
   29   15   17 2     
   30   16   29 1     
@<TRIPOS>SUBSTRUCTURE
      1 RES1           1
@<TRIPOS>SET
DONOR_HYDROGENS      STATIC     ATOMS    <user>   **** ""
2 22 23
ATOM$RED        STATIC     ATOMS    COLORGROUP SYSTEM
2 22 23
@<TRIPOS>COMMENT
> <Gold.Version>
2022.3.0

> <Gold.Id.Protein>
unknown|3mvj_clean|pdb

> <Gold.Protein.RotatedTorsions>
[ 8490 8455 8453 8450 ] final    9.53 input   60.02 | X-H torsion
[ 15484 15454 15453 15451 ] final   70.87 input   59.98 | X-H torsion
[ 5453 5415 5414 5412 ] final  142.17 input   60.02 | X-H torsion
[ 7768 7713 7712 7711 ] final   54.21 input   60.03 | X-H torsion
[ 7530 7488 7487 7485 ] final  -39.77 input   60.03 | X-H torsion

> <Gold.Protein.ActiveResidues>
 THR48   LEU49   GLY50   THR51   GLY52   ARG56   VAL57   MET58   LEU59   TYR69  
 ALA70   MET71   LYS72   GLU91   LEU95   VAL104  LYS105  LEU106  MET118  VAL119 
 MET120  GLU121  TYR122  VAL123  PRO124  GLY125  GLY126  GLU127  PHE129  TYR164 
 LYS168  PRO169  GLU170  ASN171  LEU172  LEU173  ILE174  GLN181  VAL182  THR183 
 ASP184  PHE185  THR324  PHE327  ASP328  TYR330 

> <Gold.Protein.RotatedAtoms>
   26.9279   14.3814   19.3355 H   0  0  0  0  0  0  0  0  0  0  0  0  # atno 5453 bound_to 5415
   10.3764   20.8387   12.6247 H   0  0  0  0  0  0  0  0  0  0  0  0  # atno 7530 bound_to 7488
    6.0607   13.2916   15.0835 H   0  0  0  0  0  0  0  0  0  0  0  0  # atno 7768 bound_to 7713
    7.3065   13.2065   13.9938 H   0  0  0  0  0  0  0  0  0  0  0  0  # atno 7769 bound_to 7713
    7.5177   12.6469   15.5397 H   0  0  0  0  0  0  0  0  0  0  0  0  # atno 7770 bound_to 7713
   14.0848   19.1122   14.5305 H   0  0  0  0  0  0  0  0  0  0  0  0  # atno 8490 bound_to 8455
   15.8045    9.2135   17.4347 H   0  0  0  0  0  0  0  0  0  0  0  0  # atno 15484 bound_to 15454
   15.3929   18.9910   15.4907 LP  0  0  0  0  0  0  0  0  0  0  0  0  # atno 16480 bound_to 8455
   15.2305   18.0053   14.1990 LP  0  0  0  0  0  0  0  0  0  0  0  0  # atno 16481 bound_to 8455
   16.0146    8.4133   18.8357 LP  0  0  0  0  0  0  0  0  0  0  0  0  # atno 16486 bound_to 15454
   14.7440    8.0600   17.8728 LP  0  0  0  0  0  0  0  0  0  0  0  0  # atno 16487 bound_to 15454
   25.4218   14.0117   18.8411 LP  0  0  0  0  0  0  0  0  0  0  0  0  # atno 16508 bound_to 5415
   25.6488   15.1255   20.0134 LP  0  0  0  0  0  0  0  0  0  0  0  0  # atno 16509 bound_to 5415

> <Gold.Score>
     Fitness  S(hb_ext) S(vdw_ext)  S(hb_int)    S(int)      intcor
     37.32       1.69      25.96       0.00      -0.06      -0.77

> <Gold.Goldscore.Fitness>
37.3217

> <Gold.Goldscore.Internal.Vdw>
-0.4618

> <Gold.Goldscore.Internal.Torsion>
-0.3675

> <Gold.Goldscore.External.Vdw>
25.9569

> <Gold.Goldscore.Internal.HBond>
0.0000

> <Gold.Goldscore.External.HBond>
1.6917

> <Gold.Goldscore.Internal.Correction>
-0.7686

> <Gold.Goldscore.Hbonds>
donor molecule, donor type, donor heavy atom, donor atom, acceptor molecule, acceptor atom, score
      L1  H     8    22       P1  7865  0.85

> <Gold.Goldscore.Internal.Vdw.Weighted>
-0.4618

> <Gold.Goldscore.Internal.Torsion.Weighted>
-0.3675

> <Gold.Goldscore.External.Vdw.Weighted>
35.6907

> <Gold.Goldscore.Internal.HBond.Weighted>
0.0000

> <Gold.Goldscore.External.HBond.Weighted>
1.6917

> <Gold.Goldscore.Internal.Correction.Weighted>
-0.7686

> <Gold.Rescore>
     Score     S(PLP)   S(hbond)     S(cho)   S(metal)  DE(clash)   DE(tors)     intcor
     42.82     -41.04       0.94       0.00       0.00       0.00       0.52       ----

> <Gold.PLP.Fitness>
42.8182

> <Gold.PLP.PLP>
-41.0409

> <Gold.PLP.part.hbond>
-2.5010

> <Gold.PLP.part.metal>
0.0000

> <Gold.PLP.part.buried>
-5.2063

> <Gold.PLP.part.nonpolar>
-35.0578

> <Gold.PLP.part.repulsive>
0.5893

> <Gold.PLP.ligand.clash>
0.0000

> <Gold.PLP.ligand.torsion>
0.5154

> <Gold.PLP.Chemscore.Hbond>
0.9360

> <Gold.PLP.Chemscore.CHOScore>
0.0000

> <Gold.PLP.Chemscore.Metal>
0.0000

> <Gold.Chemscore.Hbonds>
donor molecule, donor type, donor heavy atom, donor atom, acceptor molecule, acceptor atom, score
      L1  H     8    22       P1  7865  0.63

> <Gold.PLP.Chemscore.Internal.Correction>
   9.000000E+99

#       Name:                CT1002167954
#       Creating user name   hitesit
#       Creation time:       Sun Apr 16 22:50:28 2023


#       File generated by GOLD software.
#

@<TRIPOS>MOLECULE
CT1002167954|ligand_prepared|mol2|1|dock8
    29    30     1
SMALL
NO_CHARGES


@<TRIPOS>ATOM
      1 C1          14.6069  13.9594  13.7584 C.3            1 RES1               0.0000
      2 C2          13.2040  13.5487  14.2505 C.ar           1 RES1               0.0000
      3 C3          14.7523  13.3863  12.3518 C.2            1 RES1               0.0000
      4 C4          14.6506  15.4824  13.8173 C.2            1 RES1               0.0000
      5 C5          15.7601  13.4142  14.6326 C.3            1 RES1               0.0000
      6 C6          13.0515  12.5302  15.1865 C.ar           1 RES1               0.0000
      7 C7          12.0553  14.1797  13.7806 C.ar           1 RES1               0.0000
      8 N8          14.6815  14.2569  11.3044 N.am           1 RES1               0.0000
      9 O9          14.8873  12.1838  12.1626 O.2            1 RES1               0.0000
     10 N10         14.7589  16.1678  12.6357 N.am           1 RES1               0.0000
     11 O11         14.5757  16.0955  14.8750 O.2            1 RES1               0.0000
     12 C12         17.1197  14.0032  14.2910 C.3            1 RES1               0.0000
     13 C13         11.7964  12.1579  15.6386 C.ar           1 RES1               0.0000
     14 C14         10.8011  13.8058  14.2338 C.ar           1 RES1               0.0000
     15 C15         14.7453  15.6251  11.3797 C.2            1 RES1               0.0000
     16 C16         10.6705  12.7956  15.1629 C.ar           1 RES1               0.0000
     17 O17         14.7916  16.3112  10.3627 O.2            1 RES1               0.0000
     18 H18         15.5369  13.6282  15.6851 H              1 RES1               0.0000
     19 H19         15.8077  12.3245  14.5148 H              1 RES1               0.0000
     20 H20         13.9259  12.0152  15.5704 H              1 RES1               0.0000
     21 H21         12.1339  14.9764  13.0485 H              1 RES1               0.0000
     22 H22         14.5708  13.8533  10.3796 H              1 RES1               0.0000
     23 H23         14.8589  17.1760  12.6982 H              1 RES1               0.0000
     24 H24         17.8928  13.5869  14.9335 H              1 RES1               0.0000
     25 H25         17.3851  13.7875  13.2581 H              1 RES1               0.0000
     26 H26         17.1159  15.0834  14.4215 H              1 RES1               0.0000
     27 H27         11.6989  11.3614  16.3688 H              1 RES1               0.0000
     28 H28          9.9176  14.3100  13.8562 H              1 RES1               0.0000
     29 H29          9.6873  12.5041  15.5175 H              1 RES1               0.0000
@<TRIPOS>BOND
    1    1    2 1     
    2    1    3 1     
    3    1    4 1     
    4    1    5 1     
    5    2    6 ar    
    6    2    7 ar    
    7    3    8 1     
    8    3    9 2     
    9    4   10 1     
   10    4   11 2     
   11    5   12 1     
   12    5   18 1     
   13    5   19 1     
   14    6   13 ar    
   15    6   20 1     
   16    7   14 ar    
   17    7   21 1     
   18    8   15 1     
   19    8   22 1     
   20   10   15 1     
   21   10   23 1     
   22   12   24 1     
   23   12   25 1     
   24   12   26 1     
   25   13   16 ar    
   26   13   27 1     
   27   14   16 ar    
   28   14   28 1     
   29   15   17 2     
   30   16   29 1     
@<TRIPOS>SUBSTRUCTURE
      1 RES1           1
@<TRIPOS>SET
DONOR_HYDROGENS      STATIC     ATOMS    <user>   **** ""
2 22 23
ATOM$RED        STATIC     ATOMS    COLORGROUP SYSTEM
2 22 23
@<TRIPOS>COMMENT
> <Gold.Version>
2022.3.0

> <Gold.Id.Protein>
unknown|3mvj_clean|pdb

> <Gold.Protein.RotatedTorsions>
[ 8490 8455 8453 8450 ] final  -25.52 input   60.02 | X-H torsion
[ 15484 15454 15453 15451 ] final  173.65 input   59.98 | X-H torsion
[ 5453 5415 5414 5412 ] final  -90.64 input   60.02 | X-H torsion
[ 7768 7713 7712 7711 ] final   58.38 input   60.03 | X-H torsion
[ 7530 7488 7487 7485 ] final  116.00 input   60.03 | X-H torsion

> <Gold.Protein.ActiveResidues>
 THR48   LEU49   GLY50   THR51   GLY52   ARG56   VAL57   MET58   LEU59   TYR69  
 ALA70   MET71   LYS72   GLU91   LEU95   VAL104  LYS105  LEU106  MET118  VAL119 
 MET120  GLU121  TYR122  VAL123  PRO124  GLY125  GLY126  GLU127  PHE129  TYR164 
 LYS168  PRO169  GLU170  ASN171  LEU172  LEU173  ILE174  GLN181  VAL182  THR183 
 ASP184  PHE185  THR324  PHE327  ASP328  TYR330 

> <Gold.Protein.RotatedAtoms>
   25.5454   15.0921   19.9673 H   0  0  0  0  0  0  0  0  0  0  0  0  # atno 5453 bound_to 5415
   10.4066   21.4870   14.3354 H   0  0  0  0  0  0  0  0  0  0  0  0  # atno 7530 bound_to 7488
    6.0542   13.3144   15.0181 H   0  0  0  0  0  0  0  0  0  0  0  0  # atno 7768 bound_to 7713
    7.3668   13.1790   14.0153 H   0  0  0  0  0  0  0  0  0  0  0  0  # atno 7769 bound_to 7713
    7.4640   12.6516   15.5837 H   0  0  0  0  0  0  0  0  0  0  0  0  # atno 7770 bound_to 7713
   14.2863   19.3628   14.9935 H   0  0  0  0  0  0  0  0  0  0  0  0  # atno 8490 bound_to 8455
   14.7502    8.2212   17.6422 H   0  0  0  0  0  0  0  0  0  0  0  0  # atno 15484 bound_to 15454
   15.6857   18.5712   15.2447 LP  0  0  0  0  0  0  0  0  0  0  0  0  # atno 16480 bound_to 8455
   14.7347   18.1726   13.9785 LP  0  0  0  0  0  0  0  0  0  0  0  0  # atno 16481 bound_to 8455
   16.0096    9.2511   17.6237 LP  0  0  0  0  0  0  0  0  0  0  0  0  # atno 16486 bound_to 15454
   15.8110    8.2217   18.8758 LP  0  0  0  0  0  0  0  0  0  0  0  0  # atno 16487 bound_to 15454
   26.9428   14.4603   19.4220 LP  0  0  0  0  0  0  0  0  0  0  0  0  # atno 16508 bound_to 5415
   25.5191   13.9616   18.7966 LP  0  0  0  0  0  0  0  0  0  0  0  0  # atno 16509 bound_to 5415

> <Gold.Score>
     Fitness  S(hb_ext) S(vdw_ext)  S(hb_int)    S(int)      intcor
     35.84       6.06      22.12       0.00      -0.63      -0.77

> <Gold.Goldscore.Fitness>
35.8357

> <Gold.Goldscore.Internal.Vdw>
-0.8930

> <Gold.Goldscore.Internal.Torsion>
-0.5103

> <Gold.Goldscore.External.Vdw>
22.1151

> <Gold.Goldscore.Internal.HBond>
0.0000

> <Gold.Goldscore.External.HBond>
6.0621

> <Gold.Goldscore.Internal.Correction>
-0.7686

> <Gold.Goldscore.Hbonds>
donor molecule, donor type, donor heavy atom, donor atom, acceptor molecule, acceptor atom, score
      P1  H  2793  2837       L1    17  1.00
      L1  H    10    23       P1  8455  0.03

> <Gold.Goldscore.Internal.Vdw.Weighted>
-0.8930

> <Gold.Goldscore.Internal.Torsion.Weighted>
-0.5103

> <Gold.Goldscore.External.Vdw.Weighted>
30.4082

> <Gold.Goldscore.Internal.HBond.Weighted>
0.0000

> <Gold.Goldscore.External.HBond.Weighted>
6.0621

> <Gold.Goldscore.Internal.Correction.Weighted>
-0.7686

> <Gold.Rescore>
     Score     S(PLP)   S(hbond)     S(cho)   S(metal)  DE(clash)   DE(tors)     intcor
     32.00     -29.63       1.00       0.00       0.00       0.00       0.32       ----

> <Gold.PLP.Fitness>
31.9987

> <Gold.PLP.PLP>
-29.6294

> <Gold.PLP.part.hbond>
-1.6624

> <Gold.PLP.part.metal>
0.0000

> <Gold.PLP.part.buried>
-6.5364

> <Gold.PLP.part.nonpolar>
-23.7844

> <Gold.PLP.part.repulsive>
0.5311

> <Gold.PLP.ligand.clash>
0.0000

> <Gold.PLP.ligand.torsion>
0.3153

> <Gold.PLP.Chemscore.Hbond>
1.0000

> <Gold.PLP.Chemscore.CHOScore>
0.0000

> <Gold.PLP.Chemscore.Metal>
0.0000

> <Gold.Chemscore.Hbonds>
donor molecule, donor type, donor heavy atom, donor atom, acceptor molecule, acceptor atom, score
      P1  H  2793  2837       L1    17  1.00

> <Gold.PLP.Chemscore.Internal.Correction>
   9.000000E+99

#       Name:                CT1002167954
#       Creating user name   hitesit
#       Creation time:       Sun Apr 16 22:50:22 2023


#       File generated by GOLD software.
#

@<TRIPOS>MOLECULE
CT1002167954|ligand_prepared|mol2|1|dock3
    29    30     1
SMALL
NO_CHARGES


@<TRIPOS>ATOM
      1 C1          16.0775  14.6662  14.1348 C.3            1 RES1               0.0000
      2 C2          15.7363  13.9361  12.8198 C.ar           1 RES1               0.0000
      3 C3          15.7425  13.6953  15.2633 C.2            1 RES1               0.0000
      4 C4          17.5548  15.0334  14.0480 C.2            1 RES1               0.0000
      5 C5          15.2734  15.9691  14.3529 C.3            1 RES1               0.0000
      6 C6          15.6365  14.6403  11.6236 C.ar           1 RES1               0.0000
      7 C7          15.5216  12.5608  12.7867 C.ar           1 RES1               0.0000
      8 N8          16.7826  13.0987  15.9131 N.am           1 RES1               0.0000
      9 O9          14.5828  13.4271  15.5523 O.2            1 RES1               0.0000
     10 N10         18.4179  14.4349  14.9281 N.am           1 RES1               0.0000
     11 O11         17.9815  15.8230  13.2146 O.2            1 RES1               0.0000
     12 C12         13.7956  15.8408  14.0184 C.3            1 RES1               0.0000
     13 C13         15.3360  13.9927  10.4367 C.ar           1 RES1               0.0000
     14 C14         15.2210  11.9152  11.5987 C.ar           1 RES1               0.0000
     15 C15         18.1033  13.4611  15.8364 C.2            1 RES1               0.0000
     16 C16         15.1285  12.6299  10.4233 C.ar           1 RES1               0.0000
     17 O17         18.9453  12.9317  16.5562 O.2            1 RES1               0.0000
     18 H18         15.3728  16.2740  15.4019 H              1 RES1               0.0000
     19 H19         15.7087  16.7610  13.7309 H              1 RES1               0.0000
     20 H20         15.7941  15.7137  11.6150 H              1 RES1               0.0000
     21 H21         15.5882  11.9784  13.6994 H              1 RES1               0.0000
     22 H22         16.5575  12.3101  16.5112 H              1 RES1               0.0000
     23 H23         19.3844  14.7440  14.9039 H              1 RES1               0.0000
     24 H24         13.2784  16.7827  14.1889 H              1 RES1               0.0000
     25 H25         13.6589  15.5631  12.9753 H              1 RES1               0.0000
     26 H26         13.3250  15.0790  14.6364 H              1 RES1               0.0000
     27 H27         15.2630  14.5599   9.5147 H              1 RES1               0.0000
     28 H28         15.0578  10.8426  11.5929 H              1 RES1               0.0000
     29 H29         14.8934  12.1228   9.4934 H              1 RES1               0.0000
@<TRIPOS>BOND
    1    1    2 1     
    2    1    3 1     
    3    1    4 1     
    4    1    5 1     
    5    2    6 ar    
    6    2    7 ar    
    7    3    8 1     
    8    3    9 2     
    9    4   10 1     
   10    4   11 2     
   11    5   12 1     
   12    5   18 1     
   13    5   19 1     
   14    6   13 ar    
   15    6   20 1     
   16    7   14 ar    
   17    7   21 1     
   18    8   15 1     
   19    8   22 1     
   20   10   15 1     
   21   10   23 1     
   22   12   24 1     
   23   12   25 1     
   24   12   26 1     
   25   13   16 ar    
   26   13   27 1     
   27   14   16 ar    
   28   14   28 1     
   29   15   17 2     
   30   16   29 1     
@<TRIPOS>SUBSTRUCTURE
      1 RES1           1
@<TRIPOS>SET
DONOR_HYDROGENS      STATIC     ATOMS    <user>   **** ""
2 22 23
ATOM$RED        STATIC     ATOMS    COLORGROUP SYSTEM
2 22 23
@<TRIPOS>COMMENT
> <Gold.Version>
2022.3.0

> <Gold.Id.Protein>
unknown|3mvj_clean|pdb

> <Gold.Protein.RotatedTorsions>
[ 8490 8455 8453 8450 ] final  -88.92 input   60.02 | X-H torsion
[ 15484 15454 15453 15451 ] final   10.43 input   59.98 | X-H torsion
[ 5453 5415 5414 5412 ] final -168.61 input   60.02 | X-H torsion
[ 7768 7713 7712 7711 ] final  -26.85 input   60.03 | X-H torsion
[ 7530 7488 7487 7485 ] final -102.73 input   60.03 | X-H torsion

> <Gold.Protein.ActiveResidues>
 THR48   LEU49   GLY50   THR51   GLY52   ARG56   VAL57   MET58   LEU59   TYR69  
 ALA70   MET71   LYS72   GLU91   LEU95   VAL104  LYS105  LEU106  MET118  VAL119 
 MET120  GLU121  TYR122  VAL123  PRO124  GLY125  GLY126  GLU127  PHE129  TYR164 
 LYS168  PRO169  GLU170  ASN171  LEU172  LEU173  ILE174  GLN181  VAL182  THR183 
 ASP184  PHE185  THR324  PHE327  ASP328  TYR330 

> <Gold.Protein.RotatedAtoms>
   26.7052   14.9088   19.8655 H   0  0  0  0  0  0  0  0  0  0  0  0  # atno 5453 bound_to 5415
    9.6916   20.3860   13.1550 H   0  0  0  0  0  0  0  0  0  0  0  0  # atno 7530 bound_to 7488
    6.9420   12.7673   15.7868 H   0  0  0  0  0  0  0  0  0  0  0  0  # atno 7768 bound_to 7713
    6.1838   13.4408   14.4759 H   0  0  0  0  0  0  0  0  0  0  0  0  # atno 7769 bound_to 7713
    7.7583   12.9370   14.3545 H   0  0  0  0  0  0  0  0  0  0  0  0  # atno 7770 bound_to 7713
   15.1133   19.2037   15.5019 H   0  0  0  0  0  0  0  0  0  0  0  0  # atno 8490 bound_to 8455
   16.2951    9.0599   18.2242 H   0  0  0  0  0  0  0  0  0  0  0  0  # atno 15484 bound_to 15454
   15.4862   18.0280   14.4405 LP  0  0  0  0  0  0  0  0  0  0  0  0  # atno 16480 bound_to 8455
   14.1011   18.8761   14.2706 LP  0  0  0  0  0  0  0  0  0  0  0  0  # atno 16481 bound_to 8455
   15.2317    7.9073   18.6575 LP  0  0  0  0  0  0  0  0  0  0  0  0  # atno 16486 bound_to 15454
   15.0326    8.7207   17.2557 LP  0  0  0  0  0  0  0  0  0  0  0  0  # atno 16487 bound_to 15454
   26.1846   13.8565   18.7381 LP  0  0  0  0  0  0  0  0  0  0  0  0  # atno 16508 bound_to 5415
   25.1101   14.7500   19.5830 LP  0  0  0  0  0  0  0  0  0  0  0  0  # atno 16509 bound_to 5415

> <Gold.Score>
     Fitness  S(hb_ext) S(vdw_ext)  S(hb_int)    S(int)      intcor
     35.62       0.00      28.09       0.00      -3.00      -0.77

> <Gold.Goldscore.Fitness>
35.6243

> <Gold.Goldscore.Internal.Vdw>
-2.9852

> <Gold.Goldscore.Internal.Torsion>
-0.7791

> <Gold.Goldscore.External.Vdw>
28.0873

> <Gold.Goldscore.Internal.HBond>
0.0000

> <Gold.Goldscore.External.HBond>
0.0000

> <Gold.Goldscore.Internal.Correction>
-0.7686

> <Gold.Goldscore.Internal.Vdw.Weighted>
-2.9852

> <Gold.Goldscore.Internal.Torsion.Weighted>
-0.7791

> <Gold.Goldscore.External.Vdw.Weighted>
38.6200

> <Gold.Goldscore.Internal.HBond.Weighted>
0.0000

> <Gold.Goldscore.External.HBond.Weighted>
0.0000

> <Gold.Goldscore.Internal.Correction.Weighted>
-0.7686

> <Gold.Rescore>
     Score     S(PLP)   S(hbond)     S(cho)   S(metal)  DE(clash)   DE(tors)     intcor
     34.23     -33.88       0.83       0.00       0.00       1.32       0.41       ----

> <Gold.PLP.Fitness>
34.2346

> <Gold.PLP.PLP>
-33.8822

> <Gold.PLP.part.hbond>
-0.9796

> <Gold.PLP.part.metal>
0.0000

> <Gold.PLP.part.buried>
-3.6950

> <Gold.PLP.part.nonpolar>
-32.1277

> <Gold.PLP.part.repulsive>
2.8245

> <Gold.PLP.ligand.clash>
1.3197

> <Gold.PLP.ligand.torsion>
0.4144

> <Gold.PLP.Chemscore.Hbond>
0.8336

> <Gold.PLP.Chemscore.CHOScore>
0.0000

> <Gold.PLP.Chemscore.Metal>
0.0000

> <Gold.Chemscore.Hbonds>
donor molecule, donor type, donor heavy atom, donor atom, acceptor molecule, acceptor atom, score
      L1  H     8    22       P1  5607  0.23

> <Gold.PLP.Chemscore.Internal.Correction>
   9.000000E+99

#       Name:                CT1002167954
#       Creating user name   hitesit
#       Creation time:       Sun Apr 16 22:50:26 2023


#       File generated by GOLD software.
#

@<TRIPOS>MOLECULE
CT1002167954|ligand_prepared|mol2|1|dock6
    29    30     1
SMALL
NO_CHARGES


@<TRIPOS>ATOM
      1 C1          14.9283  13.4919  13.5714 C.3            1 RES1               0.0000
      2 C2          16.2130  13.6680  14.4065 C.ar           1 RES1               0.0000
      3 C3          14.3282  12.1517  13.9860 C.2            1 RES1               0.0000
      4 C4          14.0453  14.6937  13.8887 C.2            1 RES1               0.0000
      5 C5          15.1736  13.4691  12.0447 C.3            1 RES1               0.0000
      6 C6          17.2240  14.5237  13.9794 C.ar           1 RES1               0.0000
      7 C7          16.4001  12.9847  15.6051 C.ar           1 RES1               0.0000
      8 N8          13.2129  12.1744  14.7705 N.am           1 RES1               0.0000
      9 O9          14.8484  11.0911  13.6623 O.2            1 RES1               0.0000
     10 N10         12.8621  14.4666  14.5416 N.am           1 RES1               0.0000
     11 O11         14.3712  15.8370  13.5939 O.2            1 RES1               0.0000
     12 C12         13.9747  12.9958  11.2381 C.3            1 RES1               0.0000
     13 C13         18.3789  14.6926  14.7250 C.ar           1 RES1               0.0000
     14 C14         17.5560  13.1549  16.3491 C.ar           1 RES1               0.0000
     15 C15         12.4203  13.2649  15.0242 C.2            1 RES1               0.0000
     16 C16         18.5455  14.0088  15.9104 C.ar           1 RES1               0.0000
     17 O17         11.3702  13.1495  15.6496 O.2            1 RES1               0.0000
     18 H18         15.4441  14.4799  11.7154 H              1 RES1               0.0000
     19 H19         16.0240  12.8089  11.8336 H              1 RES1               0.0000
     20 H20         17.1117  15.0685  13.0479 H              1 RES1               0.0000
     21 H21         15.6355  12.3069  15.9691 H              1 RES1               0.0000
     22 H22         12.9433  11.2997  15.2093 H              1 RES1               0.0000
     23 H23         12.2544  15.2676  14.6807 H              1 RES1               0.0000
     24 H24         14.2003  12.9988  10.1738 H              1 RES1               0.0000
     25 H25         13.6938  11.9838  11.5221 H              1 RES1               0.0000
     26 H26         13.1174  13.6448  11.4046 H              1 RES1               0.0000
     27 H27         19.1553  15.3648  14.3748 H              1 RES1               0.0000
     28 H28         17.6831  12.6141  17.2811 H              1 RES1               0.0000
     29 H29         19.4502  14.1415  16.4945 H              1 RES1               0.0000
@<TRIPOS>BOND
    1    1    2 1     
    2    1    3 1     
    3    1    4 1     
    4    1    5 1     
    5    2    6 ar    
    6    2    7 ar    
    7    3    8 1     
    8    3    9 2     
    9    4   10 1     
   10    4   11 2     
   11    5   12 1     
   12    5   18 1     
   13    5   19 1     
   14    6   13 ar    
   15    6   20 1     
   16    7   14 ar    
   17    7   21 1     
   18    8   15 1     
   19    8   22 1     
   20   10   15 1     
   21   10   23 1     
   22   12   24 1     
   23   12   25 1     
   24   12   26 1     
   25   13   16 ar    
   26   13   27 1     
   27   14   16 ar    
   28   14   28 1     
   29   15   17 2     
   30   16   29 1     
@<TRIPOS>SUBSTRUCTURE
      1 RES1           1
@<TRIPOS>SET
DONOR_HYDROGENS      STATIC     ATOMS    <user>   **** ""
2 22 23
ATOM$RED        STATIC     ATOMS    COLORGROUP SYSTEM
2 22 23
@<TRIPOS>COMMENT
> <Gold.Version>
2022.3.0

> <Gold.Id.Protein>
unknown|3mvj_clean|pdb

> <Gold.Protein.RotatedTorsions>
[ 8490 8455 8453 8450 ] final  165.68 input   60.02 | X-H torsion
[ 15484 15454 15453 15451 ] final   89.46 input   59.98 | X-H torsion
[ 5453 5415 5414 5412 ] final  100.11 input   60.02 | X-H torsion
[ 7768 7713 7712 7711 ] final  -88.85 input   60.03 | X-H torsion
[ 7530 7488 7487 7485 ] final   53.70 input   60.03 | X-H torsion

> <Gold.Protein.ActiveResidues>
 THR48   LEU49   GLY50   THR51   GLY52   ARG56   VAL57   MET58   LEU59   TYR69  
 ALA70   MET71   LYS72   GLU91   LEU95   VAL104  LYS105  LEU106  MET118  VAL119 
 MET120  GLU121  TYR122  VAL123  PRO124  GLY125  GLY126  GLU127  PHE129  TYR164 
 LYS168  PRO169  GLU170  ASN171  LEU172  LEU173  ILE174  GLN181  VAL182  THR183 
 ASP184  PHE185  THR324  PHE327  ASP328  TYR330 

> <Gold.Protein.RotatedAtoms>
   26.6020   13.9857   18.9004 H   0  0  0  0  0  0  0  0  0  0  0  0  # atno 5453 bound_to 5415
   10.9233   21.6858   13.5412 H   0  0  0  0  0  0  0  0  0  0  0  0  # atno 7530 bound_to 7488
    7.7547   12.6599   15.2401 H   0  0  0  0  0  0  0  0  0  0  0  0  # atno 7768 bound_to 7713
    6.1803   13.1461   15.4168 H   0  0  0  0  0  0  0  0  0  0  0  0  # atno 7769 bound_to 7713
    6.9491   13.3390   13.9610 H   0  0  0  0  0  0  0  0  0  0  0  0  # atno 7770 bound_to 7713
   15.6105   18.1034   14.6301 H   0  0  0  0  0  0  0  0  0  0  0  0  # atno 8490 bound_to 8455
   15.5577    9.1150   17.2907 H   0  0  0  0  0  0  0  0  0  0  0  0  # atno 15484 bound_to 15454
   14.1811   18.6992   14.1304 LP  0  0  0  0  0  0  0  0  0  0  0  0  # atno 16480 bound_to 8455
   14.9054   19.3134   15.4589 LP  0  0  0  0  0  0  0  0  0  0  0  0  # atno 16481 bound_to 8455
   16.1841    8.6347   18.7134 LP  0  0  0  0  0  0  0  0  0  0  0  0  # atno 16486 bound_to 15454
   14.8230    7.9378   18.1402 LP  0  0  0  0  0  0  0  0  0  0  0  0  # atno 16487 bound_to 15454
   25.0741   14.4276   19.2460 LP  0  0  0  0  0  0  0  0  0  0  0  0  # atno 16508 bound_to 5415
   26.3244   15.1078   20.0464 LP  0  0  0  0  0  0  0  0  0  0  0  0  # atno 16509 bound_to 5415

> <Gold.Score>
     Fitness  S(hb_ext) S(vdw_ext)  S(hb_int)    S(int)      intcor
     32.26       2.00      22.72       0.00      -0.99      -0.77

> <Gold.Goldscore.Fitness>
32.2594

> <Gold.Goldscore.Internal.Vdw>
-1.1306

> <Gold.Goldscore.Internal.Torsion>
-0.6244

> <Gold.Goldscore.External.Vdw>
22.7242

> <Gold.Goldscore.Internal.HBond>
0.0000

> <Gold.Goldscore.External.HBond>
2.0000

> <Gold.Goldscore.Internal.Correction>
-0.7686

> <Gold.Goldscore.Hbonds>
donor molecule, donor type, donor heavy atom, donor atom, acceptor molecule, acceptor atom, score
      L1  H    10    23       P1  7865  1.00

> <Gold.Goldscore.Internal.Vdw.Weighted>
-1.1306

> <Gold.Goldscore.Internal.Torsion.Weighted>
-0.6244

> <Gold.Goldscore.External.Vdw.Weighted>
31.2458

> <Gold.Goldscore.Internal.HBond.Weighted>
0.0000

> <Gold.Goldscore.External.HBond.Weighted>
2.0000

> <Gold.Goldscore.Internal.Correction.Weighted>
-0.7686

> <Gold.Rescore>
     Score     S(PLP)   S(hbond)     S(cho)   S(metal)  DE(clash)   DE(tors)     intcor
     35.66     -35.14       1.03       0.00       0.00       1.38       0.60       ----

> <Gold.PLP.Fitness>
35.6624

> <Gold.PLP.PLP>
-35.1378

> <Gold.PLP.part.hbond>
-2.7554

> <Gold.PLP.part.metal>
0.0000

> <Gold.PLP.part.buried>
-1.8474

> <Gold.PLP.part.nonpolar>
-31.2653

> <Gold.PLP.part.repulsive>
0.6846

> <Gold.PLP.ligand.clash>
1.3817

> <Gold.PLP.ligand.torsion>
0.5992

> <Gold.PLP.Chemscore.Hbond>
1.0349

> <Gold.PLP.Chemscore.CHOScore>
0.0000

> <Gold.PLP.Chemscore.Metal>
0.0000

> <Gold.Chemscore.Hbonds>
donor molecule, donor type, donor heavy atom, donor atom, acceptor molecule, acceptor atom, score
      L1  H    10    23       P1  7865  1.00

> <Gold.PLP.Chemscore.Internal.Correction>
   9.000000E+99

