#       Name:                GA Fitting Points
#       Creating user name   hitesit
#       Creation time:       Sun Apr 16 22:50:12 2023


#       Fitting Points Used by GA Software.
#

@<TRIPOS>MOLECULE
GA Fitting Points
  7458    0    0
SMALL
NO_CHARGES


@<TRIPOS>ATOM
      1 ****         7.2500  12.7500  10.5000 Du        
      2 ****         7.2500  12.7500  10.7500 Du        
      3 ****         7.2500  12.7500  11.0000 Du        
      4 ****         7.2500  12.7500  11.2500 Du        
      5 ****         7.2500  13.0000  10.5000 Du        
      6 ****         7.2500  13.0000  10.7500 Du        
      7 ****         7.2500  13.0000  11.0000 Du        
      8 ****         7.2500  13.0000  11.2500 Du        
      9 ****         7.2500  13.2500  10.5000 Du        
     10 ****         7.2500  13.2500  10.7500 Du        
     11 ****         7.2500  13.2500  11.0000 Du        
     12 ****         7.2500  13.2500  11.2500 Du        
     13 ****         7.2500  13.5000  10.5000 Du        
     14 ****         7.2500  13.5000  10.7500 Du        
     15 ****         7.2500  13.5000  11.0000 Du        
     16 ****         7.2500  13.5000  11.2500 Du        
     17 ****         7.2500  13.7500  10.0000 Du        
     18 ****         7.2500  13.7500  10.2500 Du        
     19 ****         7.2500  13.7500  10.5000 Du        
     20 ****         7.2500  13.7500  10.7500 Du        
     21 ****         7.2500  13.7500  11.0000 Du        
     22 ****         7.2500  13.7500  11.2500 Du        
     23 ****         7.2500  14.0000  10.0000 Du        
     24 ****         7.2500  14.0000  10.2500 Du        
     25 ****         7.2500  14.0000  10.5000 Du        
     26 ****         7.2500  14.0000  10.7500 Du        
     27 ****         7.2500  14.0000  11.0000 Du        
     28 ****         7.2500  14.0000  11.2500 Du        
     29 ****         7.2500  14.2500  10.2500 Du        
     30 ****         7.2500  14.2500  10.5000 Du        
     31 ****         7.5000  12.7500  10.5000 Du        
     32 ****         7.5000  12.7500  10.7500 Du        
     33 ****         7.5000  12.7500  11.0000 Du        
     34 ****         7.5000  12.7500  11.2500 Du        
     35 ****         7.5000  13.0000  10.5000 Du        
     36 ****         7.5000  13.0000  10.7500 Du        
     37 ****         7.5000  13.0000  11.0000 Du        
     38 ****         7.5000  13.0000  11.2500 Du        
     39 ****         7.5000  13.2500  10.5000 Du        
     40 ****         7.5000  13.2500  10.7500 Du        
     41 ****         7.5000  13.2500  11.0000 Du        
     42 ****         7.5000  13.2500  11.2500 Du        
     43 ****         7.5000  13.5000  10.5000 Du        
     44 ****         7.5000  13.5000  10.7500 Du        
     45 ****         7.5000  13.5000  11.0000 Du        
     46 ****         7.5000  13.5000  11.2500 Du        
     47 ****         7.5000  13.7500  10.0000 Du        
     48 ****         7.5000  13.7500  10.2500 Du        
     49 ****         7.5000  13.7500  10.5000 Du        
     50 ****         7.5000  13.7500  10.7500 Du        
     51 ****         7.5000  13.7500  11.0000 Du        
     52 ****         7.5000  13.7500  11.2500 Du        
     53 ****         7.5000  14.0000  10.0000 Du        
     54 ****         7.5000  14.0000  10.2500 Du        
     55 ****         7.5000  14.0000  10.5000 Du        
     56 ****         7.5000  14.0000  10.7500 Du        
     57 ****         7.5000  14.0000  11.0000 Du        
     58 ****         7.5000  14.2500   9.7500 Du        
     59 ****         7.5000  14.2500  10.0000 Du        
     60 ****         7.5000  14.2500  10.2500 Du        
     61 ****         7.5000  14.2500  10.5000 Du        
     62 ****         7.5000  14.5000  10.0000 Du        
     63 ****         7.5000  14.5000  10.2500 Du        
     64 ****         7.7500  12.0000  11.0000 Du        
     65 ****         7.7500  12.0000  11.2500 Du        
     66 ****         7.7500  12.2500  10.5000 Du        
     67 ****         7.7500  12.2500  10.7500 Du        
     68 ****         7.7500  12.2500  11.0000 Du        
     69 ****         7.7500  12.2500  11.2500 Du        
     70 ****         7.7500  12.5000  10.0000 Du        
     71 ****         7.7500  12.5000  10.2500 Du        
     72 ****         7.7500  12.5000  10.5000 Du        
     73 ****         7.7500  12.5000  10.7500 Du        
     74 ****         7.7500  12.5000  11.0000 Du        
     75 ****         7.7500  12.5000  11.2500 Du        
     76 ****         7.7500  12.7500  10.0000 Du        
     77 ****         7.7500  12.7500  10.2500 Du        
     78 ****         7.7500  12.7500  10.5000 Du        
     79 ****         7.7500  12.7500  10.7500 Du        
     80 ****         7.7500  12.7500  11.0000 Du        
     81 ****         7.7500  12.7500  11.2500 Du        
     82 ****         7.7500  13.0000   9.7500 Du        
     83 ****         7.7500  13.0000  10.0000 Du        
     84 ****         7.7500  13.0000  10.2500 Du        
     85 ****         7.7500  13.0000  10.5000 Du        
     86 ****         7.7500  13.0000  10.7500 Du        
     87 ****         7.7500  13.0000  11.0000 Du        
     88 ****         7.7500  13.0000  11.2500 Du        
     89 ****         7.7500  13.2500   9.7500 Du        
     90 ****         7.7500  13.2500  10.0000 Du        
     91 ****         7.7500  13.2500  10.2500 Du        
     92 ****         7.7500  13.2500  10.5000 Du        
     93 ****         7.7500  13.2500  10.7500 Du        
     94 ****         7.7500  13.2500  11.0000 Du        
     95 ****         7.7500  13.2500  11.2500 Du        
     96 ****         7.7500  13.5000   9.7500 Du        
     97 ****         7.7500  13.5000  10.0000 Du        
     98 ****         7.7500  13.5000  10.2500 Du        
     99 ****         7.7500  13.5000  10.5000 Du        
    100 ****         7.7500  13.5000  10.7500 Du        
    101 ****         7.7500  13.5000  11.0000 Du        
    102 ****         7.7500  13.5000  11.2500 Du        
    103 ****         7.7500  13.7500   9.7500 Du        
    104 ****         7.7500  13.7500  10.0000 Du        
    105 ****         7.7500  13.7500  10.2500 Du        
    106 ****         7.7500  13.7500  10.5000 Du        
    107 ****         7.7500  13.7500  10.7500 Du        
    108 ****         7.7500  13.7500  11.0000 Du        
    109 ****         7.7500  13.7500  11.2500 Du        
    110 ****         7.7500  14.0000   9.7500 Du        
    111 ****         7.7500  14.0000  10.0000 Du        
    112 ****         7.7500  14.0000  10.2500 Du        
    113 ****         7.7500  14.0000  10.5000 Du        
    114 ****         7.7500  14.0000  10.7500 Du        
    115 ****         7.7500  14.0000  11.0000 Du        
    116 ****         7.7500  14.2500   9.5000 Du        
    117 ****         7.7500  14.2500   9.7500 Du        
    118 ****         7.7500  14.2500  10.0000 Du        
    119 ****         7.7500  14.2500  10.2500 Du        
    120 ****         7.7500  14.2500  10.5000 Du        
    121 ****         7.7500  14.2500  10.7500 Du        
    122 ****         7.7500  14.5000   9.5000 Du        
    123 ****         7.7500  14.5000   9.7500 Du        
    124 ****         7.7500  14.5000  10.0000 Du        
    125 ****         7.7500  14.5000  10.2500 Du        
    126 ****         7.7500  14.7500   9.5000 Du        
    127 ****         7.7500  14.7500   9.7500 Du        
    128 ****         7.7500  14.7500  10.0000 Du        
    129 ****         7.7500  15.0000   9.5000 Du        
    130 ****         7.7500  15.0000   9.7500 Du        
    131 ****         7.7500  15.2500   9.5000 Du        
    132 ****         8.0000  12.0000  11.0000 Du        
    133 ****         8.0000  12.0000  11.2500 Du        
    134 ****         8.0000  12.2500  10.5000 Du        
    135 ****         8.0000  12.2500  10.7500 Du        
    136 ****         8.0000  12.2500  11.0000 Du        
    137 ****         8.0000  12.2500  11.2500 Du        
    138 ****         8.0000  12.5000  10.0000 Du        
    139 ****         8.0000  12.5000  10.2500 Du        
    140 ****         8.0000  12.5000  10.5000 Du        
    141 ****         8.0000  12.5000  10.7500 Du        
    142 ****         8.0000  12.5000  11.0000 Du        
    143 ****         8.0000  12.5000  11.2500 Du        
    144 ****         8.0000  12.7500   9.7500 Du        
    145 ****         8.0000  12.7500  10.0000 Du        
    146 ****         8.0000  12.7500  10.2500 Du        
    147 ****         8.0000  12.7500  10.5000 Du        
    148 ****         8.0000  12.7500  10.7500 Du        
    149 ****         8.0000  12.7500  11.0000 Du        
    150 ****         8.0000  12.7500  11.2500 Du        
    151 ****         8.0000  13.0000   9.7500 Du        
    152 ****         8.0000  13.0000  10.0000 Du        
    153 ****         8.0000  13.0000  10.2500 Du        
    154 ****         8.0000  13.0000  10.5000 Du        
    155 ****         8.0000  13.0000  10.7500 Du        
    156 ****         8.0000  13.0000  11.0000 Du        
    157 ****         8.0000  13.0000  11.2500 Du        
    158 ****         8.0000  13.2500   9.7500 Du        
    159 ****         8.0000  13.2500  10.0000 Du        
    160 ****         8.0000  13.2500  10.2500 Du        
    161 ****         8.0000  13.2500  10.5000 Du        
    162 ****         8.0000  13.2500  10.7500 Du        
    163 ****         8.0000  13.2500  11.0000 Du        
    164 ****         8.0000  13.2500  11.2500 Du        
    165 ****         8.0000  13.5000   9.7500 Du        
    166 ****         8.0000  13.5000  10.0000 Du        
    167 ****         8.0000  13.5000  10.2500 Du        
    168 ****         8.0000  13.5000  10.5000 Du        
    169 ****         8.0000  13.5000  10.7500 Du        
    170 ****         8.0000  13.5000  11.0000 Du        
    171 ****         8.0000  13.5000  11.2500 Du        
    172 ****         8.0000  13.7500   9.7500 Du        
    173 ****         8.0000  13.7500  10.0000 Du        
    174 ****         8.0000  13.7500  10.2500 Du        
    175 ****         8.0000  13.7500  10.5000 Du        
    176 ****         8.0000  13.7500  10.7500 Du        
    177 ****         8.0000  13.7500  11.0000 Du        
    178 ****         8.0000  13.7500  11.2500 Du        
    179 ****         8.0000  14.0000   9.5000 Du        
    180 ****         8.0000  14.0000   9.7500 Du        
    181 ****         8.0000  14.0000  10.0000 Du        
    182 ****         8.0000  14.0000  10.2500 Du        
    183 ****         8.0000  14.0000  10.5000 Du        
    184 ****         8.0000  14.0000  10.7500 Du        
    185 ****         8.0000  14.0000  11.0000 Du        
    186 ****         8.0000  14.0000  11.2500 Du        
    187 ****         8.0000  14.2500   9.5000 Du        
    188 ****         8.0000  14.2500   9.7500 Du        
    189 ****         8.0000  14.2500  10.0000 Du        
    190 ****         8.0000  14.2500  10.2500 Du        
    191 ****         8.0000  14.2500  10.5000 Du        
    192 ****         8.0000  14.2500  10.7500 Du        
    193 ****         8.0000  14.5000   9.2500 Du        
    194 ****         8.0000  14.5000   9.5000 Du        
    195 ****         8.0000  14.5000   9.7500 Du        
    196 ****         8.0000  14.5000  10.0000 Du        
    197 ****         8.0000  14.5000  10.2500 Du        
    198 ****         8.0000  14.7500   9.2500 Du        
    199 ****         8.0000  14.7500   9.5000 Du        
    200 ****         8.0000  14.7500   9.7500 Du        
    201 ****         8.0000  14.7500  10.0000 Du        
    202 ****         8.0000  14.7500  10.2500 Du        
    203 ****         8.0000  15.0000   9.0000 Du        
    204 ****         8.0000  15.0000   9.2500 Du        
    205 ****         8.0000  15.0000   9.5000 Du        
    206 ****         8.0000  15.0000   9.7500 Du        
    207 ****         8.0000  15.0000  10.0000 Du        
    208 ****         8.0000  15.2500   8.7500 Du        
    209 ****         8.0000  15.2500   9.0000 Du        
    210 ****         8.0000  15.2500   9.2500 Du        
    211 ****         8.0000  15.2500   9.5000 Du        
    212 ****         8.0000  15.2500   9.7500 Du        
    213 ****         8.0000  15.5000   8.7500 Du        
    214 ****         8.0000  15.5000   9.0000 Du        
    215 ****         8.0000  15.5000   9.2500 Du        
    216 ****         8.0000  15.5000   9.5000 Du        
    217 ****         8.0000  15.5000   9.7500 Du        
    218 ****         8.0000  15.7500   8.5000 Du        
    219 ****         8.0000  15.7500   8.7500 Du        
    220 ****         8.0000  15.7500   9.0000 Du        
    221 ****         8.0000  15.7500   9.2500 Du        
    222 ****         8.0000  15.7500   9.5000 Du        
    223 ****         8.0000  16.0000   8.5000 Du        
    224 ****         8.0000  16.0000   8.7500 Du        
    225 ****         8.0000  16.0000   9.0000 Du        
    226 ****         8.0000  16.0000   9.2500 Du        
    227 ****         8.0000  16.0000   9.5000 Du        
    228 ****         8.0000  16.2500   8.7500 Du        
    229 ****         8.0000  16.2500   9.0000 Du        
    230 ****         8.0000  16.2500   9.2500 Du        
    231 ****         8.0000  16.5000   9.0000 Du        
    232 ****         8.0000  16.5000   9.2500 Du        
    233 ****         8.0000  16.7500   9.0000 Du        
    234 ****         8.0000  16.7500   9.2500 Du        
    235 ****         8.2500  12.0000  11.0000 Du        
    236 ****         8.2500  12.0000  11.2500 Du        
    237 ****         8.2500  12.2500  10.5000 Du        
    238 ****         8.2500  12.2500  10.7500 Du        
    239 ****         8.2500  12.2500  11.0000 Du        
    240 ****         8.2500  12.2500  11.2500 Du        
    241 ****         8.2500  12.5000  10.0000 Du        
    242 ****         8.2500  12.5000  10.2500 Du        
    243 ****         8.2500  12.5000  10.5000 Du        
    244 ****         8.2500  12.5000  10.7500 Du        
    245 ****         8.2500  12.5000  11.0000 Du        
    246 ****         8.2500  12.5000  11.2500 Du        
    247 ****         8.2500  12.7500   9.7500 Du        
    248 ****         8.2500  12.7500  10.0000 Du        
    249 ****         8.2500  12.7500  10.2500 Du        
    250 ****         8.2500  12.7500  10.5000 Du        
    251 ****         8.2500  12.7500  10.7500 Du        
    252 ****         8.2500  12.7500  11.0000 Du        
    253 ****         8.2500  12.7500  11.2500 Du        
    254 ****         8.2500  13.0000   9.7500 Du        
    255 ****         8.2500  13.0000  10.0000 Du        
    256 ****         8.2500  13.0000  10.2500 Du        
    257 ****         8.2500  13.0000  10.5000 Du        
    258 ****         8.2500  13.0000  10.7500 Du        
    259 ****         8.2500  13.0000  11.0000 Du        
    260 ****         8.2500  13.0000  11.2500 Du        
    261 ****         8.2500  13.2500   9.7500 Du        
    262 ****         8.2500  13.2500  10.0000 Du        
    263 ****         8.2500  13.2500  10.2500 Du        
    264 ****         8.2500  13.2500  10.5000 Du        
    265 ****         8.2500  13.2500  10.7500 Du        
    266 ****         8.2500  13.2500  11.0000 Du        
    267 ****         8.2500  13.2500  11.2500 Du        
    268 ****         8.2500  13.5000   9.7500 Du        
    269 ****         8.2500  13.5000  10.0000 Du        
    270 ****         8.2500  13.5000  10.2500 Du        
    271 ****         8.2500  13.5000  10.5000 Du        
    272 ****         8.2500  13.5000  10.7500 Du        
    273 ****         8.2500  13.5000  11.0000 Du        
    274 ****         8.2500  13.5000  11.2500 Du        
    275 ****         8.2500  13.7500   9.5000 Du        
    276 ****         8.2500  13.7500   9.7500 Du        
    277 ****         8.2500  13.7500  10.0000 Du        
    278 ****         8.2500  13.7500  10.2500 Du        
    279 ****         8.2500  13.7500  10.5000 Du        
    280 ****         8.2500  13.7500  10.7500 Du        
    281 ****         8.2500  13.7500  11.0000 Du        
    282 ****         8.2500  13.7500  11.2500 Du        
    283 ****         8.2500  14.0000   9.5000 Du        
    284 ****         8.2500  14.0000   9.7500 Du        
    285 ****         8.2500  14.0000  10.0000 Du        
    286 ****         8.2500  14.0000  10.2500 Du        
    287 ****         8.2500  14.0000  10.5000 Du        
    288 ****         8.2500  14.0000  10.7500 Du        
    289 ****         8.2500  14.0000  11.0000 Du        
    290 ****         8.2500  14.0000  11.2500 Du        
    291 ****         8.2500  14.2500   9.2500 Du        
    292 ****         8.2500  14.2500   9.5000 Du        
    293 ****         8.2500  14.2500   9.7500 Du        
    294 ****         8.2500  14.2500  10.0000 Du        
    295 ****         8.2500  14.2500  10.2500 Du        
    296 ****         8.2500  14.2500  10.5000 Du        
    297 ****         8.2500  14.2500  10.7500 Du        
    298 ****         8.2500  14.2500  11.0000 Du        
    299 ****         8.2500  14.5000   9.2500 Du        
    300 ****         8.2500  14.5000   9.5000 Du        
    301 ****         8.2500  14.5000   9.7500 Du        
    302 ****         8.2500  14.5000  10.0000 Du        
    303 ****         8.2500  14.5000  10.2500 Du        
    304 ****         8.2500  14.5000  10.5000 Du        
    305 ****         8.2500  14.7500   9.0000 Du        
    306 ****         8.2500  14.7500   9.2500 Du        
    307 ****         8.2500  14.7500   9.5000 Du        
    308 ****         8.2500  14.7500   9.7500 Du        
    309 ****         8.2500  14.7500  10.0000 Du        
    310 ****         8.2500  14.7500  10.2500 Du        
    311 ****         8.2500  15.0000   8.7500 Du        
    312 ****         8.2500  15.0000   9.0000 Du        
    313 ****         8.2500  15.0000   9.2500 Du        
    314 ****         8.2500  15.0000   9.5000 Du        
    315 ****         8.2500  15.0000   9.7500 Du        
    316 ****         8.2500  15.0000  10.0000 Du        
    317 ****         8.2500  15.2500   8.5000 Du        
    318 ****         8.2500  15.2500   8.7500 Du        
    319 ****         8.2500  15.2500   9.0000 Du        
    320 ****         8.2500  15.2500   9.2500 Du        
    321 ****         8.2500  15.2500   9.5000 Du        
    322 ****         8.2500  15.2500   9.7500 Du        
    323 ****         8.2500  15.5000   8.2500 Du        
    324 ****         8.2500  15.5000   8.5000 Du        
    325 ****         8.2500  15.5000   8.7500 Du        
    326 ****         8.2500  15.5000   9.0000 Du        
    327 ****         8.2500  15.5000   9.2500 Du        
    328 ****         8.2500  15.5000   9.5000 Du        
    329 ****         8.2500  15.5000   9.7500 Du        
    330 ****         8.2500  15.7500   8.2500 Du        
    331 ****         8.2500  15.7500   8.5000 Du        
    332 ****         8.2500  15.7500   8.7500 Du        
    333 ****         8.2500  15.7500   9.0000 Du        
    334 ****         8.2500  15.7500   9.2500 Du        
    335 ****         8.2500  15.7500   9.5000 Du        
    336 ****         8.2500  16.0000   8.5000 Du        
    337 ****         8.2500  16.0000   8.7500 Du        
    338 ****         8.2500  16.0000   9.0000 Du        
    339 ****         8.2500  16.0000   9.2500 Du        
    340 ****         8.2500  16.0000   9.5000 Du        
    341 ****         8.2500  16.2500   8.7500 Du        
    342 ****         8.2500  16.2500   9.0000 Du        
    343 ****         8.2500  16.2500   9.2500 Du        
    344 ****         8.2500  16.2500   9.5000 Du        
    345 ****         8.2500  16.5000   8.7500 Du        
    346 ****         8.2500  16.5000   9.0000 Du        
    347 ****         8.2500  16.5000   9.2500 Du        
    348 ****         8.2500  16.7500   9.0000 Du        
    349 ****         8.2500  16.7500   9.2500 Du        
    350 ****         8.2500  17.0000   9.2500 Du        
    351 ****         8.5000  12.0000  11.0000 Du        
    352 ****         8.5000  12.0000  11.2500 Du        
    353 ****         8.5000  12.2500  10.5000 Du        
    354 ****         8.5000  12.2500  10.7500 Du        
    355 ****         8.5000  12.2500  11.0000 Du        
    356 ****         8.5000  12.2500  11.2500 Du        
    357 ****         8.5000  12.5000  10.0000 Du        
    358 ****         8.5000  12.5000  10.2500 Du        
    359 ****         8.5000  12.5000  10.5000 Du        
    360 ****         8.5000  12.5000  10.7500 Du        
    361 ****         8.5000  12.5000  11.0000 Du        
    362 ****         8.5000  12.5000  11.2500 Du        
    363 ****         8.5000  12.7500   9.7500 Du        
    364 ****         8.5000  12.7500  10.0000 Du        
    365 ****         8.5000  12.7500  10.2500 Du        
    366 ****         8.5000  12.7500  10.5000 Du        
    367 ****         8.5000  12.7500  10.7500 Du        
    368 ****         8.5000  12.7500  11.0000 Du        
    369 ****         8.5000  12.7500  11.2500 Du        
    370 ****         8.5000  13.0000   9.7500 Du        
    371 ****         8.5000  13.0000  10.0000 Du        
    372 ****         8.5000  13.0000  10.2500 Du        
    373 ****         8.5000  13.0000  10.5000 Du        
    374 ****         8.5000  13.0000  10.7500 Du        
    375 ****         8.5000  13.0000  11.0000 Du        
    376 ****         8.5000  13.0000  11.2500 Du        
    377 ****         8.5000  13.2500   9.5000 Du        
    378 ****         8.5000  13.2500   9.7500 Du        
    379 ****         8.5000  13.2500  10.0000 Du        
    380 ****         8.5000  13.2500  10.2500 Du        
    381 ****         8.5000  13.2500  10.5000 Du        
    382 ****         8.5000  13.2500  10.7500 Du        
    383 ****         8.5000  13.2500  11.0000 Du        
    384 ****         8.5000  13.2500  11.2500 Du        
    385 ****         8.5000  13.5000   9.5000 Du        
    386 ****         8.5000  13.5000   9.7500 Du        
    387 ****         8.5000  13.5000  10.0000 Du        
    388 ****         8.5000  13.5000  10.2500 Du        
    389 ****         8.5000  13.5000  10.5000 Du        
    390 ****         8.5000  13.5000  10.7500 Du        
    391 ****         8.5000  13.5000  11.0000 Du        
    392 ****         8.5000  13.5000  11.2500 Du        
    393 ****         8.5000  13.7500   9.5000 Du        
    394 ****         8.5000  13.7500   9.7500 Du        
    395 ****         8.5000  13.7500  10.0000 Du        
    396 ****         8.5000  13.7500  10.2500 Du        
    397 ****         8.5000  13.7500  10.5000 Du        
    398 ****         8.5000  13.7500  10.7500 Du        
    399 ****         8.5000  13.7500  11.0000 Du        
    400 ****         8.5000  13.7500  11.2500 Du        
    401 ****         8.5000  14.0000   9.2500 Du        
    402 ****         8.5000  14.0000   9.5000 Du        
    403 ****         8.5000  14.0000   9.7500 Du        
    404 ****         8.5000  14.0000  10.0000 Du        
    405 ****         8.5000  14.0000  10.2500 Du        
    406 ****         8.5000  14.0000  10.5000 Du        
    407 ****         8.5000  14.0000  10.7500 Du        
    408 ****         8.5000  14.0000  11.0000 Du        
    409 ****         8.5000  14.0000  11.2500 Du        
    410 ****         8.5000  14.2500   9.2500 Du        
    411 ****         8.5000  14.2500   9.5000 Du        
    412 ****         8.5000  14.2500   9.7500 Du        
    413 ****         8.5000  14.2500  10.0000 Du        
    414 ****         8.5000  14.2500  10.2500 Du        
    415 ****         8.5000  14.2500  10.5000 Du        
    416 ****         8.5000  14.2500  10.7500 Du        
    417 ****         8.5000  14.2500  11.0000 Du        
    418 ****         8.5000  14.5000   9.0000 Du        
    419 ****         8.5000  14.5000   9.2500 Du        
    420 ****         8.5000  14.5000   9.5000 Du        
    421 ****         8.5000  14.5000   9.7500 Du        
    422 ****         8.5000  14.5000  10.0000 Du        
    423 ****         8.5000  14.5000  10.2500 Du        
    424 ****         8.5000  14.5000  10.5000 Du        
    425 ****         8.5000  14.7500   8.7500 Du        
    426 ****         8.5000  14.7500   9.0000 Du        
    427 ****         8.5000  14.7500   9.2500 Du        
    428 ****         8.5000  14.7500   9.5000 Du        
    429 ****         8.5000  14.7500   9.7500 Du        
    430 ****         8.5000  14.7500  10.0000 Du        
    431 ****         8.5000  14.7500  10.2500 Du        
    432 ****         8.5000  15.0000   8.5000 Du        
    433 ****         8.5000  15.0000   8.7500 Du        
    434 ****         8.5000  15.0000   9.0000 Du        
    435 ****         8.5000  15.0000   9.2500 Du        
    436 ****         8.5000  15.0000   9.5000 Du        
    437 ****         8.5000  15.0000   9.7500 Du        
    438 ****         8.5000  15.0000  10.0000 Du        
    439 ****         8.5000  15.0000  10.2500 Du        
    440 ****         8.5000  15.2500   8.2500 Du        
    441 ****         8.5000  15.2500   8.5000 Du        
    442 ****         8.5000  15.2500   8.7500 Du        
    443 ****         8.5000  15.2500   9.0000 Du        
    444 ****         8.5000  15.2500   9.2500 Du        
    445 ****         8.5000  15.2500   9.5000 Du        
    446 ****         8.5000  15.2500   9.7500 Du        
    447 ****         8.5000  15.2500  10.0000 Du        
    448 ****         8.5000  15.5000   8.2500 Du        
    449 ****         8.5000  15.5000   8.5000 Du        
    450 ****         8.5000  15.5000   8.7500 Du        
    451 ****         8.5000  15.5000   9.0000 Du        
    452 ****         8.5000  15.5000   9.2500 Du        
    453 ****         8.5000  15.5000   9.5000 Du        
    454 ****         8.5000  15.5000   9.7500 Du        
    455 ****         8.5000  15.7500   8.2500 Du        
    456 ****         8.5000  15.7500   8.5000 Du        
    457 ****         8.5000  15.7500   8.7500 Du        
    458 ****         8.5000  15.7500   9.0000 Du        
    459 ****         8.5000  15.7500   9.2500 Du        
    460 ****         8.5000  15.7500   9.5000 Du        
    461 ****         8.5000  16.0000   8.5000 Du        
    462 ****         8.5000  16.0000   8.7500 Du        
    463 ****         8.5000  16.0000   9.0000 Du        
    464 ****         8.5000  16.0000   9.2500 Du        
    465 ****         8.5000  16.0000   9.5000 Du        
    466 ****         8.5000  16.2500   9.0000 Du        
    467 ****         8.7500  12.0000  11.0000 Du        
    468 ****         8.7500  12.0000  11.2500 Du        
    469 ****         8.7500  12.2500  10.5000 Du        
    470 ****         8.7500  12.2500  10.7500 Du        
    471 ****         8.7500  12.2500  11.0000 Du        
    472 ****         8.7500  12.2500  11.2500 Du        
    473 ****         8.7500  12.2500  11.5000 Du        
    474 ****         8.7500  12.5000  10.0000 Du        
    475 ****         8.7500  12.5000  10.2500 Du        
    476 ****         8.7500  12.5000  10.5000 Du        
    477 ****         8.7500  12.5000  10.7500 Du        
    478 ****         8.7500  12.5000  11.0000 Du        
    479 ****         8.7500  12.5000  11.2500 Du        
    480 ****         8.7500  12.5000  11.5000 Du        
    481 ****         8.7500  12.7500   9.7500 Du        
    482 ****         8.7500  12.7500  10.0000 Du        
    483 ****         8.7500  12.7500  10.2500 Du        
    484 ****         8.7500  12.7500  10.5000 Du        
    485 ****         8.7500  12.7500  10.7500 Du        
    486 ****         8.7500  12.7500  11.0000 Du        
    487 ****         8.7500  12.7500  11.2500 Du        
    488 ****         8.7500  12.7500  11.5000 Du        
    489 ****         8.7500  13.0000   9.5000 Du        
    490 ****         8.7500  13.0000   9.7500 Du        
    491 ****         8.7500  13.0000  10.0000 Du        
    492 ****         8.7500  13.0000  10.2500 Du        
    493 ****         8.7500  13.0000  10.5000 Du        
    494 ****         8.7500  13.0000  10.7500 Du        
    495 ****         8.7500  13.0000  11.0000 Du        
    496 ****         8.7500  13.0000  11.2500 Du        
    497 ****         8.7500  13.0000  11.5000 Du        
    498 ****         8.7500  13.2500   9.5000 Du        
    499 ****         8.7500  13.2500   9.7500 Du        
    500 ****         8.7500  13.2500  10.0000 Du        
    501 ****         8.7500  13.2500  10.2500 Du        
    502 ****         8.7500  13.2500  10.5000 Du        
    503 ****         8.7500  13.2500  10.7500 Du        
    504 ****         8.7500  13.2500  11.0000 Du        
    505 ****         8.7500  13.2500  11.2500 Du        
    506 ****         8.7500  13.2500  11.5000 Du        
    507 ****         8.7500  13.5000   9.5000 Du        
    508 ****         8.7500  13.5000   9.7500 Du        
    509 ****         8.7500  13.5000  10.0000 Du        
    510 ****         8.7500  13.5000  10.2500 Du        
    511 ****         8.7500  13.5000  10.5000 Du        
    512 ****         8.7500  13.5000  10.7500 Du        
    513 ****         8.7500  13.5000  11.0000 Du        
    514 ****         8.7500  13.5000  11.2500 Du        
    515 ****         8.7500  13.5000  11.5000 Du        
    516 ****         8.7500  13.7500   9.2500 Du        
    517 ****         8.7500  13.7500   9.5000 Du        
    518 ****         8.7500  13.7500   9.7500 Du        
    519 ****         8.7500  13.7500  10.0000 Du        
    520 ****         8.7500  13.7500  10.2500 Du        
    521 ****         8.7500  13.7500  10.5000 Du        
    522 ****         8.7500  13.7500  10.7500 Du        
    523 ****         8.7500  13.7500  11.0000 Du        
    524 ****         8.7500  13.7500  11.2500 Du        
    525 ****         8.7500  13.7500  11.5000 Du        
    526 ****         8.7500  14.0000   9.2500 Du        
    527 ****         8.7500  14.0000   9.5000 Du        
    528 ****         8.7500  14.0000   9.7500 Du        
    529 ****         8.7500  14.0000  10.0000 Du        
    530 ****         8.7500  14.0000  10.2500 Du        
    531 ****         8.7500  14.0000  10.5000 Du        
    532 ****         8.7500  14.0000  10.7500 Du        
    533 ****         8.7500  14.0000  11.0000 Du        
    534 ****         8.7500  14.0000  11.2500 Du        
    535 ****         8.7500  14.0000  11.5000 Du        
    536 ****         8.7500  14.2500   9.0000 Du        
    537 ****         8.7500  14.2500   9.2500 Du        
    538 ****         8.7500  14.2500   9.5000 Du        
    539 ****         8.7500  14.2500   9.7500 Du        
    540 ****         8.7500  14.2500  10.0000 Du        
    541 ****         8.7500  14.2500  10.2500 Du        
    542 ****         8.7500  14.2500  10.5000 Du        
    543 ****         8.7500  14.2500  10.7500 Du        
    544 ****         8.7500  14.2500  11.0000 Du        
    545 ****         8.7500  14.2500  11.2500 Du        
    546 ****         8.7500  14.5000   9.0000 Du        
    547 ****         8.7500  14.5000   9.2500 Du        
    548 ****         8.7500  14.5000   9.5000 Du        
    549 ****         8.7500  14.5000   9.7500 Du        
    550 ****         8.7500  14.5000  10.0000 Du        
    551 ****         8.7500  14.5000  10.2500 Du        
    552 ****         8.7500  14.5000  10.5000 Du        
    553 ****         8.7500  14.5000  10.7500 Du        
    554 ****         8.7500  14.7500   8.7500 Du        
    555 ****         8.7500  14.7500   9.0000 Du        
    556 ****         8.7500  14.7500   9.2500 Du        
    557 ****         8.7500  14.7500   9.5000 Du        
    558 ****         8.7500  14.7500   9.7500 Du        
    559 ****         8.7500  14.7500  10.0000 Du        
    560 ****         8.7500  14.7500  10.2500 Du        
    561 ****         8.7500  14.7500  10.5000 Du        
    562 ****         8.7500  15.0000   8.2500 Du        
    563 ****         8.7500  15.0000   8.5000 Du        
    564 ****         8.7500  15.0000   8.7500 Du        
    565 ****         8.7500  15.0000   9.0000 Du        
    566 ****         8.7500  15.0000   9.2500 Du        
    567 ****         8.7500  15.0000   9.5000 Du        
    568 ****         8.7500  15.0000   9.7500 Du        
    569 ****         8.7500  15.0000  10.0000 Du        
    570 ****         8.7500  15.0000  10.2500 Du        
    571 ****         8.7500  15.2500   8.0000 Du        
    572 ****         8.7500  15.2500   8.2500 Du        
    573 ****         8.7500  15.2500   8.5000 Du        
    574 ****         8.7500  15.2500   8.7500 Du        
    575 ****         8.7500  15.2500   9.0000 Du        
    576 ****         8.7500  15.2500   9.2500 Du        
    577 ****         8.7500  15.2500   9.5000 Du        
    578 ****         8.7500  15.2500   9.7500 Du        
    579 ****         8.7500  15.2500  10.0000 Du        
    580 ****         8.7500  15.5000   8.2500 Du        
    581 ****         8.7500  15.5000   8.5000 Du        
    582 ****         8.7500  15.5000   8.7500 Du        
    583 ****         8.7500  15.5000   9.0000 Du        
    584 ****         8.7500  15.5000   9.2500 Du        
    585 ****         8.7500  15.5000   9.5000 Du        
    586 ****         9.0000  12.0000  11.2500 Du        
    587 ****         9.0000  12.2500  10.2500 Du        
    588 ****         9.0000  12.2500  10.5000 Du        
    589 ****         9.0000  12.2500  10.7500 Du        
    590 ****         9.0000  12.2500  11.0000 Du        
    591 ****         9.0000  12.2500  11.2500 Du        
    592 ****         9.0000  12.2500  11.5000 Du        
    593 ****         9.0000  12.2500  11.7500 Du        
    594 ****         9.0000  12.5000   9.7500 Du        
    595 ****         9.0000  12.5000  10.0000 Du        
    596 ****         9.0000  12.5000  10.2500 Du        
    597 ****         9.0000  12.5000  10.5000 Du        
    598 ****         9.0000  12.5000  10.7500 Du        
    599 ****         9.0000  12.5000  11.0000 Du        
    600 ****         9.0000  12.5000  11.2500 Du        
    601 ****         9.0000  12.5000  11.5000 Du        
    602 ****         9.0000  12.7500   9.5000 Du        
    603 ****         9.0000  12.7500   9.7500 Du        
    604 ****         9.0000  12.7500  10.0000 Du        
    605 ****         9.0000  12.7500  10.2500 Du        
    606 ****         9.0000  12.7500  10.5000 Du        
    607 ****         9.0000  12.7500  10.7500 Du        
    608 ****         9.0000  12.7500  11.0000 Du        
    609 ****         9.0000  12.7500  11.2500 Du        
    610 ****         9.0000  12.7500  11.5000 Du        
    611 ****         9.0000  13.0000   9.5000 Du        
    612 ****         9.0000  13.0000   9.7500 Du        
    613 ****         9.0000  13.0000  10.0000 Du        
    614 ****         9.0000  13.0000  10.2500 Du        
    615 ****         9.0000  13.0000  10.5000 Du        
    616 ****         9.0000  13.0000  10.7500 Du        
    617 ****         9.0000  13.0000  11.0000 Du        
    618 ****         9.0000  13.0000  11.2500 Du        
    619 ****         9.0000  13.0000  11.5000 Du        
    620 ****         9.0000  13.2500   9.5000 Du        
    621 ****         9.0000  13.2500   9.7500 Du        
    622 ****         9.0000  13.2500  10.0000 Du        
    623 ****         9.0000  13.2500  10.2500 Du        
    624 ****         9.0000  13.2500  10.5000 Du        
    625 ****         9.0000  13.2500  10.7500 Du        
    626 ****         9.0000  13.2500  11.0000 Du        
    627 ****         9.0000  13.2500  11.2500 Du        
    628 ****         9.0000  13.2500  11.5000 Du        
    629 ****         9.0000  13.5000   9.2500 Du        
    630 ****         9.0000  13.5000   9.5000 Du        
    631 ****         9.0000  13.5000   9.7500 Du        
    632 ****         9.0000  13.5000  10.0000 Du        
    633 ****         9.0000  13.5000  10.2500 Du        
    634 ****         9.0000  13.5000  10.5000 Du        
    635 ****         9.0000  13.5000  10.7500 Du        
    636 ****         9.0000  13.5000  11.0000 Du        
    637 ****         9.0000  13.5000  11.2500 Du        
    638 ****         9.0000  13.5000  11.5000 Du        
    639 ****         9.0000  13.7500   9.2500 Du        
    640 ****         9.0000  13.7500   9.5000 Du        
    641 ****         9.0000  13.7500   9.7500 Du        
    642 ****         9.0000  13.7500  10.0000 Du        
    643 ****         9.0000  13.7500  10.2500 Du        
    644 ****         9.0000  13.7500  10.5000 Du        
    645 ****         9.0000  13.7500  10.7500 Du        
    646 ****         9.0000  13.7500  11.0000 Du        
    647 ****         9.0000  13.7500  11.2500 Du        
    648 ****         9.0000  13.7500  11.5000 Du        
    649 ****         9.0000  13.7500  11.7500 Du        
    650 ****         9.0000  14.0000   9.0000 Du        
    651 ****         9.0000  14.0000   9.2500 Du        
    652 ****         9.0000  14.0000   9.5000 Du        
    653 ****         9.0000  14.0000   9.7500 Du        
    654 ****         9.0000  14.0000  10.0000 Du        
    655 ****         9.0000  14.0000  10.2500 Du        
    656 ****         9.0000  14.0000  10.5000 Du        
    657 ****         9.0000  14.0000  10.7500 Du        
    658 ****         9.0000  14.0000  11.0000 Du        
    659 ****         9.0000  14.0000  11.2500 Du        
    660 ****         9.0000  14.0000  11.5000 Du        
    661 ****         9.0000  14.0000  11.7500 Du        
    662 ****         9.0000  14.2500   9.0000 Du        
    663 ****         9.0000  14.2500   9.2500 Du        
    664 ****         9.0000  14.2500   9.5000 Du        
    665 ****         9.0000  14.2500   9.7500 Du        
    666 ****         9.0000  14.2500  10.0000 Du        
    667 ****         9.0000  14.2500  10.2500 Du        
    668 ****         9.0000  14.2500  10.5000 Du        
    669 ****         9.0000  14.2500  10.7500 Du        
    670 ****         9.0000  14.2500  11.0000 Du        
    671 ****         9.0000  14.2500  11.2500 Du        
    672 ****         9.0000  14.5000   8.7500 Du        
    673 ****         9.0000  14.5000   9.0000 Du        
    674 ****         9.0000  14.5000   9.2500 Du        
    675 ****         9.0000  14.5000   9.5000 Du        
    676 ****         9.0000  14.5000   9.7500 Du        
    677 ****         9.0000  14.5000  10.0000 Du        
    678 ****         9.0000  14.5000  10.2500 Du        
    679 ****         9.0000  14.5000  10.5000 Du        
    680 ****         9.0000  14.5000  10.7500 Du        
    681 ****         9.0000  14.5000  11.0000 Du        
    682 ****         9.0000  14.7500   8.5000 Du        
    683 ****         9.0000  14.7500   8.7500 Du        
    684 ****         9.0000  14.7500   9.0000 Du        
    685 ****         9.0000  14.7500   9.2500 Du        
    686 ****         9.0000  14.7500   9.5000 Du        
    687 ****         9.0000  14.7500   9.7500 Du        
    688 ****         9.0000  14.7500  10.0000 Du        
    689 ****         9.0000  14.7500  10.2500 Du        
    690 ****         9.0000  14.7500  10.5000 Du        
    691 ****         9.0000  15.0000   8.2500 Du        
    692 ****         9.0000  15.0000   8.5000 Du        
    693 ****         9.0000  15.0000   8.7500 Du        
    694 ****         9.0000  15.0000   9.0000 Du        
    695 ****         9.0000  15.0000   9.2500 Du        
    696 ****         9.0000  15.0000   9.5000 Du        
    697 ****         9.0000  15.0000   9.7500 Du        
    698 ****         9.0000  15.0000  10.0000 Du        
    699 ****         9.0000  15.2500   8.2500 Du        
    700 ****         9.0000  15.2500   8.5000 Du        
    701 ****         9.0000  15.2500   8.7500 Du        
    702 ****         9.0000  15.2500   9.0000 Du        
    703 ****         9.2500  12.2500  10.0000 Du        
    704 ****         9.2500  12.2500  10.2500 Du        
    705 ****         9.2500  12.2500  10.5000 Du        
    706 ****         9.2500  12.2500  10.7500 Du        
    707 ****         9.2500  12.2500  11.0000 Du        
    708 ****         9.2500  12.2500  11.2500 Du        
    709 ****         9.2500  12.2500  11.5000 Du        
    710 ****         9.2500  12.2500  11.7500 Du        
    711 ****         9.2500  12.5000   9.7500 Du        
    712 ****         9.2500  12.5000  10.0000 Du        
    713 ****         9.2500  12.5000  10.2500 Du        
    714 ****         9.2500  12.5000  10.5000 Du        
    715 ****         9.2500  12.5000  10.7500 Du        
    716 ****         9.2500  12.5000  11.0000 Du        
    717 ****         9.2500  12.5000  11.2500 Du        
    718 ****         9.2500  12.5000  11.5000 Du        
    719 ****         9.2500  12.5000  11.7500 Du        
    720 ****         9.2500  12.7500   9.5000 Du        
    721 ****         9.2500  12.7500   9.7500 Du        
    722 ****         9.2500  12.7500  10.0000 Du        
    723 ****         9.2500  12.7500  10.2500 Du        
    724 ****         9.2500  12.7500  10.5000 Du        
    725 ****         9.2500  12.7500  10.7500 Du        
    726 ****         9.2500  12.7500  11.0000 Du        
    727 ****         9.2500  12.7500  11.2500 Du        
    728 ****         9.2500  12.7500  11.5000 Du        
    729 ****         9.2500  12.7500  11.7500 Du        
    730 ****         9.2500  13.0000   9.2500 Du        
    731 ****         9.2500  13.0000   9.5000 Du        
    732 ****         9.2500  13.0000   9.7500 Du        
    733 ****         9.2500  13.0000  10.0000 Du        
    734 ****         9.2500  13.0000  10.2500 Du        
    735 ****         9.2500  13.0000  10.5000 Du        
    736 ****         9.2500  13.0000  10.7500 Du        
    737 ****         9.2500  13.0000  11.0000 Du        
    738 ****         9.2500  13.0000  11.2500 Du        
    739 ****         9.2500  13.0000  11.5000 Du        
    740 ****         9.2500  13.0000  11.7500 Du        
    741 ****         9.2500  13.2500   9.2500 Du        
    742 ****         9.2500  13.2500   9.5000 Du        
    743 ****         9.2500  13.2500   9.7500 Du        
    744 ****         9.2500  13.2500  10.0000 Du        
    745 ****         9.2500  13.2500  10.2500 Du        
    746 ****         9.2500  13.2500  10.5000 Du        
    747 ****         9.2500  13.2500  10.7500 Du        
    748 ****         9.2500  13.2500  11.0000 Du        
    749 ****         9.2500  13.2500  11.2500 Du        
    750 ****         9.2500  13.2500  11.5000 Du        
    751 ****         9.2500  13.2500  11.7500 Du        
    752 ****         9.2500  13.5000   9.2500 Du        
    753 ****         9.2500  13.5000   9.5000 Du        
    754 ****         9.2500  13.5000   9.7500 Du        
    755 ****         9.2500  13.5000  10.0000 Du        
    756 ****         9.2500  13.5000  10.2500 Du        
    757 ****         9.2500  13.5000  10.5000 Du        
    758 ****         9.2500  13.5000  10.7500 Du        
    759 ****         9.2500  13.5000  11.0000 Du        
    760 ****         9.2500  13.5000  11.2500 Du        
    761 ****         9.2500  13.5000  11.5000 Du        
    762 ****         9.2500  13.5000  11.7500 Du        
    763 ****         9.2500  13.7500   9.0000 Du        
    764 ****         9.2500  13.7500   9.2500 Du        
    765 ****         9.2500  13.7500   9.5000 Du        
    766 ****         9.2500  13.7500   9.7500 Du        
    767 ****         9.2500  13.7500  10.0000 Du        
    768 ****         9.2500  13.7500  10.2500 Du        
    769 ****         9.2500  13.7500  10.5000 Du        
    770 ****         9.2500  13.7500  10.7500 Du        
    771 ****         9.2500  13.7500  11.0000 Du        
    772 ****         9.2500  13.7500  11.2500 Du        
    773 ****         9.2500  13.7500  11.5000 Du        
    774 ****         9.2500  13.7500  11.7500 Du        
    775 ****         9.2500  14.0000   9.0000 Du        
    776 ****         9.2500  14.0000   9.2500 Du        
    777 ****         9.2500  14.0000   9.5000 Du        
    778 ****         9.2500  14.0000   9.7500 Du        
    779 ****         9.2500  14.0000  10.0000 Du        
    780 ****         9.2500  14.0000  10.2500 Du        
    781 ****         9.2500  14.0000  10.5000 Du        
    782 ****         9.2500  14.0000  10.7500 Du        
    783 ****         9.2500  14.0000  11.0000 Du        
    784 ****         9.2500  14.0000  11.2500 Du        
    785 ****         9.2500  14.0000  11.5000 Du        
    786 ****         9.2500  14.0000  11.7500 Du        
    787 ****         9.2500  14.2500   9.0000 Du        
    788 ****         9.2500  14.2500   9.2500 Du        
    789 ****         9.2500  14.2500   9.5000 Du        
    790 ****         9.2500  14.2500   9.7500 Du        
    791 ****         9.2500  14.2500  10.0000 Du        
    792 ****         9.2500  14.2500  10.2500 Du        
    793 ****         9.2500  14.2500  10.5000 Du        
    794 ****         9.2500  14.2500  10.7500 Du        
    795 ****         9.2500  14.2500  11.0000 Du        
    796 ****         9.2500  14.2500  11.2500 Du        
    797 ****         9.2500  14.2500  11.5000 Du        
    798 ****         9.2500  14.5000   8.7500 Du        
    799 ****         9.2500  14.5000   9.0000 Du        
    800 ****         9.2500  14.5000   9.2500 Du        
    801 ****         9.2500  14.5000   9.5000 Du        
    802 ****         9.2500  14.5000   9.7500 Du        
    803 ****         9.2500  14.5000  10.0000 Du        
    804 ****         9.2500  14.5000  10.2500 Du        
    805 ****         9.2500  14.7500   8.5000 Du        
    806 ****         9.2500  14.7500   8.7500 Du        
    807 ****         9.2500  14.7500   9.0000 Du        
    808 ****         9.2500  14.7500   9.2500 Du        
    809 ****         9.2500  14.7500   9.5000 Du        
    810 ****         9.2500  14.7500   9.7500 Du        
    811 ****         9.2500  15.0000   8.2500 Du        
    812 ****         9.2500  15.0000   8.5000 Du        
    813 ****         9.2500  15.0000   8.7500 Du        
    814 ****         9.5000  12.2500  10.7500 Du        
    815 ****         9.5000  12.2500  11.0000 Du        
    816 ****         9.5000  12.2500  11.2500 Du        
    817 ****         9.5000  12.2500  11.5000 Du        
    818 ****         9.5000  12.2500  11.7500 Du        
    819 ****         9.5000  12.5000   9.5000 Du        
    820 ****         9.5000  12.5000   9.7500 Du        
    821 ****         9.5000  12.5000  10.0000 Du        
    822 ****         9.5000  12.5000  10.2500 Du        
    823 ****         9.5000  12.5000  10.5000 Du        
    824 ****         9.5000  12.5000  10.7500 Du        
    825 ****         9.5000  12.5000  11.0000 Du        
    826 ****         9.5000  12.5000  11.2500 Du        
    827 ****         9.5000  12.5000  11.5000 Du        
    828 ****         9.5000  12.5000  11.7500 Du        
    829 ****         9.5000  12.5000  12.0000 Du        
    830 ****         9.5000  12.7500   9.2500 Du        
    831 ****         9.5000  12.7500   9.5000 Du        
    832 ****         9.5000  12.7500   9.7500 Du        
    833 ****         9.5000  12.7500  10.0000 Du        
    834 ****         9.5000  12.7500  10.2500 Du        
    835 ****         9.5000  12.7500  10.5000 Du        
    836 ****         9.5000  12.7500  10.7500 Du        
    837 ****         9.5000  12.7500  11.0000 Du        
    838 ****         9.5000  12.7500  11.2500 Du        
    839 ****         9.5000  12.7500  11.5000 Du        
    840 ****         9.5000  12.7500  11.7500 Du        
    841 ****         9.5000  12.7500  12.0000 Du        
    842 ****         9.5000  13.0000   9.2500 Du        
    843 ****         9.5000  13.0000   9.5000 Du        
    844 ****         9.5000  13.0000   9.7500 Du        
    845 ****         9.5000  13.0000  10.0000 Du        
    846 ****         9.5000  13.0000  10.2500 Du        
    847 ****         9.5000  13.0000  10.5000 Du        
    848 ****         9.5000  13.0000  10.7500 Du        
    849 ****         9.5000  13.0000  11.0000 Du        
    850 ****         9.5000  13.0000  11.2500 Du        
    851 ****         9.5000  13.0000  11.5000 Du        
    852 ****         9.5000  13.0000  11.7500 Du        
    853 ****         9.5000  13.0000  12.0000 Du        
    854 ****         9.5000  13.2500   9.2500 Du        
    855 ****         9.5000  13.2500   9.5000 Du        
    856 ****         9.5000  13.2500   9.7500 Du        
    857 ****         9.5000  13.2500  10.0000 Du        
    858 ****         9.5000  13.2500  10.2500 Du        
    859 ****         9.5000  13.2500  10.5000 Du        
    860 ****         9.5000  13.2500  10.7500 Du        
    861 ****         9.5000  13.2500  11.0000 Du        
    862 ****         9.5000  13.2500  11.2500 Du        
    863 ****         9.5000  13.2500  11.5000 Du        
    864 ****         9.5000  13.2500  11.7500 Du        
    865 ****         9.5000  13.2500  12.0000 Du        
    866 ****         9.5000  13.5000   9.2500 Du        
    867 ****         9.5000  13.5000   9.5000 Du        
    868 ****         9.5000  13.5000   9.7500 Du        
    869 ****         9.5000  13.5000  10.0000 Du        
    870 ****         9.5000  13.5000  10.2500 Du        
    871 ****         9.5000  13.5000  10.5000 Du        
    872 ****         9.5000  13.5000  10.7500 Du        
    873 ****         9.5000  13.5000  11.0000 Du        
    874 ****         9.5000  13.5000  11.2500 Du        
    875 ****         9.5000  13.5000  11.5000 Du        
    876 ****         9.5000  13.5000  11.7500 Du        
    877 ****         9.5000  13.7500   9.0000 Du        
    878 ****         9.5000  13.7500   9.2500 Du        
    879 ****         9.5000  13.7500   9.5000 Du        
    880 ****         9.5000  13.7500   9.7500 Du        
    881 ****         9.5000  13.7500  10.0000 Du        
    882 ****         9.5000  13.7500  10.2500 Du        
    883 ****         9.5000  13.7500  10.5000 Du        
    884 ****         9.5000  13.7500  10.7500 Du        
    885 ****         9.5000  13.7500  11.0000 Du        
    886 ****         9.5000  13.7500  11.2500 Du        
    887 ****         9.5000  13.7500  11.5000 Du        
    888 ****         9.5000  13.7500  12.0000 Du        
    889 ****         9.5000  14.0000   9.0000 Du        
    890 ****         9.5000  14.0000   9.2500 Du        
    891 ****         9.5000  14.0000   9.5000 Du        
    892 ****         9.5000  14.0000   9.7500 Du        
    893 ****         9.5000  14.0000  10.0000 Du        
    894 ****         9.5000  14.0000  10.2500 Du        
    895 ****         9.5000  14.0000  10.5000 Du        
    896 ****         9.5000  14.0000  10.7500 Du        
    897 ****         9.5000  14.0000  11.0000 Du        
    898 ****         9.5000  14.0000  11.2500 Du        
    899 ****         9.5000  14.0000  11.7500 Du        
    900 ****         9.5000  14.2500   8.7500 Du        
    901 ****         9.5000  14.2500   9.0000 Du        
    902 ****         9.5000  14.2500   9.2500 Du        
    903 ****         9.5000  14.2500   9.5000 Du        
    904 ****         9.5000  14.2500   9.7500 Du        
    905 ****         9.5000  14.2500  10.0000 Du        
    906 ****         9.5000  14.2500  10.2500 Du        
    907 ****         9.5000  14.5000   8.7500 Du        
    908 ****         9.5000  14.5000   9.0000 Du        
    909 ****         9.5000  14.5000   9.2500 Du        
    910 ****         9.7500  12.2500  11.2500 Du        
    911 ****         9.7500  12.2500  11.5000 Du        
    912 ****         9.7500  12.2500  11.7500 Du        
    913 ****         9.7500  12.2500  12.0000 Du        
    914 ****         9.7500  12.5000   9.5000 Du        
    915 ****         9.7500  12.5000   9.7500 Du        
    916 ****         9.7500  12.5000  10.0000 Du        
    917 ****         9.7500  12.5000  10.2500 Du        
    918 ****         9.7500  12.5000  10.5000 Du        
    919 ****         9.7500  12.5000  10.7500 Du        
    920 ****         9.7500  12.5000  11.0000 Du        
    921 ****         9.7500  12.5000  11.2500 Du        
    922 ****         9.7500  12.5000  11.5000 Du        
    923 ****         9.7500  12.5000  11.7500 Du        
    924 ****         9.7500  12.5000  12.0000 Du        
    925 ****         9.7500  12.5000  12.2500 Du        
    926 ****         9.7500  12.7500   9.2500 Du        
    927 ****         9.7500  12.7500   9.5000 Du        
    928 ****         9.7500  12.7500   9.7500 Du        
    929 ****         9.7500  12.7500  10.0000 Du        
    930 ****         9.7500  12.7500  10.2500 Du        
    931 ****         9.7500  12.7500  10.5000 Du        
    932 ****         9.7500  12.7500  10.7500 Du        
    933 ****         9.7500  12.7500  11.0000 Du        
    934 ****         9.7500  12.7500  11.2500 Du        
    935 ****         9.7500  12.7500  11.5000 Du        
    936 ****         9.7500  12.7500  11.7500 Du        
    937 ****         9.7500  12.7500  12.0000 Du        
    938 ****         9.7500  12.7500  12.2500 Du        
    939 ****         9.7500  13.0000   9.2500 Du        
    940 ****         9.7500  13.0000   9.5000 Du        
    941 ****         9.7500  13.0000   9.7500 Du        
    942 ****         9.7500  13.0000  10.0000 Du        
    943 ****         9.7500  13.0000  10.2500 Du        
    944 ****         9.7500  13.0000  10.5000 Du        
    945 ****         9.7500  13.0000  10.7500 Du        
    946 ****         9.7500  13.0000  11.0000 Du        
    947 ****         9.7500  13.0000  11.2500 Du        
    948 ****         9.7500  13.0000  11.5000 Du        
    949 ****         9.7500  13.0000  11.7500 Du        
    950 ****         9.7500  13.0000  12.0000 Du        
    951 ****         9.7500  13.0000  12.2500 Du        
    952 ****         9.7500  13.2500   9.2500 Du        
    953 ****         9.7500  13.2500   9.5000 Du        
    954 ****         9.7500  13.2500   9.7500 Du        
    955 ****         9.7500  13.2500  10.0000 Du        
    956 ****         9.7500  13.2500  10.2500 Du        
    957 ****         9.7500  13.2500  10.5000 Du        
    958 ****         9.7500  13.2500  10.7500 Du        
    959 ****         9.7500  13.2500  11.0000 Du        
    960 ****         9.7500  13.2500  11.2500 Du        
    961 ****         9.7500  13.2500  11.5000 Du        
    962 ****         9.7500  13.2500  11.7500 Du        
    963 ****         9.7500  13.2500  12.0000 Du        
    964 ****         9.7500  13.2500  12.2500 Du        
    965 ****         9.7500  13.5000   9.2500 Du        
    966 ****         9.7500  13.5000   9.5000 Du        
    967 ****         9.7500  13.5000   9.7500 Du        
    968 ****         9.7500  13.5000  10.0000 Du        
    969 ****         9.7500  13.5000  10.2500 Du        
    970 ****         9.7500  13.5000  10.5000 Du        
    971 ****         9.7500  13.5000  10.7500 Du        
    972 ****         9.7500  13.5000  11.0000 Du        
    973 ****         9.7500  13.5000  11.2500 Du        
    974 ****         9.7500  13.5000  12.0000 Du        
    975 ****         9.7500  13.5000  12.2500 Du        
    976 ****         9.7500  13.7500   9.0000 Du        
    977 ****         9.7500  13.7500   9.2500 Du        
    978 ****         9.7500  13.7500   9.5000 Du        
    979 ****         9.7500  13.7500   9.7500 Du        
    980 ****         9.7500  13.7500  10.0000 Du        
    981 ****         9.7500  13.7500  10.2500 Du        
    982 ****         9.7500  13.7500  10.5000 Du        
    983 ****         9.7500  13.7500  10.7500 Du        
    984 ****         9.7500  13.7500  11.0000 Du        
    985 ****         9.7500  13.7500  11.2500 Du        
    986 ****         9.7500  13.7500  11.7500 Du        
    987 ****         9.7500  13.7500  12.0000 Du        
    988 ****         9.7500  13.7500  12.2500 Du        
    989 ****         9.7500  14.0000   9.0000 Du        
    990 ****         9.7500  14.0000   9.2500 Du        
    991 ****         9.7500  14.0000   9.5000 Du        
    992 ****         9.7500  14.0000   9.7500 Du        
    993 ****         9.7500  14.0000  10.0000 Du        
    994 ****         9.7500  14.2500   8.7500 Du        
    995 ****         9.7500  14.2500   9.0000 Du        
    996 ****         9.7500  14.2500   9.2500 Du        
    997 ****        10.0000  12.2500  11.7500 Du        
    998 ****        10.0000  12.2500  12.0000 Du        
    999 ****        10.0000  12.5000   9.2500 Du        
   1000 ****        10.0000  12.5000   9.5000 Du        
   1001 ****        10.0000  12.5000   9.7500 Du        
   1002 ****        10.0000  12.5000  10.0000 Du        
   1003 ****        10.0000  12.5000  10.2500 Du        
   1004 ****        10.0000  12.5000  10.5000 Du        
   1005 ****        10.0000  12.5000  10.7500 Du        
   1006 ****        10.0000  12.5000  11.0000 Du        
   1007 ****        10.0000  12.5000  11.2500 Du        
   1008 ****        10.0000  12.5000  11.5000 Du        
   1009 ****        10.0000  12.5000  11.7500 Du        
   1010 ****        10.0000  12.5000  12.0000 Du        
   1011 ****        10.0000  12.5000  12.2500 Du        
   1012 ****        10.0000  12.7500   9.2500 Du        
   1013 ****        10.0000  12.7500   9.5000 Du        
   1014 ****        10.0000  12.7500   9.7500 Du        
   1015 ****        10.0000  12.7500  10.0000 Du        
   1016 ****        10.0000  12.7500  10.2500 Du        
   1017 ****        10.0000  12.7500  10.5000 Du        
   1018 ****        10.0000  12.7500  10.7500 Du        
   1019 ****        10.0000  12.7500  11.0000 Du        
   1020 ****        10.0000  12.7500  11.2500 Du        
   1021 ****        10.0000  12.7500  11.5000 Du        
   1022 ****        10.0000  12.7500  11.7500 Du        
   1023 ****        10.0000  12.7500  12.0000 Du        
   1024 ****        10.0000  12.7500  12.2500 Du        
   1025 ****        10.0000  13.0000   9.2500 Du        
   1026 ****        10.0000  13.0000   9.5000 Du        
   1027 ****        10.0000  13.0000   9.7500 Du        
   1028 ****        10.0000  13.0000  10.0000 Du        
   1029 ****        10.0000  13.0000  10.2500 Du        
   1030 ****        10.0000  13.0000  10.5000 Du        
   1031 ****        10.0000  13.0000  10.7500 Du        
   1032 ****        10.0000  13.0000  11.0000 Du        
   1033 ****        10.0000  13.0000  11.2500 Du        
   1034 ****        10.0000  13.0000  11.5000 Du        
   1035 ****        10.0000  13.0000  11.7500 Du        
   1036 ****        10.0000  13.0000  12.0000 Du        
   1037 ****        10.0000  13.0000  12.2500 Du        
   1038 ****        10.0000  13.2500   9.0000 Du        
   1039 ****        10.0000  13.2500   9.2500 Du        
   1040 ****        10.0000  13.2500   9.5000 Du        
   1041 ****        10.0000  13.2500   9.7500 Du        
   1042 ****        10.0000  13.2500  10.0000 Du        
   1043 ****        10.0000  13.2500  10.2500 Du        
   1044 ****        10.0000  13.2500  10.5000 Du        
   1045 ****        10.0000  13.2500  10.7500 Du        
   1046 ****        10.0000  13.2500  11.0000 Du        
   1047 ****        10.0000  13.2500  11.2500 Du        
   1048 ****        10.0000  13.2500  11.5000 Du        
   1049 ****        10.0000  13.2500  11.7500 Du        
   1050 ****        10.0000  13.2500  12.0000 Du        
   1051 ****        10.0000  13.2500  12.2500 Du        
   1052 ****        10.0000  13.2500  12.5000 Du        
   1053 ****        10.0000  13.5000   9.0000 Du        
   1054 ****        10.0000  13.5000   9.2500 Du        
   1055 ****        10.0000  13.5000   9.5000 Du        
   1056 ****        10.0000  13.5000   9.7500 Du        
   1057 ****        10.0000  13.5000  10.0000 Du        
   1058 ****        10.0000  13.5000  10.2500 Du        
   1059 ****        10.0000  13.5000  12.0000 Du        
   1060 ****        10.0000  13.5000  12.2500 Du        
   1061 ****        10.0000  13.7500   9.0000 Du        
   1062 ****        10.0000  13.7500   9.2500 Du        
   1063 ****        10.0000  13.7500   9.5000 Du        
   1064 ****        10.0000  13.7500   9.7500 Du        
   1065 ****        10.0000  13.7500  10.0000 Du        
   1066 ****        10.0000  13.7500  12.2500 Du        
   1067 ****        10.0000  14.0000   8.7500 Du        
   1068 ****        10.0000  14.0000   9.0000 Du        
   1069 ****        10.0000  14.0000   9.2500 Du        
   1070 ****        10.2500  12.5000   9.2500 Du        
   1071 ****        10.2500  12.5000   9.5000 Du        
   1072 ****        10.2500  12.5000   9.7500 Du        
   1073 ****        10.2500  12.5000  10.0000 Du        
   1074 ****        10.2500  12.5000  10.2500 Du        
   1075 ****        10.2500  12.5000  11.0000 Du        
   1076 ****        10.2500  12.5000  11.2500 Du        
   1077 ****        10.2500  12.5000  11.7500 Du        
   1078 ****        10.2500  12.5000  12.0000 Du        
   1079 ****        10.2500  12.5000  12.2500 Du        
   1080 ****        10.2500  12.7500   9.0000 Du        
   1081 ****        10.2500  12.7500   9.2500 Du        
   1082 ****        10.2500  12.7500   9.5000 Du        
   1083 ****        10.2500  12.7500   9.7500 Du        
   1084 ****        10.2500  12.7500  10.0000 Du        
   1085 ****        10.2500  12.7500  10.2500 Du        
   1086 ****        10.2500  12.7500  10.5000 Du        
   1087 ****        10.2500  12.7500  10.7500 Du        
   1088 ****        10.2500  12.7500  11.0000 Du        
   1089 ****        10.2500  12.7500  11.2500 Du        
   1090 ****        10.2500  12.7500  11.5000 Du        
   1091 ****        10.2500  12.7500  11.7500 Du        
   1092 ****        10.2500  12.7500  12.0000 Du        
   1093 ****        10.2500  12.7500  12.2500 Du        
   1094 ****        10.2500  12.7500  12.5000 Du        
   1095 ****        10.2500  12.7500  12.7500 Du        
   1096 ****        10.2500  12.7500  13.0000 Du        
   1097 ****        10.2500  13.0000   9.0000 Du        
   1098 ****        10.2500  13.0000   9.2500 Du        
   1099 ****        10.2500  13.0000   9.5000 Du        
   1100 ****        10.2500  13.0000   9.7500 Du        
   1101 ****        10.2500  13.0000  10.0000 Du        
   1102 ****        10.2500  13.0000  10.2500 Du        
   1103 ****        10.2500  13.0000  10.5000 Du        
   1104 ****        10.2500  13.0000  10.7500 Du        
   1105 ****        10.2500  13.0000  11.0000 Du        
   1106 ****        10.2500  13.0000  11.2500 Du        
   1107 ****        10.2500  13.0000  11.5000 Du        
   1108 ****        10.2500  13.0000  11.7500 Du        
   1109 ****        10.2500  13.0000  12.0000 Du        
   1110 ****        10.2500  13.0000  12.2500 Du        
   1111 ****        10.2500  13.0000  12.5000 Du        
   1112 ****        10.2500  13.0000  12.7500 Du        
   1113 ****        10.2500  13.0000  13.0000 Du        
   1114 ****        10.2500  13.0000  13.2500 Du        
   1115 ****        10.2500  13.2500   9.0000 Du        
   1116 ****        10.2500  13.2500   9.2500 Du        
   1117 ****        10.2500  13.2500   9.5000 Du        
   1118 ****        10.2500  13.2500   9.7500 Du        
   1119 ****        10.2500  13.2500  10.0000 Du        
   1120 ****        10.2500  13.2500  10.2500 Du        
   1121 ****        10.2500  13.2500  10.5000 Du        
   1122 ****        10.2500  13.2500  10.7500 Du        
   1123 ****        10.2500  13.2500  11.2500 Du        
   1124 ****        10.2500  13.2500  11.7500 Du        
   1125 ****        10.2500  13.2500  12.0000 Du        
   1126 ****        10.2500  13.2500  12.2500 Du        
   1127 ****        10.2500  13.2500  12.5000 Du        
   1128 ****        10.2500  13.2500  12.7500 Du        
   1129 ****        10.2500  13.2500  13.0000 Du        
   1130 ****        10.2500  13.5000   9.0000 Du        
   1131 ****        10.2500  13.5000   9.2500 Du        
   1132 ****        10.2500  13.5000   9.5000 Du        
   1133 ****        10.2500  13.5000   9.7500 Du        
   1134 ****        10.2500  13.5000  10.0000 Du        
   1135 ****        10.2500  13.5000  13.0000 Du        
   1136 ****        10.2500  13.7500   9.0000 Du        
   1137 ****        10.2500  13.7500   9.2500 Du        
   1138 ****        10.2500  14.0000   9.0000 Du        
   1139 ****        10.2500  15.0000   5.5000 Du        
   1140 ****        10.2500  15.2500   5.5000 Du        
   1141 ****        10.5000  11.7500  14.0000 Du        
   1142 ****        10.5000  12.2500  12.7500 Du        
   1143 ****        10.5000  12.2500  13.0000 Du        
   1144 ****        10.5000  12.5000   9.2500 Du        
   1145 ****        10.5000  12.5000  13.0000 Du        
   1146 ****        10.5000  12.5000  13.2500 Du        
   1147 ****        10.5000  12.5000  13.5000 Du        
   1148 ****        10.5000  12.5000  13.7500 Du        
   1149 ****        10.5000  12.5000  14.0000 Du        
   1150 ****        10.5000  12.5000  14.2500 Du        
   1151 ****        10.5000  12.7500   9.0000 Du        
   1152 ****        10.5000  12.7500   9.2500 Du        
   1153 ****        10.5000  12.7500   9.5000 Du        
   1154 ****        10.5000  12.7500   9.7500 Du        
   1155 ****        10.5000  12.7500  10.0000 Du        
   1156 ****        10.5000  12.7500  11.2500 Du        
   1157 ****        10.5000  12.7500  12.2500 Du        
   1158 ****        10.5000  12.7500  12.5000 Du        
   1159 ****        10.5000  12.7500  12.7500 Du        
   1160 ****        10.5000  12.7500  13.0000 Du        
   1161 ****        10.5000  12.7500  13.2500 Du        
   1162 ****        10.5000  12.7500  13.5000 Du        
   1163 ****        10.5000  12.7500  13.7500 Du        
   1164 ****        10.5000  12.7500  14.0000 Du        
   1165 ****        10.5000  13.0000   9.0000 Du        
   1166 ****        10.5000  13.0000   9.2500 Du        
   1167 ****        10.5000  13.0000   9.5000 Du        
   1168 ****        10.5000  13.0000   9.7500 Du        
   1169 ****        10.5000  13.0000  10.0000 Du        
   1170 ****        10.5000  13.0000  10.2500 Du        
   1171 ****        10.5000  13.0000  10.5000 Du        
   1172 ****        10.5000  13.0000  10.7500 Du        
   1173 ****        10.5000  13.0000  12.0000 Du        
   1174 ****        10.5000  13.0000  12.2500 Du        
   1175 ****        10.5000  13.0000  12.5000 Du        
   1176 ****        10.5000  13.0000  12.7500 Du        
   1177 ****        10.5000  13.0000  13.0000 Du        
   1178 ****        10.5000  13.0000  13.2500 Du        
   1179 ****        10.5000  13.0000  13.5000 Du        
   1180 ****        10.5000  13.0000  13.7500 Du        
   1181 ****        10.5000  13.2500   9.0000 Du        
   1182 ****        10.5000  13.2500   9.2500 Du        
   1183 ****        10.5000  13.2500   9.5000 Du        
   1184 ****        10.5000  13.2500   9.7500 Du        
   1185 ****        10.5000  13.2500  10.0000 Du        
   1186 ****        10.5000  13.2500  12.5000 Du        
   1187 ****        10.5000  13.2500  12.7500 Du        
   1188 ****        10.5000  13.2500  13.0000 Du        
   1189 ****        10.5000  13.2500  13.2500 Du        
   1190 ****        10.5000  13.2500  13.5000 Du        
   1191 ****        10.5000  13.5000   9.0000 Du        
   1192 ****        10.5000  13.5000   9.2500 Du        
   1193 ****        10.5000  13.5000  12.7500 Du        
   1194 ****        10.5000  13.5000  13.0000 Du        
   1195 ****        10.5000  13.5000  13.2500 Du        
   1196 ****        10.5000  13.7500   9.0000 Du        
   1197 ****        10.5000  13.7500  12.7500 Du        
   1198 ****        10.5000  13.7500  13.0000 Du        
   1199 ****        10.5000  15.0000   5.5000 Du        
   1200 ****        10.5000  15.2500   5.5000 Du        
   1201 ****        10.7500  10.7500  15.2500 Du        
   1202 ****        10.7500  11.0000  15.0000 Du        
   1203 ****        10.7500  11.0000  15.2500 Du        
   1204 ****        10.7500  11.2500  14.5000 Du        
   1205 ****        10.7500  11.5000  14.2500 Du        
   1206 ****        10.7500  11.5000  14.7500 Du        
   1207 ****        10.7500  11.7500  13.7500 Du        
   1208 ****        10.7500  11.7500  14.0000 Du        
   1209 ****        10.7500  11.7500  14.2500 Du        
   1210 ****        10.7500  11.7500  14.5000 Du        
   1211 ****        10.7500  11.7500  14.7500 Du        
   1212 ****        10.7500  11.7500  15.0000 Du        
   1213 ****        10.7500  12.0000  13.7500 Du        
   1214 ****        10.7500  12.0000  14.0000 Du        
   1215 ****        10.7500  12.0000  14.2500 Du        
   1216 ****        10.7500  12.0000  14.5000 Du        
   1217 ****        10.7500  12.0000  14.7500 Du        
   1218 ****        10.7500  12.0000  15.0000 Du        
   1219 ****        10.7500  12.2500  13.2500 Du        
   1220 ****        10.7500  12.2500  13.5000 Du        
   1221 ****        10.7500  12.2500  13.7500 Du        
   1222 ****        10.7500  12.2500  14.0000 Du        
   1223 ****        10.7500  12.2500  14.2500 Du        
   1224 ****        10.7500  12.2500  14.5000 Du        
   1225 ****        10.7500  12.2500  14.7500 Du        
   1226 ****        10.7500  12.5000  13.0000 Du        
   1227 ****        10.7500  12.5000  13.2500 Du        
   1228 ****        10.7500  12.5000  13.5000 Du        
   1229 ****        10.7500  12.5000  13.7500 Du        
   1230 ****        10.7500  12.5000  14.0000 Du        
   1231 ****        10.7500  12.5000  14.2500 Du        
   1232 ****        10.7500  12.5000  14.5000 Du        
   1233 ****        10.7500  12.5000  14.7500 Du        
   1234 ****        10.7500  12.7500   9.0000 Du        
   1235 ****        10.7500  12.7500   9.2500 Du        
   1236 ****        10.7500  12.7500   9.5000 Du        
   1237 ****        10.7500  12.7500   9.7500 Du        
   1238 ****        10.7500  12.7500  12.7500 Du        
   1239 ****        10.7500  12.7500  13.0000 Du        
   1240 ****        10.7500  12.7500  13.2500 Du        
   1241 ****        10.7500  12.7500  13.5000 Du        
   1242 ****        10.7500  12.7500  13.7500 Du        
   1243 ****        10.7500  12.7500  14.0000 Du        
   1244 ****        10.7500  12.7500  14.2500 Du        
   1245 ****        10.7500  12.7500  14.5000 Du        
   1246 ****        10.7500  12.7500  14.7500 Du        
   1247 ****        10.7500  13.0000   8.7500 Du        
   1248 ****        10.7500  13.0000   9.0000 Du        
   1249 ****        10.7500  13.0000   9.2500 Du        
   1250 ****        10.7500  13.0000   9.5000 Du        
   1251 ****        10.7500  13.0000   9.7500 Du        
   1252 ****        10.7500  13.0000  10.0000 Du        
   1253 ****        10.7500  13.0000  12.5000 Du        
   1254 ****        10.7500  13.0000  12.7500 Du        
   1255 ****        10.7500  13.0000  13.0000 Du        
   1256 ****        10.7500  13.0000  13.2500 Du        
   1257 ****        10.7500  13.0000  13.5000 Du        
   1258 ****        10.7500  13.0000  13.7500 Du        
   1259 ****        10.7500  13.0000  14.0000 Du        
   1260 ****        10.7500  13.0000  14.2500 Du        
   1261 ****        10.7500  13.0000  14.5000 Du        
   1262 ****        10.7500  13.2500   8.7500 Du        
   1263 ****        10.7500  13.2500   9.0000 Du        
   1264 ****        10.7500  13.2500   9.2500 Du        
   1265 ****        10.7500  13.2500   9.5000 Du        
   1266 ****        10.7500  13.2500   9.7500 Du        
   1267 ****        10.7500  13.2500  12.5000 Du        
   1268 ****        10.7500  13.2500  12.7500 Du        
   1269 ****        10.7500  13.2500  13.0000 Du        
   1270 ****        10.7500  13.2500  13.2500 Du        
   1271 ****        10.7500  13.2500  13.5000 Du        
   1272 ****        10.7500  13.2500  13.7500 Du        
   1273 ****        10.7500  13.2500  14.0000 Du        
   1274 ****        10.7500  13.5000   8.7500 Du        
   1275 ****        10.7500  13.5000   9.0000 Du        
   1276 ****        10.7500  13.5000   9.2500 Du        
   1277 ****        10.7500  13.5000  12.7500 Du        
   1278 ****        10.7500  13.5000  13.0000 Du        
   1279 ****        10.7500  13.5000  13.2500 Du        
   1280 ****        10.7500  13.5000  13.5000 Du        
   1281 ****        10.7500  13.5000  13.7500 Du        
   1282 ****        10.7500  13.7500   8.7500 Du        
   1283 ****        10.7500  13.7500  13.0000 Du        
   1284 ****        10.7500  13.7500  13.2500 Du        
   1285 ****        10.7500  14.5000   5.0000 Du        
   1286 ****        10.7500  14.7500   5.0000 Du        
   1287 ****        10.7500  14.7500   5.2500 Du        
   1288 ****        10.7500  14.7500   5.5000 Du        
   1289 ****        10.7500  15.0000   5.0000 Du        
   1290 ****        10.7500  15.0000   5.2500 Du        
   1291 ****        10.7500  15.0000   5.5000 Du        
   1292 ****        10.7500  15.0000   5.7500 Du        
   1293 ****        10.7500  15.2500   5.0000 Du        
   1294 ****        10.7500  15.2500   5.2500 Du        
   1295 ****        10.7500  15.2500   5.5000 Du        
   1296 ****        10.7500  15.5000   5.0000 Du        
   1297 ****        10.7500  15.5000   5.2500 Du        
   1298 ****        10.7500  15.7500   5.0000 Du        
   1299 ****        11.0000  10.7500  15.2500 Du        
   1300 ****        11.0000  11.0000  14.7500 Du        
   1301 ****        11.0000  11.0000  15.0000 Du        
   1302 ****        11.0000  11.0000  15.2500 Du        
   1303 ****        11.0000  11.2500  14.7500 Du        
   1304 ****        11.0000  11.2500  15.0000 Du        
   1305 ****        11.0000  11.5000  14.2500 Du        
   1306 ****        11.0000  11.5000  14.7500 Du        
   1307 ****        11.0000  11.5000  15.0000 Du        
   1308 ****        11.0000  11.7500  14.0000 Du        
   1309 ****        11.0000  11.7500  14.2500 Du        
   1310 ****        11.0000  11.7500  14.5000 Du        
   1311 ****        11.0000  11.7500  14.7500 Du        
   1312 ****        11.0000  11.7500  15.0000 Du        
   1313 ****        11.0000  12.0000  13.7500 Du        
   1314 ****        11.0000  12.0000  14.0000 Du        
   1315 ****        11.0000  12.0000  14.2500 Du        
   1316 ****        11.0000  12.0000  14.5000 Du        
   1317 ****        11.0000  12.0000  14.7500 Du        
   1318 ****        11.0000  12.0000  15.0000 Du        
   1319 ****        11.0000  12.2500  13.2500 Du        
   1320 ****        11.0000  12.2500  13.5000 Du        
   1321 ****        11.0000  12.2500  13.7500 Du        
   1322 ****        11.0000  12.2500  14.0000 Du        
   1323 ****        11.0000  12.2500  14.2500 Du        
   1324 ****        11.0000  12.2500  14.5000 Du        
   1325 ****        11.0000  12.2500  14.7500 Du        
   1326 ****        11.0000  12.2500  15.0000 Du        
   1327 ****        11.0000  12.5000  13.0000 Du        
   1328 ****        11.0000  12.5000  13.2500 Du        
   1329 ****        11.0000  12.5000  13.5000 Du        
   1330 ****        11.0000  12.5000  13.7500 Du        
   1331 ****        11.0000  12.5000  14.0000 Du        
   1332 ****        11.0000  12.5000  14.2500 Du        
   1333 ****        11.0000  12.5000  14.5000 Du        
   1334 ****        11.0000  12.5000  14.7500 Du        
   1335 ****        11.0000  12.7500   8.7500 Du        
   1336 ****        11.0000  12.7500   9.0000 Du        
   1337 ****        11.0000  12.7500   9.2500 Du        
   1338 ****        11.0000  12.7500  12.7500 Du        
   1339 ****        11.0000  12.7500  13.0000 Du        
   1340 ****        11.0000  12.7500  13.2500 Du        
   1341 ****        11.0000  12.7500  13.5000 Du        
   1342 ****        11.0000  12.7500  13.7500 Du        
   1343 ****        11.0000  12.7500  14.0000 Du        
   1344 ****        11.0000  12.7500  14.2500 Du        
   1345 ****        11.0000  12.7500  14.5000 Du        
   1346 ****        11.0000  12.7500  14.7500 Du        
   1347 ****        11.0000  13.0000   8.5000 Du        
   1348 ****        11.0000  13.0000   8.7500 Du        
   1349 ****        11.0000  13.0000   9.0000 Du        
   1350 ****        11.0000  13.0000   9.2500 Du        
   1351 ****        11.0000  13.0000   9.5000 Du        
   1352 ****        11.0000  13.0000   9.7500 Du        
   1353 ****        11.0000  13.0000  12.7500 Du        
   1354 ****        11.0000  13.0000  13.0000 Du        
   1355 ****        11.0000  13.0000  13.2500 Du        
   1356 ****        11.0000  13.0000  13.5000 Du        
   1357 ****        11.0000  13.0000  13.7500 Du        
   1358 ****        11.0000  13.0000  14.0000 Du        
   1359 ****        11.0000  13.0000  14.2500 Du        
   1360 ****        11.0000  13.0000  14.5000 Du        
   1361 ****        11.0000  13.0000  14.7500 Du        
   1362 ****        11.0000  13.2500   8.5000 Du        
   1363 ****        11.0000  13.2500   8.7500 Du        
   1364 ****        11.0000  13.2500   9.0000 Du        
   1365 ****        11.0000  13.2500   9.2500 Du        
   1366 ****        11.0000  13.2500   9.5000 Du        
   1367 ****        11.0000  13.2500  12.7500 Du        
   1368 ****        11.0000  13.2500  13.0000 Du        
   1369 ****        11.0000  13.2500  13.2500 Du        
   1370 ****        11.0000  13.2500  13.5000 Du        
   1371 ****        11.0000  13.2500  13.7500 Du        
   1372 ****        11.0000  13.2500  14.0000 Du        
   1373 ****        11.0000  13.2500  14.2500 Du        
   1374 ****        11.0000  13.2500  14.5000 Du        
   1375 ****        11.0000  13.5000   8.5000 Du        
   1376 ****        11.0000  13.5000   8.7500 Du        
   1377 ****        11.0000  13.5000   9.0000 Du        
   1378 ****        11.0000  13.5000  13.0000 Du        
   1379 ****        11.0000  13.5000  13.2500 Du        
   1380 ****        11.0000  13.5000  13.5000 Du        
   1381 ****        11.0000  13.5000  13.7500 Du        
   1382 ****        11.0000  13.5000  14.0000 Du        
   1383 ****        11.0000  13.7500  13.0000 Du        
   1384 ****        11.0000  13.7500  13.2500 Du        
   1385 ****        11.0000  14.5000   5.0000 Du        
   1386 ****        11.0000  14.5000   5.2500 Du        
   1387 ****        11.0000  14.7500   5.0000 Du        
   1388 ****        11.0000  14.7500   5.2500 Du        
   1389 ****        11.0000  14.7500   5.5000 Du        
   1390 ****        11.0000  15.0000   5.0000 Du        
   1391 ****        11.0000  15.0000   5.2500 Du        
   1392 ****        11.0000  15.0000   5.5000 Du        
   1393 ****        11.0000  15.2500   5.0000 Du        
   1394 ****        11.0000  15.2500   5.2500 Du        
   1395 ****        11.0000  15.2500   5.5000 Du        
   1396 ****        11.0000  15.5000   5.0000 Du        
   1397 ****        11.0000  15.5000   5.2500 Du        
   1398 ****        11.0000  15.7500   5.0000 Du        
   1399 ****        11.2500  11.0000  15.0000 Du        
   1400 ****        11.2500  11.0000  15.2500 Du        
   1401 ****        11.2500  11.2500  14.7500 Du        
   1402 ****        11.2500  11.2500  15.0000 Du        
   1403 ****        11.2500  11.2500  15.2500 Du        
   1404 ****        11.2500  11.5000  14.7500 Du        
   1405 ****        11.2500  11.5000  15.0000 Du        
   1406 ****        11.2500  11.7500  14.0000 Du        
   1407 ****        11.2500  11.7500  14.2500 Du        
   1408 ****        11.2500  11.7500  14.7500 Du        
   1409 ****        11.2500  11.7500  15.0000 Du        
   1410 ****        11.2500  12.0000  13.7500 Du        
   1411 ****        11.2500  12.0000  14.0000 Du        
   1412 ****        11.2500  12.0000  14.2500 Du        
   1413 ****        11.2500  12.0000  14.5000 Du        
   1414 ****        11.2500  12.0000  14.7500 Du        
   1415 ****        11.2500  12.0000  15.0000 Du        
   1416 ****        11.2500  12.2500  13.5000 Du        
   1417 ****        11.2500  12.2500  13.7500 Du        
   1418 ****        11.2500  12.2500  14.0000 Du        
   1419 ****        11.2500  12.2500  14.2500 Du        
   1420 ****        11.2500  12.2500  14.5000 Du        
   1421 ****        11.2500  12.2500  14.7500 Du        
   1422 ****        11.2500  12.2500  15.0000 Du        
   1423 ****        11.2500  12.5000  13.0000 Du        
   1424 ****        11.2500  12.5000  13.2500 Du        
   1425 ****        11.2500  12.5000  13.5000 Du        
   1426 ****        11.2500  12.5000  13.7500 Du        
   1427 ****        11.2500  12.5000  14.0000 Du        
   1428 ****        11.2500  12.5000  14.2500 Du        
   1429 ****        11.2500  12.5000  14.5000 Du        
   1430 ****        11.2500  12.5000  14.7500 Du        
   1431 ****        11.2500  12.5000  15.0000 Du        
   1432 ****        11.2500  12.7500   8.5000 Du        
   1433 ****        11.2500  12.7500   8.7500 Du        
   1434 ****        11.2500  12.7500   9.0000 Du        
   1435 ****        11.2500  12.7500   9.2500 Du        
   1436 ****        11.2500  12.7500  13.0000 Du        
   1437 ****        11.2500  12.7500  13.2500 Du        
   1438 ****        11.2500  12.7500  13.5000 Du        
   1439 ****        11.2500  12.7500  13.7500 Du        
   1440 ****        11.2500  12.7500  14.0000 Du        
   1441 ****        11.2500  12.7500  14.2500 Du        
   1442 ****        11.2500  12.7500  14.5000 Du        
   1443 ****        11.2500  12.7500  14.7500 Du        
   1444 ****        11.2500  13.0000   8.2500 Du        
   1445 ****        11.2500  13.0000   8.5000 Du        
   1446 ****        11.2500  13.0000   8.7500 Du        
   1447 ****        11.2500  13.0000   9.0000 Du        
   1448 ****        11.2500  13.0000   9.2500 Du        
   1449 ****        11.2500  13.0000   9.5000 Du        
   1450 ****        11.2500  13.0000  12.7500 Du        
   1451 ****        11.2500  13.0000  13.0000 Du        
   1452 ****        11.2500  13.0000  13.2500 Du        
   1453 ****        11.2500  13.0000  13.5000 Du        
   1454 ****        11.2500  13.0000  13.7500 Du        
   1455 ****        11.2500  13.0000  14.0000 Du        
   1456 ****        11.2500  13.0000  14.2500 Du        
   1457 ****        11.2500  13.0000  14.5000 Du        
   1458 ****        11.2500  13.0000  14.7500 Du        
   1459 ****        11.2500  13.2500   8.2500 Du        
   1460 ****        11.2500  13.2500   8.5000 Du        
   1461 ****        11.2500  13.2500   8.7500 Du        
   1462 ****        11.2500  13.2500   9.0000 Du        
   1463 ****        11.2500  13.2500   9.2500 Du        
   1464 ****        11.2500  13.2500  12.7500 Du        
   1465 ****        11.2500  13.2500  13.0000 Du        
   1466 ****        11.2500  13.2500  13.2500 Du        
   1467 ****        11.2500  13.2500  13.5000 Du        
   1468 ****        11.2500  13.2500  13.7500 Du        
   1469 ****        11.2500  13.2500  14.0000 Du        
   1470 ****        11.2500  13.2500  14.2500 Du        
   1471 ****        11.2500  13.2500  14.5000 Du        
   1472 ****        11.2500  13.2500  14.7500 Du        
   1473 ****        11.2500  13.5000   8.2500 Du        
   1474 ****        11.2500  13.5000   8.5000 Du        
   1475 ****        11.2500  13.5000   8.7500 Du        
   1476 ****        11.2500  13.5000  13.0000 Du        
   1477 ****        11.2500  13.5000  13.2500 Du        
   1478 ****        11.2500  13.5000  13.5000 Du        
   1479 ****        11.2500  13.5000  13.7500 Du        
   1480 ****        11.2500  13.5000  14.0000 Du        
   1481 ****        11.2500  13.5000  14.2500 Du        
   1482 ****        11.2500  13.7500  13.2500 Du        
   1483 ****        11.2500  14.5000   5.0000 Du        
   1484 ****        11.2500  14.5000   5.2500 Du        
   1485 ****        11.2500  14.7500   4.5000 Du        
   1486 ****        11.2500  14.7500   4.7500 Du        
   1487 ****        11.2500  14.7500   5.0000 Du        
   1488 ****        11.2500  14.7500   5.2500 Du        
   1489 ****        11.2500  14.7500   5.5000 Du        
   1490 ****        11.2500  15.0000   4.5000 Du        
   1491 ****        11.2500  15.0000   4.7500 Du        
   1492 ****        11.2500  15.0000   5.0000 Du        
   1493 ****        11.2500  15.0000   5.2500 Du        
   1494 ****        11.2500  15.2500   4.5000 Du        
   1495 ****        11.2500  15.2500   4.7500 Du        
   1496 ****        11.2500  15.2500   5.0000 Du        
   1497 ****        11.2500  15.2500   5.2500 Du        
   1498 ****        11.2500  15.5000   4.5000 Du        
   1499 ****        11.2500  15.5000   4.7500 Du        
   1500 ****        11.2500  15.5000   5.0000 Du        
   1501 ****        11.2500  15.7500   4.5000 Du        
   1502 ****        11.2500  15.7500   4.7500 Du        
   1503 ****        11.5000   9.5000  19.0000 Du        
   1504 ****        11.5000   9.5000  19.2500 Du        
   1505 ****        11.5000  10.2500  15.7500 Du        
   1506 ****        11.5000  10.2500  16.0000 Du        
   1507 ****        11.5000  10.5000  15.2500 Du        
   1508 ****        11.5000  10.5000  15.5000 Du        
   1509 ****        11.5000  10.5000  15.7500 Du        
   1510 ****        11.5000  10.5000  16.0000 Du        
   1511 ****        11.5000  10.7500  15.2500 Du        
   1512 ****        11.5000  10.7500  15.5000 Du        
   1513 ****        11.5000  10.7500  15.7500 Du        
   1514 ****        11.5000  10.7500  16.0000 Du        
   1515 ****        11.5000  11.0000  15.0000 Du        
   1516 ****        11.5000  11.0000  15.2500 Du        
   1517 ****        11.5000  11.0000  15.5000 Du        
   1518 ****        11.5000  11.2500  14.7500 Du        
   1519 ****        11.5000  11.2500  15.0000 Du        
   1520 ****        11.5000  11.2500  15.2500 Du        
   1521 ****        11.5000  11.5000  14.2500 Du        
   1522 ****        11.5000  11.5000  14.5000 Du        
   1523 ****        11.5000  11.5000  14.7500 Du        
   1524 ****        11.5000  11.5000  15.0000 Du        
   1525 ****        11.5000  11.5000  15.2500 Du        
   1526 ****        11.5000  11.7500  14.0000 Du        
   1527 ****        11.5000  11.7500  14.2500 Du        
   1528 ****        11.5000  11.7500  14.5000 Du        
   1529 ****        11.5000  11.7500  14.7500 Du        
   1530 ****        11.5000  11.7500  15.0000 Du        
   1531 ****        11.5000  11.7500  15.2500 Du        
   1532 ****        11.5000  12.0000  13.7500 Du        
   1533 ****        11.5000  12.0000  14.0000 Du        
   1534 ****        11.5000  12.0000  14.2500 Du        
   1535 ****        11.5000  12.0000  14.5000 Du        
   1536 ****        11.5000  12.0000  14.7500 Du        
   1537 ****        11.5000  12.0000  15.0000 Du        
   1538 ****        11.5000  12.2500  13.5000 Du        
   1539 ****        11.5000  12.2500  13.7500 Du        
   1540 ****        11.5000  12.2500  14.0000 Du        
   1541 ****        11.5000  12.2500  14.2500 Du        
   1542 ****        11.5000  12.2500  14.5000 Du        
   1543 ****        11.5000  12.2500  14.7500 Du        
   1544 ****        11.5000  12.2500  15.0000 Du        
   1545 ****        11.5000  12.5000  13.0000 Du        
   1546 ****        11.5000  12.5000  13.2500 Du        
   1547 ****        11.5000  12.5000  13.5000 Du        
   1548 ****        11.5000  12.5000  13.7500 Du        
   1549 ****        11.5000  12.5000  14.0000 Du        
   1550 ****        11.5000  12.5000  14.2500 Du        
   1551 ****        11.5000  12.5000  14.5000 Du        
   1552 ****        11.5000  12.5000  14.7500 Du        
   1553 ****        11.5000  12.5000  15.0000 Du        
   1554 ****        11.5000  12.7500   8.2500 Du        
   1555 ****        11.5000  12.7500   8.5000 Du        
   1556 ****        11.5000  12.7500   8.7500 Du        
   1557 ****        11.5000  12.7500   9.0000 Du        
   1558 ****        11.5000  12.7500  13.0000 Du        
   1559 ****        11.5000  12.7500  13.2500 Du        
   1560 ****        11.5000  12.7500  13.5000 Du        
   1561 ****        11.5000  12.7500  13.7500 Du        
   1562 ****        11.5000  12.7500  14.0000 Du        
   1563 ****        11.5000  12.7500  14.2500 Du        
   1564 ****        11.5000  12.7500  14.5000 Du        
   1565 ****        11.5000  12.7500  14.7500 Du        
   1566 ****        11.5000  13.0000   8.0000 Du        
   1567 ****        11.5000  13.0000   8.2500 Du        
   1568 ****        11.5000  13.0000   8.5000 Du        
   1569 ****        11.5000  13.0000   8.7500 Du        
   1570 ****        11.5000  13.0000   9.0000 Du        
   1571 ****        11.5000  13.0000   9.2500 Du        
   1572 ****        11.5000  13.0000  12.7500 Du        
   1573 ****        11.5000  13.0000  13.0000 Du        
   1574 ****        11.5000  13.0000  13.2500 Du        
   1575 ****        11.5000  13.0000  13.5000 Du        
   1576 ****        11.5000  13.0000  13.7500 Du        
   1577 ****        11.5000  13.0000  14.0000 Du        
   1578 ****        11.5000  13.0000  14.2500 Du        
   1579 ****        11.5000  13.0000  14.5000 Du        
   1580 ****        11.5000  13.0000  14.7500 Du        
   1581 ****        11.5000  13.2500   8.0000 Du        
   1582 ****        11.5000  13.2500   8.2500 Du        
   1583 ****        11.5000  13.2500   8.5000 Du        
   1584 ****        11.5000  13.2500   8.7500 Du        
   1585 ****        11.5000  13.2500   9.0000 Du        
   1586 ****        11.5000  13.2500   9.2500 Du        
   1587 ****        11.5000  13.2500  13.0000 Du        
   1588 ****        11.5000  13.2500  13.2500 Du        
   1589 ****        11.5000  13.2500  13.5000 Du        
   1590 ****        11.5000  13.2500  13.7500 Du        
   1591 ****        11.5000  13.2500  14.0000 Du        
   1592 ****        11.5000  13.2500  14.2500 Du        
   1593 ****        11.5000  13.2500  14.5000 Du        
   1594 ****        11.5000  13.2500  14.7500 Du        
   1595 ****        11.5000  13.5000   8.2500 Du        
   1596 ****        11.5000  13.5000   8.5000 Du        
   1597 ****        11.5000  13.5000   8.7500 Du        
   1598 ****        11.5000  13.5000  13.2500 Du        
   1599 ****        11.5000  13.5000  13.5000 Du        
   1600 ****        11.5000  13.5000  13.7500 Du        
   1601 ****        11.5000  13.5000  14.0000 Du        
   1602 ****        11.5000  13.5000  14.2500 Du        
   1603 ****        11.5000  13.5000  14.5000 Du        
   1604 ****        11.5000  14.2500   5.0000 Du        
   1605 ****        11.5000  14.5000   5.0000 Du        
   1606 ****        11.5000  14.5000   5.2500 Du        
   1607 ****        11.5000  14.7500   4.5000 Du        
   1608 ****        11.5000  14.7500   4.7500 Du        
   1609 ****        11.5000  14.7500   5.0000 Du        
   1610 ****        11.5000  14.7500   5.2500 Du        
   1611 ****        11.5000  15.0000   4.5000 Du        
   1612 ****        11.5000  15.0000   4.7500 Du        
   1613 ****        11.5000  15.0000   5.0000 Du        
   1614 ****        11.5000  15.0000   5.2500 Du        
   1615 ****        11.5000  15.2500   4.5000 Du        
   1616 ****        11.5000  15.2500   4.7500 Du        
   1617 ****        11.5000  15.2500   5.0000 Du        
   1618 ****        11.5000  15.5000   4.5000 Du        
   1619 ****        11.5000  15.5000   4.7500 Du        
   1620 ****        11.7500   9.2500  18.7500 Du        
   1621 ****        11.7500   9.2500  19.0000 Du        
   1622 ****        11.7500   9.2500  19.2500 Du        
   1623 ****        11.7500   9.2500  19.5000 Du        
   1624 ****        11.7500   9.5000  18.7500 Du        
   1625 ****        11.7500   9.5000  19.0000 Du        
   1626 ****        11.7500   9.5000  19.2500 Du        
   1627 ****        11.7500   9.5000  19.5000 Du        
   1628 ****        11.7500   9.7500  16.2500 Du        
   1629 ****        11.7500   9.7500  18.7500 Du        
   1630 ****        11.7500   9.7500  19.0000 Du        
   1631 ****        11.7500   9.7500  19.2500 Du        
   1632 ****        11.7500   9.7500  19.5000 Du        
   1633 ****        11.7500  10.0000  16.0000 Du        
   1634 ****        11.7500  10.0000  16.2500 Du        
   1635 ****        11.7500  10.2500  15.7500 Du        
   1636 ****        11.7500  10.2500  16.0000 Du        
   1637 ****        11.7500  10.2500  16.2500 Du        
   1638 ****        11.7500  10.5000  15.5000 Du        
   1639 ****        11.7500  10.5000  15.7500 Du        
   1640 ****        11.7500  10.5000  16.0000 Du        
   1641 ****        11.7500  10.5000  16.2500 Du        
   1642 ****        11.7500  10.7500  15.2500 Du        
   1643 ****        11.7500  10.7500  15.5000 Du        
   1644 ****        11.7500  10.7500  15.7500 Du        
   1645 ****        11.7500  10.7500  16.0000 Du        
   1646 ****        11.7500  10.7500  16.2500 Du        
   1647 ****        11.7500  11.0000  15.0000 Du        
   1648 ****        11.7500  11.0000  15.2500 Du        
   1649 ****        11.7500  11.0000  15.5000 Du        
   1650 ****        11.7500  11.0000  15.7500 Du        
   1651 ****        11.7500  11.0000  16.0000 Du        
   1652 ****        11.7500  11.2500  14.7500 Du        
   1653 ****        11.7500  11.2500  15.0000 Du        
   1654 ****        11.7500  11.2500  15.2500 Du        
   1655 ****        11.7500  11.2500  15.5000 Du        
   1656 ****        11.7500  11.2500  15.7500 Du        
   1657 ****        11.7500  11.5000  14.7500 Du        
   1658 ****        11.7500  11.5000  15.0000 Du        
   1659 ****        11.7500  11.5000  15.2500 Du        
   1660 ****        11.7500  11.7500  14.0000 Du        
   1661 ****        11.7500  11.7500  14.2500 Du        
   1662 ****        11.7500  11.7500  14.5000 Du        
   1663 ****        11.7500  11.7500  14.7500 Du        
   1664 ****        11.7500  11.7500  15.0000 Du        
   1665 ****        11.7500  11.7500  15.2500 Du        
   1666 ****        11.7500  12.0000  13.7500 Du        
   1667 ****        11.7500  12.0000  14.0000 Du        
   1668 ****        11.7500  12.0000  14.2500 Du        
   1669 ****        11.7500  12.0000  14.5000 Du        
   1670 ****        11.7500  12.0000  14.7500 Du        
   1671 ****        11.7500  12.0000  15.0000 Du        
   1672 ****        11.7500  12.0000  15.2500 Du        
   1673 ****        11.7500  12.2500  13.5000 Du        
   1674 ****        11.7500  12.2500  13.7500 Du        
   1675 ****        11.7500  12.2500  14.0000 Du        
   1676 ****        11.7500  12.2500  14.2500 Du        
   1677 ****        11.7500  12.2500  14.5000 Du        
   1678 ****        11.7500  12.2500  14.7500 Du        
   1679 ****        11.7500  12.2500  15.0000 Du        
   1680 ****        11.7500  12.5000  13.0000 Du        
   1681 ****        11.7500  12.5000  13.2500 Du        
   1682 ****        11.7500  12.5000  13.5000 Du        
   1683 ****        11.7500  12.5000  13.7500 Du        
   1684 ****        11.7500  12.5000  14.0000 Du        
   1685 ****        11.7500  12.5000  14.2500 Du        
   1686 ****        11.7500  12.5000  14.5000 Du        
   1687 ****        11.7500  12.5000  14.7500 Du        
   1688 ****        11.7500  12.5000  15.0000 Du        
   1689 ****        11.7500  12.7500   8.2500 Du        
   1690 ****        11.7500  12.7500   8.5000 Du        
   1691 ****        11.7500  12.7500   8.7500 Du        
   1692 ****        11.7500  12.7500   9.0000 Du        
   1693 ****        11.7500  12.7500  13.0000 Du        
   1694 ****        11.7500  12.7500  13.2500 Du        
   1695 ****        11.7500  12.7500  13.5000 Du        
   1696 ****        11.7500  12.7500  13.7500 Du        
   1697 ****        11.7500  12.7500  14.0000 Du        
   1698 ****        11.7500  12.7500  14.2500 Du        
   1699 ****        11.7500  12.7500  14.5000 Du        
   1700 ****        11.7500  12.7500  14.7500 Du        
   1701 ****        11.7500  12.7500  15.0000 Du        
   1702 ****        11.7500  13.0000   8.0000 Du        
   1703 ****        11.7500  13.0000   8.2500 Du        
   1704 ****        11.7500  13.0000   8.5000 Du        
   1705 ****        11.7500  13.0000   8.7500 Du        
   1706 ****        11.7500  13.0000   9.0000 Du        
   1707 ****        11.7500  13.0000   9.2500 Du        
   1708 ****        11.7500  13.0000  13.0000 Du        
   1709 ****        11.7500  13.0000  13.2500 Du        
   1710 ****        11.7500  13.0000  13.5000 Du        
   1711 ****        11.7500  13.0000  13.7500 Du        
   1712 ****        11.7500  13.0000  14.0000 Du        
   1713 ****        11.7500  13.0000  14.2500 Du        
   1714 ****        11.7500  13.0000  14.5000 Du        
   1715 ****        11.7500  13.0000  14.7500 Du        
   1716 ****        11.7500  13.0000  15.0000 Du        
   1717 ****        11.7500  13.2500   7.7500 Du        
   1718 ****        11.7500  13.2500   8.0000 Du        
   1719 ****        11.7500  13.2500   8.2500 Du        
   1720 ****        11.7500  13.2500   8.5000 Du        
   1721 ****        11.7500  13.2500   8.7500 Du        
   1722 ****        11.7500  13.2500   9.0000 Du        
   1723 ****        11.7500  13.2500   9.2500 Du        
   1724 ****        11.7500  13.2500  13.0000 Du        
   1725 ****        11.7500  13.2500  13.2500 Du        
   1726 ****        11.7500  13.2500  13.5000 Du        
   1727 ****        11.7500  13.2500  13.7500 Du        
   1728 ****        11.7500  13.2500  14.0000 Du        
   1729 ****        11.7500  13.2500  14.2500 Du        
   1730 ****        11.7500  13.2500  14.5000 Du        
   1731 ****        11.7500  13.2500  14.7500 Du        
   1732 ****        11.7500  13.5000   8.2500 Du        
   1733 ****        11.7500  13.5000   8.5000 Du        
   1734 ****        11.7500  13.5000   8.7500 Du        
   1735 ****        11.7500  13.5000  13.2500 Du        
   1736 ****        11.7500  13.5000  13.5000 Du        
   1737 ****        11.7500  13.5000  13.7500 Du        
   1738 ****        11.7500  13.5000  14.0000 Du        
   1739 ****        11.7500  13.5000  14.2500 Du        
   1740 ****        11.7500  13.5000  14.5000 Du        
   1741 ****        11.7500  13.5000  14.7500 Du        
   1742 ****        11.7500  13.7500  13.7500 Du        
   1743 ****        11.7500  14.2500   4.5000 Du        
   1744 ****        11.7500  14.2500   4.7500 Du        
   1745 ****        11.7500  14.5000   4.5000 Du        
   1746 ****        11.7500  14.5000   4.7500 Du        
   1747 ****        11.7500  14.5000   5.0000 Du        
   1748 ****        11.7500  14.7500   4.5000 Du        
   1749 ****        11.7500  14.7500   4.7500 Du        
   1750 ****        11.7500  14.7500   5.0000 Du        
   1751 ****        11.7500  15.0000   4.5000 Du        
   1752 ****        11.7500  15.0000   4.7500 Du        
   1753 ****        11.7500  15.0000   5.0000 Du        
   1754 ****        11.7500  15.2500   4.5000 Du        
   1755 ****        12.0000   9.0000  18.7500 Du        
   1756 ****        12.0000   9.0000  19.0000 Du        
   1757 ****        12.0000   9.0000  19.5000 Du        
   1758 ****        12.0000   9.2500  18.5000 Du        
   1759 ****        12.0000   9.2500  18.7500 Du        
   1760 ****        12.0000   9.2500  19.0000 Du        
   1761 ****        12.0000   9.2500  19.2500 Du        
   1762 ****        12.0000   9.2500  19.5000 Du        
   1763 ****        12.0000   9.5000  18.5000 Du        
   1764 ****        12.0000   9.5000  18.7500 Du        
   1765 ****        12.0000   9.5000  19.0000 Du        
   1766 ****        12.0000   9.5000  19.2500 Du        
   1767 ****        12.0000   9.5000  19.5000 Du        
   1768 ****        12.0000   9.7500  17.2500 Du        
   1769 ****        12.0000   9.7500  18.0000 Du        
   1770 ****        12.0000   9.7500  18.2500 Du        
   1771 ****        12.0000   9.7500  18.5000 Du        
   1772 ****        12.0000   9.7500  18.7500 Du        
   1773 ****        12.0000   9.7500  19.0000 Du        
   1774 ****        12.0000   9.7500  19.2500 Du        
   1775 ****        12.0000   9.7500  19.5000 Du        
   1776 ****        12.0000   9.7500  19.7500 Du        
   1777 ****        12.0000  10.0000  16.0000 Du        
   1778 ****        12.0000  10.0000  16.2500 Du        
   1779 ****        12.0000  10.0000  16.7500 Du        
   1780 ****        12.0000  10.0000  17.0000 Du        
   1781 ****        12.0000  10.0000  18.5000 Du        
   1782 ****        12.0000  10.0000  18.7500 Du        
   1783 ****        12.0000  10.0000  19.0000 Du        
   1784 ****        12.0000  10.0000  19.2500 Du        
   1785 ****        12.0000  10.0000  19.5000 Du        
   1786 ****        12.0000  10.2500  15.7500 Du        
   1787 ****        12.0000  10.2500  16.0000 Du        
   1788 ****        12.0000  10.2500  16.2500 Du        
   1789 ****        12.0000  10.2500  16.5000 Du        
   1790 ****        12.0000  10.2500  16.7500 Du        
   1791 ****        12.0000  10.2500  17.0000 Du        
   1792 ****        12.0000  10.5000  15.5000 Du        
   1793 ****        12.0000  10.5000  15.7500 Du        
   1794 ****        12.0000  10.5000  16.0000 Du        
   1795 ****        12.0000  10.5000  16.2500 Du        
   1796 ****        12.0000  10.7500  15.2500 Du        
   1797 ****        12.0000  10.7500  15.5000 Du        
   1798 ****        12.0000  10.7500  15.7500 Du        
   1799 ****        12.0000  10.7500  16.0000 Du        
   1800 ****        12.0000  10.7500  16.2500 Du        
   1801 ****        12.0000  11.0000  15.0000 Du        
   1802 ****        12.0000  11.0000  15.2500 Du        
   1803 ****        12.0000  11.0000  15.5000 Du        
   1804 ****        12.0000  11.0000  15.7500 Du        
   1805 ****        12.0000  11.0000  16.0000 Du        
   1806 ****        12.0000  11.0000  16.2500 Du        
   1807 ****        12.0000  11.2500  15.0000 Du        
   1808 ****        12.0000  11.2500  15.2500 Du        
   1809 ****        12.0000  11.2500  15.5000 Du        
   1810 ****        12.0000  11.2500  15.7500 Du        
   1811 ****        12.0000  11.2500  16.0000 Du        
   1812 ****        12.0000  11.5000  14.7500 Du        
   1813 ****        12.0000  11.5000  15.0000 Du        
   1814 ****        12.0000  11.5000  15.2500 Du        
   1815 ****        12.0000  11.5000  15.5000 Du        
   1816 ****        12.0000  11.7500  14.2500 Du        
   1817 ****        12.0000  11.7500  14.7500 Du        
   1818 ****        12.0000  11.7500  15.0000 Du        
   1819 ****        12.0000  11.7500  15.2500 Du        
   1820 ****        12.0000  11.7500  15.5000 Du        
   1821 ****        12.0000  12.0000  13.7500 Du        
   1822 ****        12.0000  12.0000  14.0000 Du        
   1823 ****        12.0000  12.0000  14.2500 Du        
   1824 ****        12.0000  12.0000  14.5000 Du        
   1825 ****        12.0000  12.0000  14.7500 Du        
   1826 ****        12.0000  12.0000  15.0000 Du        
   1827 ****        12.0000  12.0000  15.2500 Du        
   1828 ****        12.0000  12.2500  13.5000 Du        
   1829 ****        12.0000  12.2500  13.7500 Du        
   1830 ****        12.0000  12.2500  14.0000 Du        
   1831 ****        12.0000  12.2500  14.2500 Du        
   1832 ****        12.0000  12.2500  14.5000 Du        
   1833 ****        12.0000  12.2500  14.7500 Du        
   1834 ****        12.0000  12.2500  15.0000 Du        
   1835 ****        12.0000  12.2500  15.2500 Du        
   1836 ****        12.0000  12.5000  13.0000 Du        
   1837 ****        12.0000  12.5000  13.2500 Du        
   1838 ****        12.0000  12.5000  13.5000 Du        
   1839 ****        12.0000  12.5000  13.7500 Du        
   1840 ****        12.0000  12.5000  14.0000 Du        
   1841 ****        12.0000  12.5000  14.2500 Du        
   1842 ****        12.0000  12.5000  14.5000 Du        
   1843 ****        12.0000  12.5000  14.7500 Du        
   1844 ****        12.0000  12.5000  15.0000 Du        
   1845 ****        12.0000  12.7500   8.2500 Du        
   1846 ****        12.0000  12.7500   8.5000 Du        
   1847 ****        12.0000  12.7500   8.7500 Du        
   1848 ****        12.0000  12.7500   9.0000 Du        
   1849 ****        12.0000  12.7500  13.0000 Du        
   1850 ****        12.0000  12.7500  13.2500 Du        
   1851 ****        12.0000  12.7500  13.5000 Du        
   1852 ****        12.0000  12.7500  13.7500 Du        
   1853 ****        12.0000  12.7500  14.0000 Du        
   1854 ****        12.0000  12.7500  14.2500 Du        
   1855 ****        12.0000  12.7500  14.5000 Du        
   1856 ****        12.0000  12.7500  14.7500 Du        
   1857 ****        12.0000  12.7500  15.0000 Du        
   1858 ****        12.0000  13.0000   8.0000 Du        
   1859 ****        12.0000  13.0000   8.2500 Du        
   1860 ****        12.0000  13.0000   8.5000 Du        
   1861 ****        12.0000  13.0000   8.7500 Du        
   1862 ****        12.0000  13.0000   9.0000 Du        
   1863 ****        12.0000  13.0000   9.2500 Du        
   1864 ****        12.0000  13.0000  13.0000 Du        
   1865 ****        12.0000  13.0000  13.2500 Du        
   1866 ****        12.0000  13.0000  13.5000 Du        
   1867 ****        12.0000  13.0000  13.7500 Du        
   1868 ****        12.0000  13.0000  14.0000 Du        
   1869 ****        12.0000  13.0000  14.2500 Du        
   1870 ****        12.0000  13.0000  14.5000 Du        
   1871 ****        12.0000  13.0000  14.7500 Du        
   1872 ****        12.0000  13.0000  15.0000 Du        
   1873 ****        12.0000  13.2500   8.0000 Du        
   1874 ****        12.0000  13.2500   8.2500 Du        
   1875 ****        12.0000  13.2500   8.5000 Du        
   1876 ****        12.0000  13.2500   8.7500 Du        
   1877 ****        12.0000  13.2500   9.0000 Du        
   1878 ****        12.0000  13.2500  13.0000 Du        
   1879 ****        12.0000  13.2500  13.2500 Du        
   1880 ****        12.0000  13.2500  13.5000 Du        
   1881 ****        12.0000  13.2500  13.7500 Du        
   1882 ****        12.0000  13.2500  14.0000 Du        
   1883 ****        12.0000  13.2500  14.2500 Du        
   1884 ****        12.0000  13.2500  14.5000 Du        
   1885 ****        12.0000  13.2500  14.7500 Du        
   1886 ****        12.0000  13.2500  15.0000 Du        
   1887 ****        12.0000  13.5000  13.5000 Du        
   1888 ****        12.0000  13.5000  13.7500 Du        
   1889 ****        12.0000  13.5000  14.0000 Du        
   1890 ****        12.0000  13.5000  14.2500 Du        
   1891 ****        12.0000  13.5000  14.5000 Du        
   1892 ****        12.0000  13.5000  14.7500 Du        
   1893 ****        12.0000  13.7500  13.7500 Du        
   1894 ****        12.0000  13.7500  14.0000 Du        
   1895 ****        12.2500   9.0000  18.7500 Du        
   1896 ****        12.2500   9.0000  19.0000 Du        
   1897 ****        12.2500   9.0000  19.2500 Du        
   1898 ****        12.2500   9.0000  19.5000 Du        
   1899 ****        12.2500   9.0000  19.7500 Du        
   1900 ****        12.2500   9.2500  18.5000 Du        
   1901 ****        12.2500   9.2500  18.7500 Du        
   1902 ****        12.2500   9.2500  19.0000 Du        
   1903 ****        12.2500   9.2500  19.2500 Du        
   1904 ****        12.2500   9.2500  19.5000 Du        
   1905 ****        12.2500   9.2500  19.7500 Du        
   1906 ****        12.2500   9.5000  18.2500 Du        
   1907 ****        12.2500   9.5000  18.5000 Du        
   1908 ****        12.2500   9.5000  18.7500 Du        
   1909 ****        12.2500   9.5000  19.0000 Du        
   1910 ****        12.2500   9.5000  19.2500 Du        
   1911 ****        12.2500   9.5000  19.5000 Du        
   1912 ****        12.2500   9.5000  19.7500 Du        
   1913 ****        12.2500   9.7500  16.2500 Du        
   1914 ****        12.2500   9.7500  17.0000 Du        
   1915 ****        12.2500   9.7500  17.2500 Du        
   1916 ****        12.2500   9.7500  18.0000 Du        
   1917 ****        12.2500   9.7500  18.2500 Du        
   1918 ****        12.2500   9.7500  18.5000 Du        
   1919 ****        12.2500   9.7500  18.7500 Du        
   1920 ****        12.2500   9.7500  19.0000 Du        
   1921 ****        12.2500   9.7500  19.2500 Du        
   1922 ****        12.2500   9.7500  19.5000 Du        
   1923 ****        12.2500   9.7500  19.7500 Du        
   1924 ****        12.2500  10.0000  16.0000 Du        
   1925 ****        12.2500  10.0000  16.2500 Du        
   1926 ****        12.2500  10.0000  16.5000 Du        
   1927 ****        12.2500  10.0000  16.7500 Du        
   1928 ****        12.2500  10.0000  17.0000 Du        
   1929 ****        12.2500  10.0000  17.2500 Du        
   1930 ****        12.2500  10.0000  17.7500 Du        
   1931 ****        12.2500  10.0000  18.0000 Du        
   1932 ****        12.2500  10.0000  18.2500 Du        
   1933 ****        12.2500  10.0000  18.5000 Du        
   1934 ****        12.2500  10.0000  18.7500 Du        
   1935 ****        12.2500  10.0000  19.0000 Du        
   1936 ****        12.2500  10.0000  19.2500 Du        
   1937 ****        12.2500  10.0000  19.5000 Du        
   1938 ****        12.2500  10.2500  15.7500 Du        
   1939 ****        12.2500  10.2500  16.0000 Du        
   1940 ****        12.2500  10.2500  16.2500 Du        
   1941 ****        12.2500  10.2500  16.5000 Du        
   1942 ****        12.2500  10.2500  16.7500 Du        
   1943 ****        12.2500  10.2500  17.0000 Du        
   1944 ****        12.2500  10.2500  17.2500 Du        
   1945 ****        12.2500  10.5000  15.7500 Du        
   1946 ****        12.2500  10.5000  16.0000 Du        
   1947 ****        12.2500  10.5000  16.2500 Du        
   1948 ****        12.2500  10.5000  17.0000 Du        
   1949 ****        12.2500  10.5000  17.2500 Du        
   1950 ****        12.2500  10.7500  15.2500 Du        
   1951 ****        12.2500  10.7500  15.5000 Du        
   1952 ****        12.2500  10.7500  15.7500 Du        
   1953 ****        12.2500  10.7500  16.0000 Du        
   1954 ****        12.2500  10.7500  16.2500 Du        
   1955 ****        12.2500  10.7500  16.5000 Du        
   1956 ****        12.2500  11.0000  15.2500 Du        
   1957 ****        12.2500  11.0000  15.5000 Du        
   1958 ****        12.2500  11.0000  15.7500 Du        
   1959 ****        12.2500  11.0000  16.0000 Du        
   1960 ****        12.2500  11.0000  16.2500 Du        
   1961 ****        12.2500  11.2500  15.0000 Du        
   1962 ****        12.2500  11.2500  15.2500 Du        
   1963 ****        12.2500  11.2500  15.5000 Du        
   1964 ****        12.2500  11.2500  15.7500 Du        
   1965 ****        12.2500  11.2500  16.0000 Du        
   1966 ****        12.2500  11.2500  16.2500 Du        
   1967 ****        12.2500  11.5000  15.0000 Du        
   1968 ****        12.2500  11.5000  15.2500 Du        
   1969 ****        12.2500  11.5000  15.5000 Du        
   1970 ****        12.2500  11.5000  15.7500 Du        
   1971 ****        12.2500  11.7500  14.7500 Du        
   1972 ****        12.2500  11.7500  15.0000 Du        
   1973 ****        12.2500  11.7500  15.2500 Du        
   1974 ****        12.2500  11.7500  15.5000 Du        
   1975 ****        12.2500  12.0000  13.7500 Du        
   1976 ****        12.2500  12.0000  14.0000 Du        
   1977 ****        12.2500  12.0000  14.2500 Du        
   1978 ****        12.2500  12.0000  14.5000 Du        
   1979 ****        12.2500  12.0000  14.7500 Du        
   1980 ****        12.2500  12.0000  15.0000 Du        
   1981 ****        12.2500  12.0000  15.2500 Du        
   1982 ****        12.2500  12.2500  13.7500 Du        
   1983 ****        12.2500  12.2500  14.0000 Du        
   1984 ****        12.2500  12.2500  14.2500 Du        
   1985 ****        12.2500  12.2500  14.5000 Du        
   1986 ****        12.2500  12.2500  14.7500 Du        
   1987 ****        12.2500  12.2500  15.0000 Du        
   1988 ****        12.2500  12.2500  15.2500 Du        
   1989 ****        12.2500  12.5000  13.5000 Du        
   1990 ****        12.2500  12.5000  13.7500 Du        
   1991 ****        12.2500  12.5000  14.0000 Du        
   1992 ****        12.2500  12.5000  14.2500 Du        
   1993 ****        12.2500  12.5000  14.5000 Du        
   1994 ****        12.2500  12.5000  14.7500 Du        
   1995 ****        12.2500  12.5000  15.0000 Du        
   1996 ****        12.2500  12.5000  15.2500 Du        
   1997 ****        12.2500  12.7500   8.5000 Du        
   1998 ****        12.2500  12.7500   8.7500 Du        
   1999 ****        12.2500  12.7500   9.0000 Du        
   2000 ****        12.2500  12.7500  13.0000 Du        
   2001 ****        12.2500  12.7500  13.2500 Du        
   2002 ****        12.2500  12.7500  13.5000 Du        
   2003 ****        12.2500  12.7500  13.7500 Du        
   2004 ****        12.2500  12.7500  14.0000 Du        
   2005 ****        12.2500  12.7500  14.2500 Du        
   2006 ****        12.2500  12.7500  14.5000 Du        
   2007 ****        12.2500  12.7500  14.7500 Du        
   2008 ****        12.2500  12.7500  15.0000 Du        
   2009 ****        12.2500  12.7500  15.2500 Du        
   2010 ****        12.2500  13.0000   8.2500 Du        
   2011 ****        12.2500  13.0000   8.5000 Du        
   2012 ****        12.2500  13.0000   8.7500 Du        
   2013 ****        12.2500  13.0000   9.0000 Du        
   2014 ****        12.2500  13.0000   9.2500 Du        
   2015 ****        12.2500  13.0000  13.0000 Du        
   2016 ****        12.2500  13.0000  13.2500 Du        
   2017 ****        12.2500  13.0000  13.5000 Du        
   2018 ****        12.2500  13.0000  13.7500 Du        
   2019 ****        12.2500  13.0000  14.0000 Du        
   2020 ****        12.2500  13.0000  14.2500 Du        
   2021 ****        12.2500  13.0000  14.5000 Du        
   2022 ****        12.2500  13.0000  14.7500 Du        
   2023 ****        12.2500  13.0000  15.0000 Du        
   2024 ****        12.2500  13.2500   8.2500 Du        
   2025 ****        12.2500  13.2500   8.5000 Du        
   2026 ****        12.2500  13.2500   8.7500 Du        
   2027 ****        12.2500  13.2500   9.0000 Du        
   2028 ****        12.2500  13.2500  13.0000 Du        
   2029 ****        12.2500  13.2500  13.2500 Du        
   2030 ****        12.2500  13.2500  13.5000 Du        
   2031 ****        12.2500  13.2500  13.7500 Du        
   2032 ****        12.2500  13.2500  14.0000 Du        
   2033 ****        12.2500  13.2500  14.2500 Du        
   2034 ****        12.2500  13.2500  14.5000 Du        
   2035 ****        12.2500  13.2500  14.7500 Du        
   2036 ****        12.2500  13.2500  15.0000 Du        
   2037 ****        12.2500  13.5000  13.5000 Du        
   2038 ****        12.2500  13.5000  13.7500 Du        
   2039 ****        12.2500  13.5000  14.0000 Du        
   2040 ****        12.2500  13.5000  14.2500 Du        
   2041 ****        12.2500  13.5000  14.5000 Du        
   2042 ****        12.2500  13.5000  14.7500 Du        
   2043 ****        12.2500  13.5000  15.0000 Du        
   2044 ****        12.2500  13.7500  13.5000 Du        
   2045 ****        12.2500  13.7500  13.7500 Du        
   2046 ****        12.2500  13.7500  14.0000 Du        
   2047 ****        12.2500  13.7500  14.2500 Du        
   2048 ****        12.2500  13.7500  14.5000 Du        
   2049 ****        12.2500  13.7500  14.7500 Du        
   2050 ****        12.5000   8.5000  19.7500 Du        
   2051 ****        12.5000   8.5000  20.0000 Du        
   2052 ****        12.5000   8.7500  19.0000 Du        
   2053 ****        12.5000   8.7500  19.2500 Du        
   2054 ****        12.5000   8.7500  19.5000 Du        
   2055 ****        12.5000   8.7500  19.7500 Du        
   2056 ****        12.5000   8.7500  20.0000 Du        
   2057 ****        12.5000   9.0000  18.7500 Du        
   2058 ****        12.5000   9.0000  19.0000 Du        
   2059 ****        12.5000   9.0000  19.2500 Du        
   2060 ****        12.5000   9.0000  19.5000 Du        
   2061 ****        12.5000   9.0000  19.7500 Du        
   2062 ****        12.5000   9.0000  20.0000 Du        
   2063 ****        12.5000   9.2500  18.5000 Du        
   2064 ****        12.5000   9.2500  18.7500 Du        
   2065 ****        12.5000   9.2500  19.0000 Du        
   2066 ****        12.5000   9.2500  19.2500 Du        
   2067 ****        12.5000   9.2500  19.5000 Du        
   2068 ****        12.5000   9.2500  19.7500 Du        
   2069 ****        12.5000   9.5000  16.2500 Du        
   2070 ****        12.5000   9.5000  16.7500 Du        
   2071 ****        12.5000   9.5000  17.0000 Du        
   2072 ****        12.5000   9.5000  17.2500 Du        
   2073 ****        12.5000   9.5000  18.0000 Du        
   2074 ****        12.5000   9.5000  18.2500 Du        
   2075 ****        12.5000   9.5000  18.5000 Du        
   2076 ****        12.5000   9.5000  18.7500 Du        
   2077 ****        12.5000   9.5000  19.0000 Du        
   2078 ****        12.5000   9.5000  19.2500 Du        
   2079 ****        12.5000   9.5000  19.5000 Du        
   2080 ****        12.5000   9.5000  19.7500 Du        
   2081 ****        12.5000   9.5000  20.0000 Du        
   2082 ****        12.5000   9.7500  16.2500 Du        
   2083 ****        12.5000   9.7500  16.5000 Du        
   2084 ****        12.5000   9.7500  16.7500 Du        
   2085 ****        12.5000   9.7500  17.0000 Du        
   2086 ****        12.5000   9.7500  17.2500 Du        
   2087 ****        12.5000   9.7500  17.5000 Du        
   2088 ****        12.5000   9.7500  17.7500 Du        
   2089 ****        12.5000   9.7500  18.0000 Du        
   2090 ****        12.5000   9.7500  18.2500 Du        
   2091 ****        12.5000   9.7500  18.5000 Du        
   2092 ****        12.5000   9.7500  18.7500 Du        
   2093 ****        12.5000   9.7500  19.0000 Du        
   2094 ****        12.5000   9.7500  19.2500 Du        
   2095 ****        12.5000   9.7500  19.5000 Du        
   2096 ****        12.5000   9.7500  19.7500 Du        
   2097 ****        12.5000  10.0000  16.0000 Du        
   2098 ****        12.5000  10.0000  16.2500 Du        
   2099 ****        12.5000  10.0000  16.5000 Du        
   2100 ****        12.5000  10.0000  16.7500 Du        
   2101 ****        12.5000  10.0000  17.0000 Du        
   2102 ****        12.5000  10.0000  17.2500 Du        
   2103 ****        12.5000  10.0000  17.5000 Du        
   2104 ****        12.5000  10.0000  17.7500 Du        
   2105 ****        12.5000  10.0000  18.0000 Du        
   2106 ****        12.5000  10.0000  18.2500 Du        
   2107 ****        12.5000  10.0000  18.5000 Du        
   2108 ****        12.5000  10.0000  18.7500 Du        
   2109 ****        12.5000  10.0000  19.0000 Du        
   2110 ****        12.5000  10.0000  19.2500 Du        
   2111 ****        12.5000  10.0000  19.5000 Du        
   2112 ****        12.5000  10.2500  16.0000 Du        
   2113 ****        12.5000  10.2500  16.2500 Du        
   2114 ****        12.5000  10.2500  16.5000 Du        
   2115 ****        12.5000  10.2500  16.7500 Du        
   2116 ****        12.5000  10.2500  17.0000 Du        
   2117 ****        12.5000  10.2500  17.2500 Du        
   2118 ****        12.5000  10.2500  17.5000 Du        
   2119 ****        12.5000  10.2500  17.7500 Du        
   2120 ****        12.5000  10.2500  18.0000 Du        
   2121 ****        12.5000  10.2500  18.5000 Du        
   2122 ****        12.5000  10.2500  18.7500 Du        
   2123 ****        12.5000  10.5000  15.7500 Du        
   2124 ****        12.5000  10.5000  16.0000 Du        
   2125 ****        12.5000  10.5000  16.2500 Du        
   2126 ****        12.5000  10.5000  16.5000 Du        
   2127 ****        12.5000  10.5000  16.7500 Du        
   2128 ****        12.5000  10.5000  17.0000 Du        
   2129 ****        12.5000  10.5000  17.2500 Du        
   2130 ****        12.5000  10.5000  17.5000 Du        
   2131 ****        12.5000  10.5000  17.7500 Du        
   2132 ****        12.5000  10.7500  15.5000 Du        
   2133 ****        12.5000  10.7500  15.7500 Du        
   2134 ****        12.5000  10.7500  16.0000 Du        
   2135 ****        12.5000  10.7500  16.2500 Du        
   2136 ****        12.5000  10.7500  16.5000 Du        
   2137 ****        12.5000  10.7500  16.7500 Du        
   2138 ****        12.5000  10.7500  17.0000 Du        
   2139 ****        12.5000  11.0000  15.5000 Du        
   2140 ****        12.5000  11.0000  15.7500 Du        
   2141 ****        12.5000  11.0000  16.0000 Du        
   2142 ****        12.5000  11.0000  16.2500 Du        
   2143 ****        12.5000  11.2500  15.2500 Du        
   2144 ****        12.5000  11.2500  15.5000 Du        
   2145 ****        12.5000  11.2500  15.7500 Du        
   2146 ****        12.5000  11.2500  16.0000 Du        
   2147 ****        12.5000  11.2500  16.2500 Du        
   2148 ****        12.5000  11.5000  14.7500 Du        
   2149 ****        12.5000  11.5000  15.0000 Du        
   2150 ****        12.5000  11.5000  15.2500 Du        
   2151 ****        12.5000  11.5000  15.5000 Du        
   2152 ****        12.5000  11.5000  15.7500 Du        
   2153 ****        12.5000  11.5000  16.0000 Du        
   2154 ****        12.5000  11.7500  14.5000 Du        
   2155 ****        12.5000  11.7500  14.7500 Du        
   2156 ****        12.5000  11.7500  15.0000 Du        
   2157 ****        12.5000  11.7500  15.2500 Du        
   2158 ****        12.5000  11.7500  15.5000 Du        
   2159 ****        12.5000  11.7500  15.7500 Du        
   2160 ****        12.5000  12.0000  14.0000 Du        
   2161 ****        12.5000  12.0000  14.2500 Du        
   2162 ****        12.5000  12.0000  14.5000 Du        
   2163 ****        12.5000  12.0000  14.7500 Du        
   2164 ****        12.5000  12.0000  15.0000 Du        
   2165 ****        12.5000  12.0000  15.2500 Du        
   2166 ****        12.5000  12.0000  15.5000 Du        
   2167 ****        12.5000  12.2500  13.7500 Du        
   2168 ****        12.5000  12.2500  14.0000 Du        
   2169 ****        12.5000  12.2500  14.2500 Du        
   2170 ****        12.5000  12.2500  14.5000 Du        
   2171 ****        12.5000  12.2500  14.7500 Du        
   2172 ****        12.5000  12.2500  15.0000 Du        
   2173 ****        12.5000  12.2500  15.2500 Du        
   2174 ****        12.5000  12.5000  13.5000 Du        
   2175 ****        12.5000  12.5000  13.7500 Du        
   2176 ****        12.5000  12.5000  14.0000 Du        
   2177 ****        12.5000  12.5000  14.2500 Du        
   2178 ****        12.5000  12.5000  14.5000 Du        
   2179 ****        12.5000  12.5000  14.7500 Du        
   2180 ****        12.5000  12.5000  15.0000 Du        
   2181 ****        12.5000  12.5000  15.2500 Du        
   2182 ****        12.5000  12.7500   8.5000 Du        
   2183 ****        12.5000  12.7500   8.7500 Du        
   2184 ****        12.5000  12.7500   9.0000 Du        
   2185 ****        12.5000  12.7500  13.0000 Du        
   2186 ****        12.5000  12.7500  13.2500 Du        
   2187 ****        12.5000  12.7500  13.5000 Du        
   2188 ****        12.5000  12.7500  13.7500 Du        
   2189 ****        12.5000  12.7500  14.0000 Du        
   2190 ****        12.5000  12.7500  14.2500 Du        
   2191 ****        12.5000  12.7500  14.5000 Du        
   2192 ****        12.5000  12.7500  14.7500 Du        
   2193 ****        12.5000  12.7500  15.0000 Du        
   2194 ****        12.5000  12.7500  15.2500 Du        
   2195 ****        12.5000  13.0000   8.5000 Du        
   2196 ****        12.5000  13.0000   8.7500 Du        
   2197 ****        12.5000  13.0000   9.0000 Du        
   2198 ****        12.5000  13.0000   9.2500 Du        
   2199 ****        12.5000  13.0000  13.0000 Du        
   2200 ****        12.5000  13.0000  13.2500 Du        
   2201 ****        12.5000  13.0000  13.5000 Du        
   2202 ****        12.5000  13.0000  13.7500 Du        
   2203 ****        12.5000  13.0000  14.0000 Du        
   2204 ****        12.5000  13.0000  14.2500 Du        
   2205 ****        12.5000  13.0000  14.5000 Du        
   2206 ****        12.5000  13.0000  14.7500 Du        
   2207 ****        12.5000  13.0000  15.0000 Du        
   2208 ****        12.5000  13.0000  15.2500 Du        
   2209 ****        12.5000  13.2500   8.7500 Du        
   2210 ****        12.5000  13.2500   9.0000 Du        
   2211 ****        12.5000  13.2500  13.2500 Du        
   2212 ****        12.5000  13.2500  13.5000 Du        
   2213 ****        12.5000  13.2500  13.7500 Du        
   2214 ****        12.5000  13.2500  14.0000 Du        
   2215 ****        12.5000  13.2500  14.2500 Du        
   2216 ****        12.5000  13.2500  14.5000 Du        
   2217 ****        12.5000  13.2500  14.7500 Du        
   2218 ****        12.5000  13.2500  15.0000 Du        
   2219 ****        12.5000  13.5000  13.5000 Du        
   2220 ****        12.5000  13.5000  13.7500 Du        
   2221 ****        12.5000  13.5000  14.0000 Du        
   2222 ****        12.5000  13.5000  14.2500 Du        
   2223 ****        12.5000  13.5000  14.5000 Du        
   2224 ****        12.5000  13.5000  14.7500 Du        
   2225 ****        12.5000  13.5000  15.0000 Du        
   2226 ****        12.5000  13.7500  13.5000 Du        
   2227 ****        12.5000  13.7500  13.7500 Du        
   2228 ****        12.5000  13.7500  14.0000 Du        
   2229 ****        12.5000  13.7500  14.2500 Du        
   2230 ****        12.5000  13.7500  14.5000 Du        
   2231 ****        12.5000  13.7500  14.7500 Du        
   2232 ****        12.5000  13.7500  15.0000 Du        
   2233 ****        12.7500   7.7500  20.0000 Du        
   2234 ****        12.7500   7.7500  20.2500 Du        
   2235 ****        12.7500   8.0000  20.0000 Du        
   2236 ****        12.7500   8.0000  20.2500 Du        
   2237 ****        12.7500   8.2500  19.7500 Du        
   2238 ****        12.7500   8.2500  20.0000 Du        
   2239 ****        12.7500   8.2500  20.2500 Du        
   2240 ****        12.7500   8.5000  19.7500 Du        
   2241 ****        12.7500   8.5000  20.0000 Du        
   2242 ****        12.7500   8.7500  19.2500 Du        
   2243 ****        12.7500   8.7500  19.5000 Du        
   2244 ****        12.7500   8.7500  19.7500 Du        
   2245 ****        12.7500   8.7500  20.0000 Du        
   2246 ****        12.7500   8.7500  20.2500 Du        
   2247 ****        12.7500   9.0000  19.0000 Du        
   2248 ****        12.7500   9.0000  19.2500 Du        
   2249 ****        12.7500   9.0000  19.5000 Du        
   2250 ****        12.7500   9.0000  19.7500 Du        
   2251 ****        12.7500   9.0000  20.0000 Du        
   2252 ****        12.7500   9.0000  20.2500 Du        
   2253 ****        12.7500   9.2500  18.7500 Du        
   2254 ****        12.7500   9.2500  19.0000 Du        
   2255 ****        12.7500   9.2500  19.2500 Du        
   2256 ****        12.7500   9.2500  19.5000 Du        
   2257 ****        12.7500   9.2500  19.7500 Du        
   2258 ****        12.7500   9.2500  20.0000 Du        
   2259 ****        12.7500   9.5000  16.2500 Du        
   2260 ****        12.7500   9.5000  17.0000 Du        
   2261 ****        12.7500   9.5000  18.5000 Du        
   2262 ****        12.7500   9.5000  18.7500 Du        
   2263 ****        12.7500   9.5000  19.0000 Du        
   2264 ****        12.7500   9.5000  19.2500 Du        
   2265 ****        12.7500   9.5000  19.5000 Du        
   2266 ****        12.7500   9.5000  19.7500 Du        
   2267 ****        12.7500   9.5000  20.0000 Du        
   2268 ****        12.7500   9.7500  16.2500 Du        
   2269 ****        12.7500   9.7500  16.5000 Du        
   2270 ****        12.7500   9.7500  16.7500 Du        
   2271 ****        12.7500   9.7500  17.0000 Du        
   2272 ****        12.7500   9.7500  17.2500 Du        
   2273 ****        12.7500   9.7500  17.5000 Du        
   2274 ****        12.7500   9.7500  17.7500 Du        
   2275 ****        12.7500   9.7500  18.0000 Du        
   2276 ****        12.7500   9.7500  18.2500 Du        
   2277 ****        12.7500   9.7500  18.5000 Du        
   2278 ****        12.7500   9.7500  18.7500 Du        
   2279 ****        12.7500   9.7500  19.0000 Du        
   2280 ****        12.7500   9.7500  19.2500 Du        
   2281 ****        12.7500   9.7500  19.5000 Du        
   2282 ****        12.7500   9.7500  19.7500 Du        
   2283 ****        12.7500   9.7500  20.0000 Du        
   2284 ****        12.7500  10.0000  16.0000 Du        
   2285 ****        12.7500  10.0000  16.2500 Du        
   2286 ****        12.7500  10.0000  16.5000 Du        
   2287 ****        12.7500  10.0000  16.7500 Du        
   2288 ****        12.7500  10.0000  17.0000 Du        
   2289 ****        12.7500  10.0000  17.2500 Du        
   2290 ****        12.7500  10.0000  17.5000 Du        
   2291 ****        12.7500  10.0000  17.7500 Du        
   2292 ****        12.7500  10.0000  18.0000 Du        
   2293 ****        12.7500  10.0000  18.2500 Du        
   2294 ****        12.7500  10.0000  18.5000 Du        
   2295 ****        12.7500  10.0000  18.7500 Du        
   2296 ****        12.7500  10.0000  19.0000 Du        
   2297 ****        12.7500  10.0000  19.2500 Du        
   2298 ****        12.7500  10.0000  19.5000 Du        
   2299 ****        12.7500  10.2500  16.0000 Du        
   2300 ****        12.7500  10.2500  16.2500 Du        
   2301 ****        12.7500  10.2500  16.5000 Du        
   2302 ****        12.7500  10.2500  16.7500 Du        
   2303 ****        12.7500  10.2500  17.0000 Du        
   2304 ****        12.7500  10.2500  17.2500 Du        
   2305 ****        12.7500  10.2500  17.5000 Du        
   2306 ****        12.7500  10.2500  17.7500 Du        
   2307 ****        12.7500  10.5000  15.7500 Du        
   2308 ****        12.7500  10.5000  16.0000 Du        
   2309 ****        12.7500  10.5000  16.2500 Du        
   2310 ****        12.7500  10.5000  16.5000 Du        
   2311 ****        12.7500  10.5000  16.7500 Du        
   2312 ****        12.7500  10.5000  17.0000 Du        
   2313 ****        12.7500  10.5000  17.2500 Du        
   2314 ****        12.7500  10.7500  15.5000 Du        
   2315 ****        12.7500  10.7500  15.7500 Du        
   2316 ****        12.7500  10.7500  16.0000 Du        
   2317 ****        12.7500  10.7500  16.2500 Du        
   2318 ****        12.7500  10.7500  16.5000 Du        
   2319 ****        12.7500  10.7500  16.7500 Du        
   2320 ****        12.7500  10.7500  17.0000 Du        
   2321 ****        12.7500  11.0000  15.2500 Du        
   2322 ****        12.7500  11.0000  15.5000 Du        
   2323 ****        12.7500  11.0000  15.7500 Du        
   2324 ****        12.7500  11.0000  16.0000 Du        
   2325 ****        12.7500  11.0000  16.2500 Du        
   2326 ****        12.7500  11.2500  15.2500 Du        
   2327 ****        12.7500  11.2500  15.5000 Du        
   2328 ****        12.7500  11.2500  15.7500 Du        
   2329 ****        12.7500  11.2500  16.0000 Du        
   2330 ****        12.7500  11.2500  16.2500 Du        
   2331 ****        12.7500  11.5000  15.0000 Du        
   2332 ****        12.7500  11.5000  15.2500 Du        
   2333 ****        12.7500  11.5000  15.5000 Du        
   2334 ****        12.7500  11.5000  15.7500 Du        
   2335 ****        12.7500  11.5000  16.0000 Du        
   2336 ****        12.7500  11.7500  14.7500 Du        
   2337 ****        12.7500  11.7500  15.0000 Du        
   2338 ****        12.7500  11.7500  15.2500 Du        
   2339 ****        12.7500  11.7500  15.5000 Du        
   2340 ****        12.7500  11.7500  15.7500 Du        
   2341 ****        12.7500  11.7500  16.0000 Du        
   2342 ****        12.7500  12.0000  14.0000 Du        
   2343 ****        12.7500  12.0000  14.2500 Du        
   2344 ****        12.7500  12.0000  14.5000 Du        
   2345 ****        12.7500  12.0000  14.7500 Du        
   2346 ****        12.7500  12.0000  15.0000 Du        
   2347 ****        12.7500  12.0000  15.2500 Du        
   2348 ****        12.7500  12.0000  15.5000 Du        
   2349 ****        12.7500  12.0000  15.7500 Du        
   2350 ****        12.7500  12.2500  13.5000 Du        
   2351 ****        12.7500  12.2500  13.7500 Du        
   2352 ****        12.7500  12.2500  14.0000 Du        
   2353 ****        12.7500  12.2500  14.2500 Du        
   2354 ****        12.7500  12.2500  14.5000 Du        
   2355 ****        12.7500  12.2500  14.7500 Du        
   2356 ****        12.7500  12.2500  15.0000 Du        
   2357 ****        12.7500  12.2500  15.2500 Du        
   2358 ****        12.7500  12.2500  15.5000 Du        
   2359 ****        12.7500  12.5000  13.2500 Du        
   2360 ****        12.7500  12.5000  13.5000 Du        
   2361 ****        12.7500  12.5000  13.7500 Du        
   2362 ****        12.7500  12.5000  14.0000 Du        
   2363 ****        12.7500  12.5000  14.2500 Du        
   2364 ****        12.7500  12.5000  14.5000 Du        
   2365 ****        12.7500  12.5000  14.7500 Du        
   2366 ****        12.7500  12.5000  15.0000 Du        
   2367 ****        12.7500  12.5000  15.2500 Du        
   2368 ****        12.7500  12.5000  15.5000 Du        
   2369 ****        12.7500  12.7500   8.7500 Du        
   2370 ****        12.7500  12.7500   9.0000 Du        
   2371 ****        12.7500  12.7500   9.2500 Du        
   2372 ****        12.7500  12.7500  13.0000 Du        
   2373 ****        12.7500  12.7500  13.2500 Du        
   2374 ****        12.7500  12.7500  13.5000 Du        
   2375 ****        12.7500  12.7500  13.7500 Du        
   2376 ****        12.7500  12.7500  14.0000 Du        
   2377 ****        12.7500  12.7500  14.2500 Du        
   2378 ****        12.7500  12.7500  14.5000 Du        
   2379 ****        12.7500  12.7500  14.7500 Du        
   2380 ****        12.7500  12.7500  15.0000 Du        
   2381 ****        12.7500  12.7500  15.2500 Du        
   2382 ****        12.7500  12.7500  15.5000 Du        
   2383 ****        12.7500  13.0000   8.7500 Du        
   2384 ****        12.7500  13.0000   9.0000 Du        
   2385 ****        12.7500  13.0000   9.2500 Du        
   2386 ****        12.7500  13.0000   9.5000 Du        
   2387 ****        12.7500  13.0000  12.7500 Du        
   2388 ****        12.7500  13.0000  13.0000 Du        
   2389 ****        12.7500  13.0000  13.2500 Du        
   2390 ****        12.7500  13.0000  13.5000 Du        
   2391 ****        12.7500  13.0000  13.7500 Du        
   2392 ****        12.7500  13.0000  14.0000 Du        
   2393 ****        12.7500  13.0000  14.2500 Du        
   2394 ****        12.7500  13.0000  14.5000 Du        
   2395 ****        12.7500  13.0000  14.7500 Du        
   2396 ****        12.7500  13.0000  15.0000 Du        
   2397 ****        12.7500  13.0000  15.2500 Du        
   2398 ****        12.7500  13.2500  13.0000 Du        
   2399 ****        12.7500  13.2500  13.2500 Du        
   2400 ****        12.7500  13.2500  13.5000 Du        
   2401 ****        12.7500  13.2500  13.7500 Du        
   2402 ****        12.7500  13.2500  14.0000 Du        
   2403 ****        12.7500  13.2500  14.2500 Du        
   2404 ****        12.7500  13.2500  14.5000 Du        
   2405 ****        12.7500  13.2500  14.7500 Du        
   2406 ****        12.7500  13.2500  15.0000 Du        
   2407 ****        12.7500  13.2500  15.2500 Du        
   2408 ****        12.7500  13.5000  13.2500 Du        
   2409 ****        12.7500  13.5000  13.5000 Du        
   2410 ****        12.7500  13.5000  13.7500 Du        
   2411 ****        12.7500  13.5000  14.0000 Du        
   2412 ****        12.7500  13.5000  14.2500 Du        
   2413 ****        12.7500  13.5000  14.5000 Du        
   2414 ****        12.7500  13.5000  14.7500 Du        
   2415 ****        12.7500  13.5000  15.0000 Du        
   2416 ****        12.7500  13.5000  15.2500 Du        
   2417 ****        12.7500  13.7500  13.5000 Du        
   2418 ****        12.7500  13.7500  13.7500 Du        
   2419 ****        12.7500  13.7500  14.0000 Du        
   2420 ****        12.7500  13.7500  14.2500 Du        
   2421 ****        12.7500  13.7500  14.5000 Du        
   2422 ****        12.7500  13.7500  14.7500 Du        
   2423 ****        12.7500  13.7500  15.0000 Du        
   2424 ****        12.7500  13.7500  15.2500 Du        
   2425 ****        12.7500  14.0000  13.7500 Du        
   2426 ****        12.7500  14.0000  14.0000 Du        
   2427 ****        12.7500  14.0000  14.2500 Du        
   2428 ****        12.7500  14.0000  14.5000 Du        
   2429 ****        12.7500  14.0000  14.7500 Du        
   2430 ****        13.0000   7.7500  20.0000 Du        
   2431 ****        13.0000   7.7500  20.2500 Du        
   2432 ****        13.0000   8.0000  20.2500 Du        
   2433 ****        13.0000   8.2500  19.7500 Du        
   2434 ****        13.0000   8.2500  20.0000 Du        
   2435 ****        13.0000   8.2500  20.2500 Du        
   2436 ****        13.0000   8.2500  20.5000 Du        
   2437 ****        13.0000   8.5000  19.7500 Du        
   2438 ****        13.0000   8.5000  20.0000 Du        
   2439 ****        13.0000   8.5000  20.2500 Du        
   2440 ****        13.0000   8.5000  20.5000 Du        
   2441 ****        13.0000   8.7500  19.7500 Du        
   2442 ****        13.0000   8.7500  20.0000 Du        
   2443 ****        13.0000   8.7500  20.2500 Du        
   2444 ****        13.0000   8.7500  20.5000 Du        
   2445 ****        13.0000   9.0000  19.5000 Du        
   2446 ****        13.0000   9.0000  19.7500 Du        
   2447 ****        13.0000   9.0000  20.0000 Du        
   2448 ****        13.0000   9.0000  20.2500 Du        
   2449 ****        13.0000   9.0000  20.5000 Du        
   2450 ****        13.0000   9.2500  19.2500 Du        
   2451 ****        13.0000   9.2500  19.5000 Du        
   2452 ****        13.0000   9.2500  19.7500 Du        
   2453 ****        13.0000   9.2500  20.0000 Du        
   2454 ****        13.0000   9.2500  20.2500 Du        
   2455 ****        13.0000   9.5000  19.0000 Du        
   2456 ****        13.0000   9.5000  19.2500 Du        
   2457 ****        13.0000   9.5000  19.5000 Du        
   2458 ****        13.0000   9.5000  19.7500 Du        
   2459 ****        13.0000   9.5000  20.0000 Du        
   2460 ****        13.0000   9.5000  20.2500 Du        
   2461 ****        13.0000   9.7500  16.2500 Du        
   2462 ****        13.0000   9.7500  16.5000 Du        
   2463 ****        13.0000   9.7500  18.7500 Du        
   2464 ****        13.0000   9.7500  19.0000 Du        
   2465 ****        13.0000   9.7500  19.2500 Du        
   2466 ****        13.0000   9.7500  19.5000 Du        
   2467 ****        13.0000   9.7500  19.7500 Du        
   2468 ****        13.0000   9.7500  20.0000 Du        
   2469 ****        13.0000  10.0000  16.0000 Du        
   2470 ****        13.0000  10.0000  16.2500 Du        
   2471 ****        13.0000  10.0000  16.5000 Du        
   2472 ****        13.0000  10.0000  16.7500 Du        
   2473 ****        13.0000  10.0000  17.0000 Du        
   2474 ****        13.0000  10.2500  15.7500 Du        
   2475 ****        13.0000  10.2500  16.0000 Du        
   2476 ****        13.0000  10.2500  16.2500 Du        
   2477 ****        13.0000  10.2500  16.5000 Du        
   2478 ****        13.0000  10.2500  16.7500 Du        
   2479 ****        13.0000  10.2500  17.0000 Du        
   2480 ****        13.0000  10.5000  15.7500 Du        
   2481 ****        13.0000  10.5000  16.0000 Du        
   2482 ****        13.0000  10.5000  16.2500 Du        
   2483 ****        13.0000  10.5000  16.5000 Du        
   2484 ****        13.0000  10.5000  16.7500 Du        
   2485 ****        13.0000  10.7500  15.5000 Du        
   2486 ****        13.0000  10.7500  15.7500 Du        
   2487 ****        13.0000  10.7500  16.0000 Du        
   2488 ****        13.0000  10.7500  16.2500 Du        
   2489 ****        13.0000  10.7500  16.5000 Du        
   2490 ****        13.0000  11.0000  15.2500 Du        
   2491 ****        13.0000  11.0000  15.5000 Du        
   2492 ****        13.0000  11.0000  15.7500 Du        
   2493 ****        13.0000  11.0000  16.0000 Du        
   2494 ****        13.0000  11.0000  16.2500 Du        
   2495 ****        13.0000  11.2500  15.2500 Du        
   2496 ****        13.0000  11.2500  15.5000 Du        
   2497 ****        13.0000  11.2500  15.7500 Du        
   2498 ****        13.0000  11.2500  16.0000 Du        
   2499 ****        13.0000  11.2500  16.2500 Du        
   2500 ****        13.0000  11.5000  15.0000 Du        
   2501 ****        13.0000  11.5000  15.2500 Du        
   2502 ****        13.0000  11.5000  15.5000 Du        
   2503 ****        13.0000  11.5000  15.7500 Du        
   2504 ****        13.0000  11.5000  16.0000 Du        
   2505 ****        13.0000  11.7500  14.5000 Du        
   2506 ****        13.0000  11.7500  14.7500 Du        
   2507 ****        13.0000  11.7500  15.0000 Du        
   2508 ****        13.0000  11.7500  15.2500 Du        
   2509 ****        13.0000  11.7500  15.5000 Du        
   2510 ****        13.0000  11.7500  15.7500 Du        
   2511 ****        13.0000  11.7500  16.0000 Du        
   2512 ****        13.0000  12.0000  14.0000 Du        
   2513 ****        13.0000  12.0000  14.2500 Du        
   2514 ****        13.0000  12.0000  14.5000 Du        
   2515 ****        13.0000  12.0000  14.7500 Du        
   2516 ****        13.0000  12.0000  15.0000 Du        
   2517 ****        13.0000  12.0000  15.2500 Du        
   2518 ****        13.0000  12.0000  15.5000 Du        
   2519 ****        13.0000  12.0000  15.7500 Du        
   2520 ****        13.0000  12.2500  13.5000 Du        
   2521 ****        13.0000  12.2500  13.7500 Du        
   2522 ****        13.0000  12.2500  14.0000 Du        
   2523 ****        13.0000  12.2500  14.2500 Du        
   2524 ****        13.0000  12.2500  14.5000 Du        
   2525 ****        13.0000  12.2500  14.7500 Du        
   2526 ****        13.0000  12.2500  15.0000 Du        
   2527 ****        13.0000  12.2500  15.2500 Du        
   2528 ****        13.0000  12.2500  15.5000 Du        
   2529 ****        13.0000  12.2500  15.7500 Du        
   2530 ****        13.0000  12.5000  13.5000 Du        
   2531 ****        13.0000  12.5000  13.7500 Du        
   2532 ****        13.0000  12.5000  14.0000 Du        
   2533 ****        13.0000  12.5000  14.2500 Du        
   2534 ****        13.0000  12.5000  14.5000 Du        
   2535 ****        13.0000  12.5000  14.7500 Du        
   2536 ****        13.0000  12.5000  15.0000 Du        
   2537 ****        13.0000  12.5000  15.2500 Du        
   2538 ****        13.0000  12.5000  15.5000 Du        
   2539 ****        13.0000  12.7500   8.7500 Du        
   2540 ****        13.0000  12.7500   9.0000 Du        
   2541 ****        13.0000  12.7500   9.2500 Du        
   2542 ****        13.0000  12.7500   9.5000 Du        
   2543 ****        13.0000  12.7500  12.2500 Du        
   2544 ****        13.0000  12.7500  13.0000 Du        
   2545 ****        13.0000  12.7500  13.2500 Du        
   2546 ****        13.0000  12.7500  13.5000 Du        
   2547 ****        13.0000  12.7500  13.7500 Du        
   2548 ****        13.0000  12.7500  14.0000 Du        
   2549 ****        13.0000  12.7500  14.2500 Du        
   2550 ****        13.0000  12.7500  14.5000 Du        
   2551 ****        13.0000  12.7500  14.7500 Du        
   2552 ****        13.0000  12.7500  15.0000 Du        
   2553 ****        13.0000  12.7500  15.2500 Du        
   2554 ****        13.0000  12.7500  15.5000 Du        
   2555 ****        13.0000  13.0000   9.0000 Du        
   2556 ****        13.0000  13.0000   9.2500 Du        
   2557 ****        13.0000  13.0000   9.5000 Du        
   2558 ****        13.0000  13.0000   9.7500 Du        
   2559 ****        13.0000  13.0000  12.7500 Du        
   2560 ****        13.0000  13.0000  13.0000 Du        
   2561 ****        13.0000  13.0000  13.2500 Du        
   2562 ****        13.0000  13.0000  13.5000 Du        
   2563 ****        13.0000  13.0000  13.7500 Du        
   2564 ****        13.0000  13.0000  14.0000 Du        
   2565 ****        13.0000  13.0000  14.2500 Du        
   2566 ****        13.0000  13.0000  14.5000 Du        
   2567 ****        13.0000  13.0000  14.7500 Du        
   2568 ****        13.0000  13.0000  15.0000 Du        
   2569 ****        13.0000  13.0000  15.2500 Du        
   2570 ****        13.0000  13.0000  15.5000 Du        
   2571 ****        13.0000  13.2500  13.0000 Du        
   2572 ****        13.0000  13.2500  13.2500 Du        
   2573 ****        13.0000  13.2500  13.5000 Du        
   2574 ****        13.0000  13.2500  13.7500 Du        
   2575 ****        13.0000  13.2500  14.0000 Du        
   2576 ****        13.0000  13.2500  14.2500 Du        
   2577 ****        13.0000  13.2500  14.5000 Du        
   2578 ****        13.0000  13.2500  14.7500 Du        
   2579 ****        13.0000  13.2500  15.0000 Du        
   2580 ****        13.0000  13.2500  15.2500 Du        
   2581 ****        13.0000  13.2500  15.5000 Du        
   2582 ****        13.0000  13.5000  13.2500 Du        
   2583 ****        13.0000  13.5000  13.5000 Du        
   2584 ****        13.0000  13.5000  13.7500 Du        
   2585 ****        13.0000  13.5000  14.0000 Du        
   2586 ****        13.0000  13.5000  14.2500 Du        
   2587 ****        13.0000  13.5000  14.5000 Du        
   2588 ****        13.0000  13.5000  14.7500 Du        
   2589 ****        13.0000  13.5000  15.0000 Du        
   2590 ****        13.0000  13.5000  15.2500 Du        
   2591 ****        13.0000  13.5000  15.5000 Du        
   2592 ****        13.0000  13.7500  13.2500 Du        
   2593 ****        13.0000  13.7500  13.5000 Du        
   2594 ****        13.0000  13.7500  13.7500 Du        
   2595 ****        13.0000  13.7500  14.0000 Du        
   2596 ****        13.0000  13.7500  14.2500 Du        
   2597 ****        13.0000  13.7500  14.5000 Du        
   2598 ****        13.0000  13.7500  14.7500 Du        
   2599 ****        13.0000  13.7500  15.0000 Du        
   2600 ****        13.0000  13.7500  15.2500 Du        
   2601 ****        13.0000  14.0000  13.5000 Du        
   2602 ****        13.0000  14.0000  13.7500 Du        
   2603 ****        13.0000  14.0000  14.0000 Du        
   2604 ****        13.0000  14.0000  14.2500 Du        
   2605 ****        13.0000  14.0000  14.5000 Du        
   2606 ****        13.0000  14.0000  14.7500 Du        
   2607 ****        13.0000  14.0000  15.0000 Du        
   2608 ****        13.0000  14.0000  15.2500 Du        
   2609 ****        13.0000  14.2500  14.0000 Du        
   2610 ****        13.2500   8.0000  20.2500 Du        
   2611 ****        13.2500   8.0000  20.5000 Du        
   2612 ****        13.2500   8.0000  20.7500 Du        
   2613 ****        13.2500   8.2500  20.0000 Du        
   2614 ****        13.2500   8.2500  20.2500 Du        
   2615 ****        13.2500   8.2500  20.5000 Du        
   2616 ****        13.2500   8.2500  20.7500 Du        
   2617 ****        13.2500   8.5000  20.0000 Du        
   2618 ****        13.2500   8.5000  20.2500 Du        
   2619 ****        13.2500   8.5000  20.5000 Du        
   2620 ****        13.2500   8.5000  20.7500 Du        
   2621 ****        13.2500   8.7500  19.7500 Du        
   2622 ****        13.2500   8.7500  20.0000 Du        
   2623 ****        13.2500   8.7500  20.2500 Du        
   2624 ****        13.2500   8.7500  20.5000 Du        
   2625 ****        13.2500   8.7500  20.7500 Du        
   2626 ****        13.2500   9.0000  19.7500 Du        
   2627 ****        13.2500   9.0000  20.0000 Du        
   2628 ****        13.2500   9.0000  20.2500 Du        
   2629 ****        13.2500   9.0000  20.5000 Du        
   2630 ****        13.2500   9.0000  20.7500 Du        
   2631 ****        13.2500   9.2500  19.7500 Du        
   2632 ****        13.2500   9.2500  20.0000 Du        
   2633 ****        13.2500   9.2500  20.2500 Du        
   2634 ****        13.2500   9.2500  20.5000 Du        
   2635 ****        13.2500   9.5000  19.5000 Du        
   2636 ****        13.2500   9.5000  19.7500 Du        
   2637 ****        13.2500   9.5000  20.0000 Du        
   2638 ****        13.2500   9.5000  20.2500 Du        
   2639 ****        13.2500   9.7500  20.0000 Du        
   2640 ****        13.2500  10.0000  16.0000 Du        
   2641 ****        13.2500  10.0000  16.2500 Du        
   2642 ****        13.2500  10.2500  16.0000 Du        
   2643 ****        13.2500  10.2500  16.2500 Du        
   2644 ****        13.2500  10.2500  16.5000 Du        
   2645 ****        13.2500  10.5000  15.7500 Du        
   2646 ****        13.2500  10.5000  16.0000 Du        
   2647 ****        13.2500  10.5000  16.2500 Du        
   2648 ****        13.2500  10.7500  15.5000 Du        
   2649 ****        13.2500  10.7500  15.7500 Du        
   2650 ****        13.2500  10.7500  16.0000 Du        
   2651 ****        13.2500  10.7500  16.2500 Du        
   2652 ****        13.2500  11.0000  15.2500 Du        
   2653 ****        13.2500  11.0000  15.5000 Du        
   2654 ****        13.2500  11.0000  15.7500 Du        
   2655 ****        13.2500  11.0000  16.0000 Du        
   2656 ****        13.2500  11.0000  16.2500 Du        
   2657 ****        13.2500  11.2500  15.0000 Du        
   2658 ****        13.2500  11.2500  15.2500 Du        
   2659 ****        13.2500  11.2500  15.5000 Du        
   2660 ****        13.2500  11.2500  15.7500 Du        
   2661 ****        13.2500  11.2500  16.0000 Du        
   2662 ****        13.2500  11.5000  15.0000 Du        
   2663 ****        13.2500  11.5000  15.2500 Du        
   2664 ****        13.2500  11.5000  15.5000 Du        
   2665 ****        13.2500  11.5000  15.7500 Du        
   2666 ****        13.2500  11.7500  14.7500 Du        
   2667 ****        13.2500  11.7500  15.0000 Du        
   2668 ****        13.2500  11.7500  15.2500 Du        
   2669 ****        13.2500  11.7500  15.5000 Du        
   2670 ****        13.2500  11.7500  15.7500 Du        
   2671 ****        13.2500  12.0000  14.0000 Du        
   2672 ****        13.2500  12.0000  14.2500 Du        
   2673 ****        13.2500  12.0000  14.5000 Du        
   2674 ****        13.2500  12.0000  14.7500 Du        
   2675 ****        13.2500  12.0000  15.0000 Du        
   2676 ****        13.2500  12.0000  15.2500 Du        
   2677 ****        13.2500  12.0000  15.5000 Du        
   2678 ****        13.2500  12.0000  15.7500 Du        
   2679 ****        13.2500  12.2500  13.7500 Du        
   2680 ****        13.2500  12.2500  14.0000 Du        
   2681 ****        13.2500  12.2500  14.2500 Du        
   2682 ****        13.2500  12.2500  14.5000 Du        
   2683 ****        13.2500  12.2500  14.7500 Du        
   2684 ****        13.2500  12.2500  15.0000 Du        
   2685 ****        13.2500  12.2500  15.2500 Du        
   2686 ****        13.2500  12.2500  15.5000 Du        
   2687 ****        13.2500  12.5000   9.0000 Du        
   2688 ****        13.2500  12.5000   9.2500 Du        
   2689 ****        13.2500  12.5000  14.0000 Du        
   2690 ****        13.2500  12.5000  14.2500 Du        
   2691 ****        13.2500  12.5000  14.5000 Du        
   2692 ****        13.2500  12.5000  14.7500 Du        
   2693 ****        13.2500  12.5000  15.0000 Du        
   2694 ****        13.2500  12.5000  15.2500 Du        
   2695 ****        13.2500  12.7500   9.0000 Du        
   2696 ****        13.2500  12.7500   9.2500 Du        
   2697 ****        13.2500  12.7500   9.5000 Du        
   2698 ****        13.2500  12.7500   9.7500 Du        
   2699 ****        13.2500  12.7500  10.0000 Du        
   2700 ****        13.2500  12.7500  11.7500 Du        
   2701 ****        13.2500  12.7500  12.0000 Du        
   2702 ****        13.2500  12.7500  12.2500 Du        
   2703 ****        13.2500  12.7500  13.0000 Du        
   2704 ****        13.2500  12.7500  13.2500 Du        
   2705 ****        13.2500  12.7500  13.5000 Du        
   2706 ****        13.2500  12.7500  13.7500 Du        
   2707 ****        13.2500  12.7500  14.0000 Du        
   2708 ****        13.2500  12.7500  14.2500 Du        
   2709 ****        13.2500  12.7500  14.5000 Du        
   2710 ****        13.2500  12.7500  14.7500 Du        
   2711 ****        13.2500  12.7500  15.0000 Du        
   2712 ****        13.2500  12.7500  15.2500 Du        
   2713 ****        13.2500  12.7500  15.5000 Du        
   2714 ****        13.2500  13.0000   9.2500 Du        
   2715 ****        13.2500  13.0000   9.5000 Du        
   2716 ****        13.2500  13.0000   9.7500 Du        
   2717 ****        13.2500  13.0000  10.0000 Du        
   2718 ****        13.2500  13.0000  10.2500 Du        
   2719 ****        13.2500  13.0000  12.0000 Du        
   2720 ****        13.2500  13.0000  12.2500 Du        
   2721 ****        13.2500  13.0000  13.0000 Du        
   2722 ****        13.2500  13.0000  13.2500 Du        
   2723 ****        13.2500  13.0000  13.5000 Du        
   2724 ****        13.2500  13.0000  13.7500 Du        
   2725 ****        13.2500  13.0000  14.0000 Du        
   2726 ****        13.2500  13.0000  14.2500 Du        
   2727 ****        13.2500  13.0000  14.5000 Du        
   2728 ****        13.2500  13.0000  14.7500 Du        
   2729 ****        13.2500  13.0000  15.0000 Du        
   2730 ****        13.2500  13.0000  15.2500 Du        
   2731 ****        13.2500  13.0000  15.5000 Du        
   2732 ****        13.2500  13.2500  13.0000 Du        
   2733 ****        13.2500  13.2500  13.2500 Du        
   2734 ****        13.2500  13.2500  13.5000 Du        
   2735 ****        13.2500  13.2500  13.7500 Du        
   2736 ****        13.2500  13.2500  14.0000 Du        
   2737 ****        13.2500  13.2500  14.2500 Du        
   2738 ****        13.2500  13.2500  14.5000 Du        
   2739 ****        13.2500  13.2500  14.7500 Du        
   2740 ****        13.2500  13.2500  15.0000 Du        
   2741 ****        13.2500  13.2500  15.2500 Du        
   2742 ****        13.2500  13.2500  15.5000 Du        
   2743 ****        13.2500  13.5000  13.2500 Du        
   2744 ****        13.2500  13.5000  13.5000 Du        
   2745 ****        13.2500  13.5000  13.7500 Du        
   2746 ****        13.2500  13.5000  14.0000 Du        
   2747 ****        13.2500  13.5000  14.2500 Du        
   2748 ****        13.2500  13.5000  14.5000 Du        
   2749 ****        13.2500  13.5000  14.7500 Du        
   2750 ****        13.2500  13.5000  15.0000 Du        
   2751 ****        13.2500  13.5000  15.2500 Du        
   2752 ****        13.2500  13.5000  15.5000 Du        
   2753 ****        13.2500  13.7500  13.2500 Du        
   2754 ****        13.2500  13.7500  13.5000 Du        
   2755 ****        13.2500  13.7500  13.7500 Du        
   2756 ****        13.2500  13.7500  14.0000 Du        
   2757 ****        13.2500  13.7500  14.2500 Du        
   2758 ****        13.2500  13.7500  14.5000 Du        
   2759 ****        13.2500  13.7500  14.7500 Du        
   2760 ****        13.2500  13.7500  15.0000 Du        
   2761 ****        13.2500  13.7500  15.2500 Du        
   2762 ****        13.2500  14.0000  13.5000 Du        
   2763 ****        13.2500  14.0000  13.7500 Du        
   2764 ****        13.2500  14.0000  14.0000 Du        
   2765 ****        13.2500  14.0000  14.2500 Du        
   2766 ****        13.2500  14.0000  14.5000 Du        
   2767 ****        13.2500  14.0000  14.7500 Du        
   2768 ****        13.2500  14.0000  15.0000 Du        
   2769 ****        13.2500  14.0000  15.2500 Du        
   2770 ****        13.2500  14.2500  13.5000 Du        
   2771 ****        13.2500  14.2500  13.7500 Du        
   2772 ****        13.2500  14.2500  14.0000 Du        
   2773 ****        13.2500  14.2500  14.2500 Du        
   2774 ****        13.2500  14.2500  14.5000 Du        
   2775 ****        13.2500  14.2500  14.7500 Du        
   2776 ****        13.2500  14.2500  15.0000 Du        
   2777 ****        13.5000   8.5000  20.2500 Du        
   2778 ****        13.5000   8.5000  20.5000 Du        
   2779 ****        13.5000   8.5000  20.7500 Du        
   2780 ****        13.5000   8.7500  20.0000 Du        
   2781 ****        13.5000   8.7500  20.2500 Du        
   2782 ****        13.5000   8.7500  20.5000 Du        
   2783 ****        13.5000   8.7500  20.7500 Du        
   2784 ****        13.5000   8.7500  21.0000 Du        
   2785 ****        13.5000   9.0000  20.0000 Du        
   2786 ****        13.5000   9.0000  20.2500 Du        
   2787 ****        13.5000   9.0000  20.5000 Du        
   2788 ****        13.5000   9.0000  20.7500 Du        
   2789 ****        13.5000   9.0000  21.0000 Du        
   2790 ****        13.5000   9.2500  20.0000 Du        
   2791 ****        13.5000   9.2500  20.2500 Du        
   2792 ****        13.5000   9.2500  20.5000 Du        
   2793 ****        13.5000   9.2500  20.7500 Du        
   2794 ****        13.5000   9.5000  19.7500 Du        
   2795 ****        13.5000   9.5000  20.0000 Du        
   2796 ****        13.5000   9.5000  20.2500 Du        
   2797 ****        13.5000   9.5000  20.5000 Du        
   2798 ****        13.5000  10.2500  16.0000 Du        
   2799 ****        13.5000  10.2500  16.2500 Du        
   2800 ****        13.5000  10.5000  15.7500 Du        
   2801 ****        13.5000  10.5000  16.0000 Du        
   2802 ****        13.5000  10.5000  16.2500 Du        
   2803 ****        13.5000  10.7500  15.5000 Du        
   2804 ****        13.5000  10.7500  15.7500 Du        
   2805 ****        13.5000  10.7500  16.0000 Du        
   2806 ****        13.5000  10.7500  16.2500 Du        
   2807 ****        13.5000  11.0000  15.2500 Du        
   2808 ****        13.5000  11.0000  15.5000 Du        
   2809 ****        13.5000  11.0000  15.7500 Du        
   2810 ****        13.5000  11.0000  16.0000 Du        
   2811 ****        13.5000  11.2500  15.0000 Du        
   2812 ****        13.5000  11.2500  15.2500 Du        
   2813 ****        13.5000  11.2500  15.5000 Du        
   2814 ****        13.5000  11.2500  15.7500 Du        
   2815 ****        13.5000  11.2500  16.0000 Du        
   2816 ****        13.5000  11.5000  14.7500 Du        
   2817 ****        13.5000  11.5000  15.0000 Du        
   2818 ****        13.5000  11.5000  15.2500 Du        
   2819 ****        13.5000  11.5000  15.5000 Du        
   2820 ****        13.5000  11.5000  15.7500 Du        
   2821 ****        13.5000  11.7500  14.5000 Du        
   2822 ****        13.5000  11.7500  14.7500 Du        
   2823 ****        13.5000  11.7500  15.0000 Du        
   2824 ****        13.5000  11.7500  15.2500 Du        
   2825 ****        13.5000  11.7500  15.5000 Du        
   2826 ****        13.5000  12.0000  14.0000 Du        
   2827 ****        13.5000  12.0000  14.2500 Du        
   2828 ****        13.5000  12.0000  14.5000 Du        
   2829 ****        13.5000  12.0000  14.7500 Du        
   2830 ****        13.5000  12.0000  15.0000 Du        
   2831 ****        13.5000  12.0000  15.2500 Du        
   2832 ****        13.5000  12.0000  15.5000 Du        
   2833 ****        13.5000  12.2500  12.0000 Du        
   2834 ****        13.5000  12.2500  12.2500 Du        
   2835 ****        13.5000  12.2500  13.7500 Du        
   2836 ****        13.5000  12.2500  14.0000 Du        
   2837 ****        13.5000  12.2500  14.2500 Du        
   2838 ****        13.5000  12.2500  14.5000 Du        
   2839 ****        13.5000  12.2500  14.7500 Du        
   2840 ****        13.5000  12.2500  15.0000 Du        
   2841 ****        13.5000  12.2500  15.2500 Du        
   2842 ****        13.5000  12.5000   9.0000 Du        
   2843 ****        13.5000  12.5000   9.2500 Du        
   2844 ****        13.5000  12.5000   9.5000 Du        
   2845 ****        13.5000  12.5000   9.7500 Du        
   2846 ****        13.5000  12.5000  10.0000 Du        
   2847 ****        13.5000  12.5000  10.2500 Du        
   2848 ****        13.5000  12.5000  11.0000 Du        
   2849 ****        13.5000  12.5000  11.2500 Du        
   2850 ****        13.5000  12.5000  11.5000 Du        
   2851 ****        13.5000  12.5000  11.7500 Du        
   2852 ****        13.5000  12.5000  12.0000 Du        
   2853 ****        13.5000  12.5000  12.2500 Du        
   2854 ****        13.5000  12.5000  13.2500 Du        
   2855 ****        13.5000  12.5000  13.5000 Du        
   2856 ****        13.5000  12.5000  13.7500 Du        
   2857 ****        13.5000  12.5000  14.0000 Du        
   2858 ****        13.5000  12.5000  14.2500 Du        
   2859 ****        13.5000  12.5000  14.5000 Du        
   2860 ****        13.5000  12.5000  14.7500 Du        
   2861 ****        13.5000  12.5000  15.0000 Du        
   2862 ****        13.5000  12.5000  15.2500 Du        
   2863 ****        13.5000  12.7500   9.2500 Du        
   2864 ****        13.5000  12.7500   9.5000 Du        
   2865 ****        13.5000  12.7500   9.7500 Du        
   2866 ****        13.5000  12.7500  10.0000 Du        
   2867 ****        13.5000  12.7500  10.2500 Du        
   2868 ****        13.5000  12.7500  10.5000 Du        
   2869 ****        13.5000  12.7500  10.7500 Du        
   2870 ****        13.5000  12.7500  11.0000 Du        
   2871 ****        13.5000  12.7500  11.2500 Du        
   2872 ****        13.5000  12.7500  11.5000 Du        
   2873 ****        13.5000  12.7500  11.7500 Du        
   2874 ****        13.5000  12.7500  12.0000 Du        
   2875 ****        13.5000  12.7500  12.2500 Du        
   2876 ****        13.5000  12.7500  12.7500 Du        
   2877 ****        13.5000  12.7500  13.0000 Du        
   2878 ****        13.5000  12.7500  13.2500 Du        
   2879 ****        13.5000  12.7500  13.5000 Du        
   2880 ****        13.5000  12.7500  13.7500 Du        
   2881 ****        13.5000  12.7500  14.0000 Du        
   2882 ****        13.5000  12.7500  14.2500 Du        
   2883 ****        13.5000  12.7500  14.5000 Du        
   2884 ****        13.5000  12.7500  14.7500 Du        
   2885 ****        13.5000  12.7500  15.0000 Du        
   2886 ****        13.5000  12.7500  15.2500 Du        
   2887 ****        13.5000  13.0000   9.2500 Du        
   2888 ****        13.5000  13.0000   9.5000 Du        
   2889 ****        13.5000  13.0000   9.7500 Du        
   2890 ****        13.5000  13.0000  10.0000 Du        
   2891 ****        13.5000  13.0000  10.2500 Du        
   2892 ****        13.5000  13.0000  10.5000 Du        
   2893 ****        13.5000  13.0000  10.7500 Du        
   2894 ****        13.5000  13.0000  11.0000 Du        
   2895 ****        13.5000  13.0000  11.2500 Du        
   2896 ****        13.5000  13.0000  11.5000 Du        
   2897 ****        13.5000  13.0000  11.7500 Du        
   2898 ****        13.5000  13.0000  12.0000 Du        
   2899 ****        13.5000  13.0000  12.2500 Du        
   2900 ****        13.5000  13.0000  12.5000 Du        
   2901 ****        13.5000  13.0000  13.0000 Du        
   2902 ****        13.5000  13.0000  13.2500 Du        
   2903 ****        13.5000  13.0000  13.5000 Du        
   2904 ****        13.5000  13.0000  13.7500 Du        
   2905 ****        13.5000  13.0000  14.0000 Du        
   2906 ****        13.5000  13.0000  14.2500 Du        
   2907 ****        13.5000  13.0000  14.5000 Du        
   2908 ****        13.5000  13.0000  14.7500 Du        
   2909 ****        13.5000  13.0000  15.0000 Du        
   2910 ****        13.5000  13.0000  15.2500 Du        
   2911 ****        13.5000  13.2500   9.7500 Du        
   2912 ****        13.5000  13.2500  10.0000 Du        
   2913 ****        13.5000  13.2500  10.2500 Du        
   2914 ****        13.5000  13.2500  13.5000 Du        
   2915 ****        13.5000  13.2500  13.7500 Du        
   2916 ****        13.5000  13.2500  14.0000 Du        
   2917 ****        13.5000  13.2500  14.2500 Du        
   2918 ****        13.5000  13.2500  14.5000 Du        
   2919 ****        13.5000  13.2500  14.7500 Du        
   2920 ****        13.5000  13.2500  15.0000 Du        
   2921 ****        13.5000  13.2500  15.2500 Du        
   2922 ****        13.5000  13.5000  12.7500 Du        
   2923 ****        13.5000  13.5000  13.0000 Du        
   2924 ****        13.5000  13.5000  13.2500 Du        
   2925 ****        13.5000  13.5000  13.5000 Du        
   2926 ****        13.5000  13.5000  13.7500 Du        
   2927 ****        13.5000  13.5000  14.0000 Du        
   2928 ****        13.5000  13.5000  14.2500 Du        
   2929 ****        13.5000  13.5000  14.5000 Du        
   2930 ****        13.5000  13.5000  14.7500 Du        
   2931 ****        13.5000  13.5000  15.0000 Du        
   2932 ****        13.5000  13.5000  15.2500 Du        
   2933 ****        13.5000  13.7500  13.0000 Du        
   2934 ****        13.5000  13.7500  13.2500 Du        
   2935 ****        13.5000  13.7500  13.5000 Du        
   2936 ****        13.5000  13.7500  13.7500 Du        
   2937 ****        13.5000  13.7500  14.0000 Du        
   2938 ****        13.5000  13.7500  14.2500 Du        
   2939 ****        13.5000  13.7500  14.5000 Du        
   2940 ****        13.5000  13.7500  14.7500 Du        
   2941 ****        13.5000  13.7500  15.0000 Du        
   2942 ****        13.5000  13.7500  15.2500 Du        
   2943 ****        13.5000  14.0000  13.5000 Du        
   2944 ****        13.5000  14.0000  13.7500 Du        
   2945 ****        13.5000  14.0000  14.0000 Du        
   2946 ****        13.5000  14.0000  14.2500 Du        
   2947 ****        13.5000  14.0000  14.5000 Du        
   2948 ****        13.5000  14.0000  14.7500 Du        
   2949 ****        13.5000  14.0000  15.0000 Du        
   2950 ****        13.5000  14.0000  15.2500 Du        
   2951 ****        13.5000  14.2500  13.5000 Du        
   2952 ****        13.5000  14.2500  13.7500 Du        
   2953 ****        13.5000  14.2500  14.0000 Du        
   2954 ****        13.5000  14.2500  14.2500 Du        
   2955 ****        13.5000  14.2500  14.5000 Du        
   2956 ****        13.5000  14.2500  14.7500 Du        
   2957 ****        13.5000  14.2500  15.0000 Du        
   2958 ****        13.5000  14.5000  13.7500 Du        
   2959 ****        13.5000  14.5000  14.0000 Du        
   2960 ****        13.5000  14.5000  14.2500 Du        
   2961 ****        13.5000  14.5000  14.5000 Du        
   2962 ****        13.5000  14.5000  14.7500 Du        
   2963 ****        13.5000  14.5000  15.0000 Du        
   2964 ****        13.5000  14.7500  13.7500 Du        
   2965 ****        13.5000  14.7500  14.0000 Du        
   2966 ****        13.5000  14.7500  14.2500 Du        
   2967 ****        13.5000  14.7500  14.5000 Du        
   2968 ****        13.7500   8.5000  20.5000 Du        
   2969 ****        13.7500   8.5000  20.7500 Du        
   2970 ****        13.7500   8.7500  20.2500 Du        
   2971 ****        13.7500   8.7500  20.5000 Du        
   2972 ****        13.7500   8.7500  20.7500 Du        
   2973 ****        13.7500   8.7500  21.0000 Du        
   2974 ****        13.7500   9.0000  20.2500 Du        
   2975 ****        13.7500   9.0000  20.5000 Du        
   2976 ****        13.7500   9.0000  20.7500 Du        
   2977 ****        13.7500   9.0000  21.0000 Du        
   2978 ****        13.7500   9.2500  20.0000 Du        
   2979 ****        13.7500   9.2500  20.2500 Du        
   2980 ****        13.7500   9.2500  20.5000 Du        
   2981 ****        13.7500   9.2500  20.7500 Du        
   2982 ****        13.7500   9.2500  21.0000 Du        
   2983 ****        13.7500   9.5000  20.0000 Du        
   2984 ****        13.7500   9.5000  20.2500 Du        
   2985 ****        13.7500   9.5000  20.5000 Du        
   2986 ****        13.7500   9.5000  20.7500 Du        
   2987 ****        13.7500   9.7500  20.5000 Du        
   2988 ****        13.7500  10.5000  16.0000 Du        
   2989 ****        13.7500  10.7500  15.7500 Du        
   2990 ****        13.7500  10.7500  16.0000 Du        
   2991 ****        13.7500  11.0000  15.5000 Du        
   2992 ****        13.7500  11.0000  15.7500 Du        
   2993 ****        13.7500  11.0000  16.0000 Du        
   2994 ****        13.7500  11.2500  15.2500 Du        
   2995 ****        13.7500  11.2500  15.5000 Du        
   2996 ****        13.7500  11.2500  15.7500 Du        
   2997 ****        13.7500  11.5000  14.7500 Du        
   2998 ****        13.7500  11.5000  15.0000 Du        
   2999 ****        13.7500  11.5000  15.2500 Du        
   3000 ****        13.7500  11.5000  15.5000 Du        
   3001 ****        13.7500  11.7500  14.2500 Du        
   3002 ****        13.7500  11.7500  14.5000 Du        
   3003 ****        13.7500  11.7500  14.7500 Du        
   3004 ****        13.7500  11.7500  15.0000 Du        
   3005 ****        13.7500  11.7500  15.2500 Du        
   3006 ****        13.7500  11.7500  15.5000 Du        
   3007 ****        13.7500  12.0000  14.0000 Du        
   3008 ****        13.7500  12.0000  14.2500 Du        
   3009 ****        13.7500  12.0000  14.5000 Du        
   3010 ****        13.7500  12.0000  14.7500 Du        
   3011 ****        13.7500  12.0000  15.0000 Du        
   3012 ****        13.7500  12.0000  15.2500 Du        
   3013 ****        13.7500  12.2500   9.0000 Du        
   3014 ****        13.7500  12.2500   9.2500 Du        
   3015 ****        13.7500  12.2500   9.5000 Du        
   3016 ****        13.7500  12.2500   9.7500 Du        
   3017 ****        13.7500  12.2500  10.0000 Du        
   3018 ****        13.7500  12.2500  10.2500 Du        
   3019 ****        13.7500  12.2500  11.0000 Du        
   3020 ****        13.7500  12.2500  11.2500 Du        
   3021 ****        13.7500  12.2500  11.5000 Du        
   3022 ****        13.7500  12.2500  11.7500 Du        
   3023 ****        13.7500  12.2500  12.0000 Du        
   3024 ****        13.7500  12.2500  12.2500 Du        
   3025 ****        13.7500  12.2500  12.5000 Du        
   3026 ****        13.7500  12.2500  12.7500 Du        
   3027 ****        13.7500  12.2500  13.0000 Du        
   3028 ****        13.7500  12.2500  13.2500 Du        
   3029 ****        13.7500  12.2500  13.5000 Du        
   3030 ****        13.7500  12.2500  13.7500 Du        
   3031 ****        13.7500  12.2500  14.0000 Du        
   3032 ****        13.7500  12.2500  14.2500 Du        
   3033 ****        13.7500  12.2500  14.5000 Du        
   3034 ****        13.7500  12.2500  14.7500 Du        
   3035 ****        13.7500  12.2500  15.0000 Du        
   3036 ****        13.7500  12.2500  15.2500 Du        
   3037 ****        13.7500  12.5000   9.0000 Du        
   3038 ****        13.7500  12.5000   9.2500 Du        
   3039 ****        13.7500  12.5000   9.5000 Du        
   3040 ****        13.7500  12.5000   9.7500 Du        
   3041 ****        13.7500  12.5000  10.0000 Du        
   3042 ****        13.7500  12.5000  10.2500 Du        
   3043 ****        13.7500  12.5000  10.5000 Du        
   3044 ****        13.7500  12.5000  10.7500 Du        
   3045 ****        13.7500  12.5000  11.0000 Du        
   3046 ****        13.7500  12.5000  11.2500 Du        
   3047 ****        13.7500  12.5000  11.5000 Du        
   3048 ****        13.7500  12.5000  11.7500 Du        
   3049 ****        13.7500  12.5000  12.0000 Du        
   3050 ****        13.7500  12.5000  12.2500 Du        
   3051 ****        13.7500  12.5000  12.5000 Du        
   3052 ****        13.7500  12.5000  12.7500 Du        
   3053 ****        13.7500  12.5000  13.0000 Du        
   3054 ****        13.7500  12.5000  13.2500 Du        
   3055 ****        13.7500  12.5000  13.5000 Du        
   3056 ****        13.7500  12.5000  13.7500 Du        
   3057 ****        13.7500  12.5000  14.0000 Du        
   3058 ****        13.7500  12.5000  14.2500 Du        
   3059 ****        13.7500  12.5000  14.5000 Du        
   3060 ****        13.7500  12.5000  14.7500 Du        
   3061 ****        13.7500  12.5000  15.0000 Du        
   3062 ****        13.7500  12.5000  15.2500 Du        
   3063 ****        13.7500  12.7500   9.2500 Du        
   3064 ****        13.7500  12.7500   9.5000 Du        
   3065 ****        13.7500  12.7500   9.7500 Du        
   3066 ****        13.7500  12.7500  10.0000 Du        
   3067 ****        13.7500  12.7500  10.2500 Du        
   3068 ****        13.7500  12.7500  10.5000 Du        
   3069 ****        13.7500  12.7500  10.7500 Du        
   3070 ****        13.7500  12.7500  11.0000 Du        
   3071 ****        13.7500  12.7500  11.2500 Du        
   3072 ****        13.7500  12.7500  11.5000 Du        
   3073 ****        13.7500  12.7500  11.7500 Du        
   3074 ****        13.7500  12.7500  12.0000 Du        
   3075 ****        13.7500  12.7500  12.2500 Du        
   3076 ****        13.7500  12.7500  12.5000 Du        
   3077 ****        13.7500  12.7500  12.7500 Du        
   3078 ****        13.7500  12.7500  13.0000 Du        
   3079 ****        13.7500  12.7500  13.2500 Du        
   3080 ****        13.7500  12.7500  13.5000 Du        
   3081 ****        13.7500  12.7500  13.7500 Du        
   3082 ****        13.7500  12.7500  14.0000 Du        
   3083 ****        13.7500  12.7500  14.2500 Du        
   3084 ****        13.7500  12.7500  14.5000 Du        
   3085 ****        13.7500  12.7500  14.7500 Du        
   3086 ****        13.7500  12.7500  15.0000 Du        
   3087 ****        13.7500  12.7500  15.2500 Du        
   3088 ****        13.7500  13.0000   9.5000 Du        
   3089 ****        13.7500  13.0000   9.7500 Du        
   3090 ****        13.7500  13.0000  10.0000 Du        
   3091 ****        13.7500  13.0000  10.2500 Du        
   3092 ****        13.7500  13.0000  10.5000 Du        
   3093 ****        13.7500  13.0000  10.7500 Du        
   3094 ****        13.7500  13.0000  11.0000 Du        
   3095 ****        13.7500  13.0000  11.2500 Du        
   3096 ****        13.7500  13.0000  11.5000 Du        
   3097 ****        13.7500  13.0000  11.7500 Du        
   3098 ****        13.7500  13.0000  12.0000 Du        
   3099 ****        13.7500  13.0000  12.2500 Du        
   3100 ****        13.7500  13.0000  12.5000 Du        
   3101 ****        13.7500  13.0000  12.7500 Du        
   3102 ****        13.7500  13.0000  13.0000 Du        
   3103 ****        13.7500  13.0000  13.2500 Du        
   3104 ****        13.7500  13.0000  13.5000 Du        
   3105 ****        13.7500  13.0000  13.7500 Du        
   3106 ****        13.7500  13.0000  14.0000 Du        
   3107 ****        13.7500  13.0000  14.2500 Du        
   3108 ****        13.7500  13.0000  14.5000 Du        
   3109 ****        13.7500  13.0000  14.7500 Du        
   3110 ****        13.7500  13.0000  15.0000 Du        
   3111 ****        13.7500  13.0000  15.2500 Du        
   3112 ****        13.7500  13.2500   9.7500 Du        
   3113 ****        13.7500  13.2500  10.0000 Du        
   3114 ****        13.7500  13.2500  10.2500 Du        
   3115 ****        13.7500  13.2500  10.5000 Du        
   3116 ****        13.7500  13.2500  10.7500 Du        
   3117 ****        13.7500  13.2500  11.0000 Du        
   3118 ****        13.7500  13.2500  11.2500 Du        
   3119 ****        13.7500  13.2500  11.5000 Du        
   3120 ****        13.7500  13.2500  11.7500 Du        
   3121 ****        13.7500  13.2500  12.0000 Du        
   3122 ****        13.7500  13.2500  12.2500 Du        
   3123 ****        13.7500  13.2500  12.7500 Du        
   3124 ****        13.7500  13.2500  13.0000 Du        
   3125 ****        13.7500  13.2500  13.2500 Du        
   3126 ****        13.7500  13.2500  13.5000 Du        
   3127 ****        13.7500  13.2500  13.7500 Du        
   3128 ****        13.7500  13.2500  14.0000 Du        
   3129 ****        13.7500  13.2500  14.2500 Du        
   3130 ****        13.7500  13.2500  14.5000 Du        
   3131 ****        13.7500  13.2500  14.7500 Du        
   3132 ****        13.7500  13.2500  15.0000 Du        
   3133 ****        13.7500  13.2500  15.2500 Du        
   3134 ****        13.7500  13.5000  12.5000 Du        
   3135 ****        13.7500  13.5000  12.7500 Du        
   3136 ****        13.7500  13.5000  13.0000 Du        
   3137 ****        13.7500  13.5000  13.2500 Du        
   3138 ****        13.7500  13.5000  13.5000 Du        
   3139 ****        13.7500  13.5000  13.7500 Du        
   3140 ****        13.7500  13.5000  14.0000 Du        
   3141 ****        13.7500  13.5000  14.2500 Du        
   3142 ****        13.7500  13.5000  14.5000 Du        
   3143 ****        13.7500  13.5000  14.7500 Du        
   3144 ****        13.7500  13.5000  15.0000 Du        
   3145 ****        13.7500  13.5000  15.2500 Du        
   3146 ****        13.7500  13.7500  12.7500 Du        
   3147 ****        13.7500  13.7500  13.0000 Du        
   3148 ****        13.7500  13.7500  13.2500 Du        
   3149 ****        13.7500  13.7500  13.5000 Du        
   3150 ****        13.7500  13.7500  13.7500 Du        
   3151 ****        13.7500  13.7500  14.0000 Du        
   3152 ****        13.7500  13.7500  14.2500 Du        
   3153 ****        13.7500  13.7500  14.5000 Du        
   3154 ****        13.7500  13.7500  14.7500 Du        
   3155 ****        13.7500  13.7500  15.0000 Du        
   3156 ****        13.7500  13.7500  15.2500 Du        
   3157 ****        13.7500  14.0000  12.7500 Du        
   3158 ****        13.7500  14.0000  13.0000 Du        
   3159 ****        13.7500  14.0000  13.2500 Du        
   3160 ****        13.7500  14.0000  13.5000 Du        
   3161 ****        13.7500  14.0000  13.7500 Du        
   3162 ****        13.7500  14.0000  14.0000 Du        
   3163 ****        13.7500  14.0000  14.2500 Du        
   3164 ****        13.7500  14.0000  14.5000 Du        
   3165 ****        13.7500  14.0000  14.7500 Du        
   3166 ****        13.7500  14.0000  15.0000 Du        
   3167 ****        13.7500  14.0000  15.2500 Du        
   3168 ****        13.7500  14.2500  13.0000 Du        
   3169 ****        13.7500  14.2500  13.2500 Du        
   3170 ****        13.7500  14.2500  13.5000 Du        
   3171 ****        13.7500  14.2500  13.7500 Du        
   3172 ****        13.7500  14.2500  14.0000 Du        
   3173 ****        13.7500  14.2500  14.2500 Du        
   3174 ****        13.7500  14.2500  14.5000 Du        
   3175 ****        13.7500  14.2500  14.7500 Du        
   3176 ****        13.7500  14.2500  15.0000 Du        
   3177 ****        13.7500  14.2500  15.2500 Du        
   3178 ****        13.7500  14.5000  13.5000 Du        
   3179 ****        13.7500  14.5000  13.7500 Du        
   3180 ****        13.7500  14.5000  14.0000 Du        
   3181 ****        13.7500  14.5000  14.2500 Du        
   3182 ****        13.7500  14.5000  14.5000 Du        
   3183 ****        13.7500  14.5000  14.7500 Du        
   3184 ****        13.7500  14.5000  15.0000 Du        
   3185 ****        13.7500  14.5000  15.2500 Du        
   3186 ****        13.7500  14.7500  13.5000 Du        
   3187 ****        13.7500  14.7500  13.7500 Du        
   3188 ****        13.7500  14.7500  14.0000 Du        
   3189 ****        13.7500  14.7500  14.2500 Du        
   3190 ****        13.7500  14.7500  14.5000 Du        
   3191 ****        13.7500  14.7500  14.7500 Du        
   3192 ****        13.7500  14.7500  15.0000 Du        
   3193 ****        13.7500  15.0000  13.5000 Du        
   3194 ****        13.7500  15.0000  13.7500 Du        
   3195 ****        13.7500  15.0000  14.0000 Du        
   3196 ****        13.7500  15.0000  14.2500 Du        
   3197 ****        13.7500  15.0000  14.5000 Du        
   3198 ****        13.7500  15.0000  14.7500 Du        
   3199 ****        13.7500  15.0000  15.0000 Du        
   3200 ****        13.7500  15.2500  13.7500 Du        
   3201 ****        13.7500  15.2500  14.0000 Du        
   3202 ****        13.7500  15.2500  14.2500 Du        
   3203 ****        13.7500  15.2500  14.5000 Du        
   3204 ****        14.0000   8.7500  20.5000 Du        
   3205 ****        14.0000   9.0000  20.2500 Du        
   3206 ****        14.0000   9.0000  20.5000 Du        
   3207 ****        14.0000   9.0000  20.7500 Du        
   3208 ****        14.0000   9.0000  21.0000 Du        
   3209 ****        14.0000   9.2500  20.2500 Du        
   3210 ****        14.0000   9.2500  20.5000 Du        
   3211 ****        14.0000   9.2500  20.7500 Du        
   3212 ****        14.0000   9.2500  21.0000 Du        
   3213 ****        14.0000   9.5000  20.2500 Du        
   3214 ****        14.0000   9.5000  20.5000 Du        
   3215 ****        14.0000   9.5000  20.7500 Du        
   3216 ****        14.0000   9.5000  21.0000 Du        
   3217 ****        14.0000   9.7500  20.2500 Du        
   3218 ****        14.0000   9.7500  20.5000 Du        
   3219 ****        14.0000   9.7500  20.7500 Du        
   3220 ****        14.0000  11.0000  15.7500 Du        
   3221 ****        14.0000  11.2500  15.2500 Du        
   3222 ****        14.0000  11.2500  15.5000 Du        
   3223 ****        14.0000  11.5000  15.0000 Du        
   3224 ****        14.0000  11.5000  15.2500 Du        
   3225 ****        14.0000  11.7500  14.2500 Du        
   3226 ****        14.0000  11.7500  14.5000 Du        
   3227 ****        14.0000  11.7500  14.7500 Du        
   3228 ****        14.0000  11.7500  15.0000 Du        
   3229 ****        14.0000  11.7500  15.2500 Du        
   3230 ****        14.0000  12.0000   9.0000 Du        
   3231 ****        14.0000  12.0000   9.2500 Du        
   3232 ****        14.0000  12.0000   9.5000 Du        
   3233 ****        14.0000  12.0000   9.7500 Du        
   3234 ****        14.0000  12.0000  11.7500 Du        
   3235 ****        14.0000  12.0000  12.0000 Du        
   3236 ****        14.0000  12.0000  12.2500 Du        
   3237 ****        14.0000  12.0000  13.0000 Du        
   3238 ****        14.0000  12.0000  13.2500 Du        
   3239 ****        14.0000  12.0000  13.7500 Du        
   3240 ****        14.0000  12.0000  14.0000 Du        
   3241 ****        14.0000  12.0000  14.2500 Du        
   3242 ****        14.0000  12.0000  14.5000 Du        
   3243 ****        14.0000  12.0000  14.7500 Du        
   3244 ****        14.0000  12.0000  15.0000 Du        
   3245 ****        14.0000  12.0000  15.2500 Du        
   3246 ****        14.0000  12.2500   9.0000 Du        
   3247 ****        14.0000  12.2500   9.2500 Du        
   3248 ****        14.0000  12.2500   9.5000 Du        
   3249 ****        14.0000  12.2500   9.7500 Du        
   3250 ****        14.0000  12.2500  10.0000 Du        
   3251 ****        14.0000  12.2500  10.2500 Du        
   3252 ****        14.0000  12.2500  10.5000 Du        
   3253 ****        14.0000  12.2500  10.7500 Du        
   3254 ****        14.0000  12.2500  11.0000 Du        
   3255 ****        14.0000  12.2500  11.2500 Du        
   3256 ****        14.0000  12.2500  11.5000 Du        
   3257 ****        14.0000  12.2500  11.7500 Du        
   3258 ****        14.0000  12.2500  12.0000 Du        
   3259 ****        14.0000  12.2500  12.2500 Du        
   3260 ****        14.0000  12.2500  12.5000 Du        
   3261 ****        14.0000  12.2500  12.7500 Du        
   3262 ****        14.0000  12.2500  13.0000 Du        
   3263 ****        14.0000  12.2500  13.2500 Du        
   3264 ****        14.0000  12.2500  13.5000 Du        
   3265 ****        14.0000  12.2500  13.7500 Du        
   3266 ****        14.0000  12.2500  14.0000 Du        
   3267 ****        14.0000  12.2500  14.2500 Du        
   3268 ****        14.0000  12.2500  14.5000 Du        
   3269 ****        14.0000  12.2500  14.7500 Du        
   3270 ****        14.0000  12.2500  15.0000 Du        
   3271 ****        14.0000  12.2500  15.2500 Du        
   3272 ****        14.0000  12.5000   9.0000 Du        
   3273 ****        14.0000  12.5000   9.2500 Du        
   3274 ****        14.0000  12.5000   9.5000 Du        
   3275 ****        14.0000  12.5000   9.7500 Du        
   3276 ****        14.0000  12.5000  10.0000 Du        
   3277 ****        14.0000  12.5000  10.2500 Du        
   3278 ****        14.0000  12.5000  10.5000 Du        
   3279 ****        14.0000  12.5000  10.7500 Du        
   3280 ****        14.0000  12.5000  11.0000 Du        
   3281 ****        14.0000  12.5000  11.2500 Du        
   3282 ****        14.0000  12.5000  11.5000 Du        
   3283 ****        14.0000  12.5000  11.7500 Du        
   3284 ****        14.0000  12.5000  12.0000 Du        
   3285 ****        14.0000  12.5000  12.2500 Du        
   3286 ****        14.0000  12.5000  12.5000 Du        
   3287 ****        14.0000  12.5000  12.7500 Du        
   3288 ****        14.0000  12.5000  13.0000 Du        
   3289 ****        14.0000  12.5000  13.2500 Du        
   3290 ****        14.0000  12.5000  13.5000 Du        
   3291 ****        14.0000  12.5000  13.7500 Du        
   3292 ****        14.0000  12.5000  14.0000 Du        
   3293 ****        14.0000  12.5000  14.2500 Du        
   3294 ****        14.0000  12.5000  14.5000 Du        
   3295 ****        14.0000  12.5000  14.7500 Du        
   3296 ****        14.0000  12.5000  15.0000 Du        
   3297 ****        14.0000  12.5000  15.2500 Du        
   3298 ****        14.0000  12.7500   9.2500 Du        
   3299 ****        14.0000  12.7500   9.5000 Du        
   3300 ****        14.0000  12.7500   9.7500 Du        
   3301 ****        14.0000  12.7500  10.0000 Du        
   3302 ****        14.0000  12.7500  10.2500 Du        
   3303 ****        14.0000  12.7500  10.5000 Du        
   3304 ****        14.0000  12.7500  10.7500 Du        
   3305 ****        14.0000  12.7500  11.0000 Du        
   3306 ****        14.0000  12.7500  11.2500 Du        
   3307 ****        14.0000  12.7500  11.5000 Du        
   3308 ****        14.0000  12.7500  11.7500 Du        
   3309 ****        14.0000  12.7500  12.0000 Du        
   3310 ****        14.0000  12.7500  12.2500 Du        
   3311 ****        14.0000  12.7500  12.5000 Du        
   3312 ****        14.0000  12.7500  12.7500 Du        
   3313 ****        14.0000  12.7500  13.0000 Du        
   3314 ****        14.0000  12.7500  13.2500 Du        
   3315 ****        14.0000  12.7500  13.5000 Du        
   3316 ****        14.0000  12.7500  13.7500 Du        
   3317 ****        14.0000  12.7500  14.0000 Du        
   3318 ****        14.0000  12.7500  14.2500 Du        
   3319 ****        14.0000  12.7500  14.5000 Du        
   3320 ****        14.0000  12.7500  14.7500 Du        
   3321 ****        14.0000  12.7500  15.0000 Du        
   3322 ****        14.0000  12.7500  15.2500 Du        
   3323 ****        14.0000  13.0000   9.5000 Du        
   3324 ****        14.0000  13.0000   9.7500 Du        
   3325 ****        14.0000  13.0000  10.0000 Du        
   3326 ****        14.0000  13.0000  10.2500 Du        
   3327 ****        14.0000  13.0000  10.5000 Du        
   3328 ****        14.0000  13.0000  10.7500 Du        
   3329 ****        14.0000  13.0000  11.0000 Du        
   3330 ****        14.0000  13.0000  11.2500 Du        
   3331 ****        14.0000  13.0000  11.5000 Du        
   3332 ****        14.0000  13.0000  11.7500 Du        
   3333 ****        14.0000  13.0000  12.0000 Du        
   3334 ****        14.0000  13.0000  12.2500 Du        
   3335 ****        14.0000  13.0000  12.5000 Du        
   3336 ****        14.0000  13.0000  12.7500 Du        
   3337 ****        14.0000  13.0000  13.0000 Du        
   3338 ****        14.0000  13.0000  13.2500 Du        
   3339 ****        14.0000  13.0000  13.5000 Du        
   3340 ****        14.0000  13.0000  13.7500 Du        
   3341 ****        14.0000  13.0000  14.0000 Du        
   3342 ****        14.0000  13.0000  14.2500 Du        
   3343 ****        14.0000  13.0000  14.5000 Du        
   3344 ****        14.0000  13.0000  14.7500 Du        
   3345 ****        14.0000  13.0000  15.0000 Du        
   3346 ****        14.0000  13.0000  15.2500 Du        
   3347 ****        14.0000  13.2500   9.7500 Du        
   3348 ****        14.0000  13.2500  10.0000 Du        
   3349 ****        14.0000  13.2500  10.2500 Du        
   3350 ****        14.0000  13.2500  10.5000 Du        
   3351 ****        14.0000  13.2500  10.7500 Du        
   3352 ****        14.0000  13.2500  11.0000 Du        
   3353 ****        14.0000  13.2500  11.2500 Du        
   3354 ****        14.0000  13.2500  11.5000 Du        
   3355 ****        14.0000  13.2500  11.7500 Du        
   3356 ****        14.0000  13.2500  12.0000 Du        
   3357 ****        14.0000  13.2500  12.2500 Du        
   3358 ****        14.0000  13.2500  12.5000 Du        
   3359 ****        14.0000  13.2500  12.7500 Du        
   3360 ****        14.0000  13.2500  13.0000 Du        
   3361 ****        14.0000  13.2500  13.2500 Du        
   3362 ****        14.0000  13.2500  13.5000 Du        
   3363 ****        14.0000  13.2500  13.7500 Du        
   3364 ****        14.0000  13.2500  14.0000 Du        
   3365 ****        14.0000  13.2500  14.2500 Du        
   3366 ****        14.0000  13.2500  14.5000 Du        
   3367 ****        14.0000  13.2500  14.7500 Du        
   3368 ****        14.0000  13.2500  15.0000 Du        
   3369 ****        14.0000  13.2500  15.2500 Du        
   3370 ****        14.0000  13.5000  10.0000 Du        
   3371 ****        14.0000  13.5000  10.2500 Du        
   3372 ****        14.0000  13.5000  10.5000 Du        
   3373 ****        14.0000  13.5000  10.7500 Du        
   3374 ****        14.0000  13.5000  11.0000 Du        
   3375 ****        14.0000  13.5000  11.2500 Du        
   3376 ****        14.0000  13.5000  11.7500 Du        
   3377 ****        14.0000  13.5000  12.0000 Du        
   3378 ****        14.0000  13.5000  12.2500 Du        
   3379 ****        14.0000  13.5000  12.5000 Du        
   3380 ****        14.0000  13.5000  12.7500 Du        
   3381 ****        14.0000  13.5000  13.0000 Du        
   3382 ****        14.0000  13.5000  13.2500 Du        
   3383 ****        14.0000  13.5000  13.5000 Du        
   3384 ****        14.0000  13.5000  13.7500 Du        
   3385 ****        14.0000  13.5000  14.0000 Du        
   3386 ****        14.0000  13.5000  14.2500 Du        
   3387 ****        14.0000  13.5000  14.5000 Du        
   3388 ****        14.0000  13.5000  14.7500 Du        
   3389 ****        14.0000  13.5000  15.0000 Du        
   3390 ****        14.0000  13.5000  15.2500 Du        
   3391 ****        14.0000  13.7500  12.7500 Du        
   3392 ****        14.0000  13.7500  13.0000 Du        
   3393 ****        14.0000  13.7500  13.2500 Du        
   3394 ****        14.0000  13.7500  13.5000 Du        
   3395 ****        14.0000  13.7500  13.7500 Du        
   3396 ****        14.0000  13.7500  14.0000 Du        
   3397 ****        14.0000  13.7500  14.2500 Du        
   3398 ****        14.0000  13.7500  14.5000 Du        
   3399 ****        14.0000  13.7500  14.7500 Du        
   3400 ****        14.0000  13.7500  15.0000 Du        
   3401 ****        14.0000  13.7500  15.2500 Du        
   3402 ****        14.0000  14.0000  12.7500 Du        
   3403 ****        14.0000  14.0000  13.0000 Du        
   3404 ****        14.0000  14.0000  13.2500 Du        
   3405 ****        14.0000  14.0000  13.5000 Du        
   3406 ****        14.0000  14.0000  13.7500 Du        
   3407 ****        14.0000  14.0000  14.0000 Du        
   3408 ****        14.0000  14.0000  14.2500 Du        
   3409 ****        14.0000  14.0000  14.5000 Du        
   3410 ****        14.0000  14.0000  14.7500 Du        
   3411 ****        14.0000  14.0000  15.0000 Du        
   3412 ****        14.0000  14.0000  15.2500 Du        
   3413 ****        14.0000  14.2500  12.7500 Du        
   3414 ****        14.0000  14.2500  13.0000 Du        
   3415 ****        14.0000  14.2500  13.2500 Du        
   3416 ****        14.0000  14.2500  13.5000 Du        
   3417 ****        14.0000  14.2500  13.7500 Du        
   3418 ****        14.0000  14.2500  14.0000 Du        
   3419 ****        14.0000  14.2500  14.2500 Du        
   3420 ****        14.0000  14.2500  14.5000 Du        
   3421 ****        14.0000  14.2500  14.7500 Du        
   3422 ****        14.0000  14.2500  15.0000 Du        
   3423 ****        14.0000  14.2500  15.2500 Du        
   3424 ****        14.0000  14.5000  13.0000 Du        
   3425 ****        14.0000  14.5000  13.2500 Du        
   3426 ****        14.0000  14.5000  13.5000 Du        
   3427 ****        14.0000  14.5000  13.7500 Du        
   3428 ****        14.0000  14.5000  14.0000 Du        
   3429 ****        14.0000  14.5000  14.2500 Du        
   3430 ****        14.0000  14.5000  14.5000 Du        
   3431 ****        14.0000  14.5000  14.7500 Du        
   3432 ****        14.0000  14.5000  15.0000 Du        
   3433 ****        14.0000  14.5000  15.2500 Du        
   3434 ****        14.0000  14.7500  13.2500 Du        
   3435 ****        14.0000  14.7500  13.5000 Du        
   3436 ****        14.0000  14.7500  13.7500 Du        
   3437 ****        14.0000  14.7500  14.0000 Du        
   3438 ****        14.0000  14.7500  14.2500 Du        
   3439 ****        14.0000  14.7500  14.5000 Du        
   3440 ****        14.0000  14.7500  14.7500 Du        
   3441 ****        14.0000  14.7500  15.0000 Du        
   3442 ****        14.0000  14.7500  15.2500 Du        
   3443 ****        14.0000  15.0000  13.2500 Du        
   3444 ****        14.0000  15.0000  13.5000 Du        
   3445 ****        14.0000  15.0000  13.7500 Du        
   3446 ****        14.0000  15.0000  14.0000 Du        
   3447 ****        14.0000  15.0000  14.2500 Du        
   3448 ****        14.0000  15.0000  14.5000 Du        
   3449 ****        14.0000  15.0000  14.7500 Du        
   3450 ****        14.0000  15.0000  15.0000 Du        
   3451 ****        14.0000  15.2500  13.5000 Du        
   3452 ****        14.0000  15.2500  13.7500 Du        
   3453 ****        14.0000  15.2500  14.0000 Du        
   3454 ****        14.0000  15.2500  14.2500 Du        
   3455 ****        14.0000  15.2500  14.5000 Du        
   3456 ****        14.0000  15.2500  14.7500 Du        
   3457 ****        14.0000  15.2500  15.0000 Du        
   3458 ****        14.0000  15.5000  13.7500 Du        
   3459 ****        14.0000  15.5000  14.0000 Du        
   3460 ****        14.0000  15.5000  14.2500 Du        
   3461 ****        14.0000  15.5000  14.5000 Du        
   3462 ****        14.0000  15.5000  14.7500 Du        
   3463 ****        14.2500   9.0000  20.5000 Du        
   3464 ****        14.2500   9.2500  20.5000 Du        
   3465 ****        14.2500   9.2500  20.7500 Du        
   3466 ****        14.2500   9.2500  21.0000 Du        
   3467 ****        14.2500   9.5000  20.2500 Du        
   3468 ****        14.2500   9.5000  20.5000 Du        
   3469 ****        14.2500   9.5000  20.7500 Du        
   3470 ****        14.2500   9.5000  21.0000 Du        
   3471 ****        14.2500   9.5000  21.2500 Du        
   3472 ****        14.2500   9.7500  20.5000 Du        
   3473 ****        14.2500   9.7500  20.7500 Du        
   3474 ****        14.2500   9.7500  21.0000 Du        
   3475 ****        14.2500  11.7500  14.7500 Du        
   3476 ****        14.2500  11.7500  15.0000 Du        
   3477 ****        14.2500  11.7500  15.2500 Du        
   3478 ****        14.2500  12.0000   9.0000 Du        
   3479 ****        14.2500  12.0000   9.2500 Du        
   3480 ****        14.2500  12.0000   9.5000 Du        
   3481 ****        14.2500  12.0000   9.7500 Du        
   3482 ****        14.2500  12.0000  10.0000 Du        
   3483 ****        14.2500  12.0000  10.2500 Du        
   3484 ****        14.2500  12.0000  10.5000 Du        
   3485 ****        14.2500  12.0000  10.7500 Du        
   3486 ****        14.2500  12.0000  11.0000 Du        
   3487 ****        14.2500  12.0000  11.2500 Du        
   3488 ****        14.2500  12.0000  11.5000 Du        
   3489 ****        14.2500  12.0000  11.7500 Du        
   3490 ****        14.2500  12.0000  12.0000 Du        
   3491 ****        14.2500  12.0000  12.2500 Du        
   3492 ****        14.2500  12.0000  12.5000 Du        
   3493 ****        14.2500  12.0000  12.7500 Du        
   3494 ****        14.2500  12.0000  13.0000 Du        
   3495 ****        14.2500  12.0000  13.2500 Du        
   3496 ****        14.2500  12.0000  13.5000 Du        
   3497 ****        14.2500  12.0000  13.7500 Du        
   3498 ****        14.2500  12.0000  14.0000 Du        
   3499 ****        14.2500  12.0000  14.2500 Du        
   3500 ****        14.2500  12.0000  14.5000 Du        
   3501 ****        14.2500  12.0000  14.7500 Du        
   3502 ****        14.2500  12.0000  15.0000 Du        
   3503 ****        14.2500  12.0000  15.2500 Du        
   3504 ****        14.2500  12.2500   9.0000 Du        
   3505 ****        14.2500  12.2500   9.2500 Du        
   3506 ****        14.2500  12.2500   9.5000 Du        
   3507 ****        14.2500  12.2500   9.7500 Du        
   3508 ****        14.2500  12.2500  10.0000 Du        
   3509 ****        14.2500  12.2500  10.2500 Du        
   3510 ****        14.2500  12.2500  10.5000 Du        
   3511 ****        14.2500  12.2500  10.7500 Du        
   3512 ****        14.2500  12.2500  11.0000 Du        
   3513 ****        14.2500  12.2500  11.2500 Du        
   3514 ****        14.2500  12.2500  11.5000 Du        
   3515 ****        14.2500  12.2500  11.7500 Du        
   3516 ****        14.2500  12.2500  12.0000 Du        
   3517 ****        14.2500  12.2500  12.2500 Du        
   3518 ****        14.2500  12.2500  12.5000 Du        
   3519 ****        14.2500  12.2500  12.7500 Du        
   3520 ****        14.2500  12.2500  13.0000 Du        
   3521 ****        14.2500  12.2500  13.2500 Du        
   3522 ****        14.2500  12.2500  13.5000 Du        
   3523 ****        14.2500  12.2500  13.7500 Du        
   3524 ****        14.2500  12.2500  14.0000 Du        
   3525 ****        14.2500  12.2500  14.2500 Du        
   3526 ****        14.2500  12.2500  14.5000 Du        
   3527 ****        14.2500  12.2500  14.7500 Du        
   3528 ****        14.2500  12.2500  15.0000 Du        
   3529 ****        14.2500  12.5000   9.2500 Du        
   3530 ****        14.2500  12.5000   9.5000 Du        
   3531 ****        14.2500  12.5000   9.7500 Du        
   3532 ****        14.2500  12.5000  10.0000 Du        
   3533 ****        14.2500  12.5000  10.2500 Du        
   3534 ****        14.2500  12.5000  10.5000 Du        
   3535 ****        14.2500  12.5000  10.7500 Du        
   3536 ****        14.2500  12.5000  11.0000 Du        
   3537 ****        14.2500  12.5000  11.2500 Du        
   3538 ****        14.2500  12.5000  11.5000 Du        
   3539 ****        14.2500  12.5000  11.7500 Du        
   3540 ****        14.2500  12.5000  12.0000 Du        
   3541 ****        14.2500  12.5000  12.2500 Du        
   3542 ****        14.2500  12.5000  12.5000 Du        
   3543 ****        14.2500  12.5000  12.7500 Du        
   3544 ****        14.2500  12.5000  13.0000 Du        
   3545 ****        14.2500  12.5000  13.2500 Du        
   3546 ****        14.2500  12.5000  13.5000 Du        
   3547 ****        14.2500  12.5000  13.7500 Du        
   3548 ****        14.2500  12.5000  14.0000 Du        
   3549 ****        14.2500  12.5000  14.2500 Du        
   3550 ****        14.2500  12.5000  14.5000 Du        
   3551 ****        14.2500  12.5000  14.7500 Du        
   3552 ****        14.2500  12.5000  15.0000 Du        
   3553 ****        14.2500  12.5000  15.2500 Du        
   3554 ****        14.2500  12.7500   9.2500 Du        
   3555 ****        14.2500  12.7500   9.5000 Du        
   3556 ****        14.2500  12.7500   9.7500 Du        
   3557 ****        14.2500  12.7500  10.0000 Du        
   3558 ****        14.2500  12.7500  10.2500 Du        
   3559 ****        14.2500  12.7500  10.5000 Du        
   3560 ****        14.2500  12.7500  10.7500 Du        
   3561 ****        14.2500  12.7500  11.0000 Du        
   3562 ****        14.2500  12.7500  11.2500 Du        
   3563 ****        14.2500  12.7500  11.5000 Du        
   3564 ****        14.2500  12.7500  11.7500 Du        
   3565 ****        14.2500  12.7500  12.0000 Du        
   3566 ****        14.2500  12.7500  12.2500 Du        
   3567 ****        14.2500  12.7500  12.5000 Du        
   3568 ****        14.2500  12.7500  12.7500 Du        
   3569 ****        14.2500  12.7500  13.0000 Du        
   3570 ****        14.2500  12.7500  13.2500 Du        
   3571 ****        14.2500  12.7500  13.5000 Du        
   3572 ****        14.2500  12.7500  13.7500 Du        
   3573 ****        14.2500  12.7500  14.0000 Du        
   3574 ****        14.2500  12.7500  14.2500 Du        
   3575 ****        14.2500  12.7500  14.5000 Du        
   3576 ****        14.2500  12.7500  14.7500 Du        
   3577 ****        14.2500  12.7500  15.0000 Du        
   3578 ****        14.2500  12.7500  15.2500 Du        
   3579 ****        14.2500  13.0000   9.5000 Du        
   3580 ****        14.2500  13.0000   9.7500 Du        
   3581 ****        14.2500  13.0000  10.0000 Du        
   3582 ****        14.2500  13.0000  10.2500 Du        
   3583 ****        14.2500  13.0000  10.5000 Du        
   3584 ****        14.2500  13.0000  10.7500 Du        
   3585 ****        14.2500  13.0000  11.0000 Du        
   3586 ****        14.2500  13.0000  11.2500 Du        
   3587 ****        14.2500  13.0000  11.5000 Du        
   3588 ****        14.2500  13.0000  11.7500 Du        
   3589 ****        14.2500  13.0000  12.0000 Du        
   3590 ****        14.2500  13.0000  12.2500 Du        
   3591 ****        14.2500  13.0000  12.5000 Du        
   3592 ****        14.2500  13.0000  12.7500 Du        
   3593 ****        14.2500  13.0000  13.0000 Du        
   3594 ****        14.2500  13.0000  13.2500 Du        
   3595 ****        14.2500  13.0000  13.5000 Du        
   3596 ****        14.2500  13.0000  13.7500 Du        
   3597 ****        14.2500  13.0000  14.0000 Du        
   3598 ****        14.2500  13.0000  14.2500 Du        
   3599 ****        14.2500  13.0000  14.5000 Du        
   3600 ****        14.2500  13.0000  14.7500 Du        
   3601 ****        14.2500  13.0000  15.0000 Du        
   3602 ****        14.2500  13.0000  15.2500 Du        
   3603 ****        14.2500  13.2500   9.7500 Du        
   3604 ****        14.2500  13.2500  10.0000 Du        
   3605 ****        14.2500  13.2500  10.2500 Du        
   3606 ****        14.2500  13.2500  10.5000 Du        
   3607 ****        14.2500  13.2500  10.7500 Du        
   3608 ****        14.2500  13.2500  11.0000 Du        
   3609 ****        14.2500  13.2500  11.2500 Du        
   3610 ****        14.2500  13.2500  11.5000 Du        
   3611 ****        14.2500  13.2500  11.7500 Du        
   3612 ****        14.2500  13.2500  12.0000 Du        
   3613 ****        14.2500  13.2500  12.2500 Du        
   3614 ****        14.2500  13.2500  12.5000 Du        
   3615 ****        14.2500  13.2500  12.7500 Du        
   3616 ****        14.2500  13.2500  13.0000 Du        
   3617 ****        14.2500  13.2500  13.2500 Du        
   3618 ****        14.2500  13.2500  13.5000 Du        
   3619 ****        14.2500  13.2500  13.7500 Du        
   3620 ****        14.2500  13.2500  14.0000 Du        
   3621 ****        14.2500  13.2500  14.2500 Du        
   3622 ****        14.2500  13.2500  14.5000 Du        
   3623 ****        14.2500  13.2500  14.7500 Du        
   3624 ****        14.2500  13.2500  15.0000 Du        
   3625 ****        14.2500  13.2500  15.2500 Du        
   3626 ****        14.2500  13.5000  10.0000 Du        
   3627 ****        14.2500  13.5000  10.2500 Du        
   3628 ****        14.2500  13.5000  10.5000 Du        
   3629 ****        14.2500  13.5000  10.7500 Du        
   3630 ****        14.2500  13.5000  11.0000 Du        
   3631 ****        14.2500  13.5000  11.2500 Du        
   3632 ****        14.2500  13.5000  11.5000 Du        
   3633 ****        14.2500  13.5000  11.7500 Du        
   3634 ****        14.2500  13.5000  12.0000 Du        
   3635 ****        14.2500  13.5000  12.2500 Du        
   3636 ****        14.2500  13.5000  12.5000 Du        
   3637 ****        14.2500  13.5000  12.7500 Du        
   3638 ****        14.2500  13.5000  13.0000 Du        
   3639 ****        14.2500  13.5000  13.2500 Du        
   3640 ****        14.2500  13.5000  13.5000 Du        
   3641 ****        14.2500  13.5000  13.7500 Du        
   3642 ****        14.2500  13.5000  14.0000 Du        
   3643 ****        14.2500  13.5000  14.2500 Du        
   3644 ****        14.2500  13.5000  14.5000 Du        
   3645 ****        14.2500  13.5000  14.7500 Du        
   3646 ****        14.2500  13.5000  15.0000 Du        
   3647 ****        14.2500  13.5000  15.2500 Du        
   3648 ****        14.2500  13.7500  10.5000 Du        
   3649 ****        14.2500  13.7500  10.7500 Du        
   3650 ****        14.2500  13.7500  11.0000 Du        
   3651 ****        14.2500  13.7500  11.2500 Du        
   3652 ****        14.2500  13.7500  11.7500 Du        
   3653 ****        14.2500  13.7500  12.0000 Du        
   3654 ****        14.2500  13.7500  12.2500 Du        
   3655 ****        14.2500  13.7500  12.5000 Du        
   3656 ****        14.2500  13.7500  12.7500 Du        
   3657 ****        14.2500  13.7500  13.0000 Du        
   3658 ****        14.2500  13.7500  13.2500 Du        
   3659 ****        14.2500  13.7500  13.5000 Du        
   3660 ****        14.2500  13.7500  13.7500 Du        
   3661 ****        14.2500  13.7500  14.0000 Du        
   3662 ****        14.2500  13.7500  14.2500 Du        
   3663 ****        14.2500  13.7500  14.5000 Du        
   3664 ****        14.2500  13.7500  14.7500 Du        
   3665 ****        14.2500  13.7500  15.0000 Du        
   3666 ****        14.2500  13.7500  15.2500 Du        
   3667 ****        14.2500  14.0000  12.2500 Du        
   3668 ****        14.2500  14.0000  12.5000 Du        
   3669 ****        14.2500  14.0000  12.7500 Du        
   3670 ****        14.2500  14.0000  13.0000 Du        
   3671 ****        14.2500  14.0000  13.2500 Du        
   3672 ****        14.2500  14.0000  13.5000 Du        
   3673 ****        14.2500  14.0000  13.7500 Du        
   3674 ****        14.2500  14.0000  14.0000 Du        
   3675 ****        14.2500  14.0000  14.2500 Du        
   3676 ****        14.2500  14.0000  14.5000 Du        
   3677 ****        14.2500  14.0000  14.7500 Du        
   3678 ****        14.2500  14.0000  15.0000 Du        
   3679 ****        14.2500  14.0000  15.2500 Du        
   3680 ****        14.2500  14.2500  12.5000 Du        
   3681 ****        14.2500  14.2500  12.7500 Du        
   3682 ****        14.2500  14.2500  13.0000 Du        
   3683 ****        14.2500  14.2500  13.2500 Du        
   3684 ****        14.2500  14.2500  13.5000 Du        
   3685 ****        14.2500  14.2500  13.7500 Du        
   3686 ****        14.2500  14.2500  14.0000 Du        
   3687 ****        14.2500  14.2500  14.2500 Du        
   3688 ****        14.2500  14.2500  14.5000 Du        
   3689 ****        14.2500  14.2500  14.7500 Du        
   3690 ****        14.2500  14.2500  15.0000 Du        
   3691 ****        14.2500  14.2500  15.2500 Du        
   3692 ****        14.2500  14.5000  13.0000 Du        
   3693 ****        14.2500  14.5000  13.2500 Du        
   3694 ****        14.2500  14.5000  13.5000 Du        
   3695 ****        14.2500  14.5000  13.7500 Du        
   3696 ****        14.2500  14.5000  14.0000 Du        
   3697 ****        14.2500  14.5000  14.2500 Du        
   3698 ****        14.2500  14.5000  14.5000 Du        
   3699 ****        14.2500  14.5000  14.7500 Du        
   3700 ****        14.2500  14.5000  15.0000 Du        
   3701 ****        14.2500  14.5000  15.2500 Du        
   3702 ****        14.2500  14.7500  13.0000 Du        
   3703 ****        14.2500  14.7500  13.2500 Du        
   3704 ****        14.2500  14.7500  13.5000 Du        
   3705 ****        14.2500  14.7500  13.7500 Du        
   3706 ****        14.2500  14.7500  14.0000 Du        
   3707 ****        14.2500  14.7500  14.2500 Du        
   3708 ****        14.2500  14.7500  14.5000 Du        
   3709 ****        14.2500  14.7500  14.7500 Du        
   3710 ****        14.2500  14.7500  15.0000 Du        
   3711 ****        14.2500  14.7500  15.2500 Du        
   3712 ****        14.2500  15.0000  13.0000 Du        
   3713 ****        14.2500  15.0000  13.2500 Du        
   3714 ****        14.2500  15.0000  13.5000 Du        
   3715 ****        14.2500  15.0000  13.7500 Du        
   3716 ****        14.2500  15.0000  14.0000 Du        
   3717 ****        14.2500  15.0000  14.2500 Du        
   3718 ****        14.2500  15.0000  14.5000 Du        
   3719 ****        14.2500  15.0000  14.7500 Du        
   3720 ****        14.2500  15.0000  15.0000 Du        
   3721 ****        14.2500  15.0000  15.2500 Du        
   3722 ****        14.2500  15.2500  13.2500 Du        
   3723 ****        14.2500  15.2500  13.5000 Du        
   3724 ****        14.2500  15.2500  13.7500 Du        
   3725 ****        14.2500  15.2500  14.0000 Du        
   3726 ****        14.2500  15.2500  14.2500 Du        
   3727 ****        14.2500  15.2500  14.5000 Du        
   3728 ****        14.2500  15.2500  14.7500 Du        
   3729 ****        14.2500  15.2500  15.0000 Du        
   3730 ****        14.2500  15.2500  15.2500 Du        
   3731 ****        14.2500  15.5000  13.5000 Du        
   3732 ****        14.2500  15.5000  13.7500 Du        
   3733 ****        14.2500  15.5000  14.0000 Du        
   3734 ****        14.2500  15.5000  14.2500 Du        
   3735 ****        14.2500  15.5000  14.5000 Du        
   3736 ****        14.2500  15.5000  14.7500 Du        
   3737 ****        14.2500  15.5000  15.0000 Du        
   3738 ****        14.2500  15.7500  13.7500 Du        
   3739 ****        14.2500  15.7500  14.0000 Du        
   3740 ****        14.2500  15.7500  14.2500 Du        
   3741 ****        14.2500  15.7500  14.5000 Du        
   3742 ****        14.2500  15.7500  14.7500 Du        
   3743 ****        14.5000   9.2500  20.5000 Du        
   3744 ****        14.5000   9.5000  20.5000 Du        
   3745 ****        14.5000   9.5000  20.7500 Du        
   3746 ****        14.5000   9.5000  21.0000 Du        
   3747 ****        14.5000   9.7500  20.5000 Du        
   3748 ****        14.5000   9.7500  20.7500 Du        
   3749 ****        14.5000   9.7500  21.0000 Du        
   3750 ****        14.5000   9.7500  21.2500 Du        
   3751 ****        14.5000  10.0000  21.0000 Du        
   3752 ****        14.5000  11.7500   9.5000 Du        
   3753 ****        14.5000  11.7500   9.7500 Du        
   3754 ****        14.5000  11.7500  10.0000 Du        
   3755 ****        14.5000  11.7500  10.2500 Du        
   3756 ****        14.5000  11.7500  11.0000 Du        
   3757 ****        14.5000  11.7500  11.2500 Du        
   3758 ****        14.5000  12.0000   9.2500 Du        
   3759 ****        14.5000  12.0000   9.5000 Du        
   3760 ****        14.5000  12.0000   9.7500 Du        
   3761 ****        14.5000  12.0000  10.0000 Du        
   3762 ****        14.5000  12.0000  10.2500 Du        
   3763 ****        14.5000  12.0000  10.5000 Du        
   3764 ****        14.5000  12.0000  10.7500 Du        
   3765 ****        14.5000  12.0000  11.0000 Du        
   3766 ****        14.5000  12.0000  11.2500 Du        
   3767 ****        14.5000  12.0000  11.5000 Du        
   3768 ****        14.5000  12.0000  11.7500 Du        
   3769 ****        14.5000  12.0000  12.0000 Du        
   3770 ****        14.5000  12.0000  12.2500 Du        
   3771 ****        14.5000  12.0000  12.5000 Du        
   3772 ****        14.5000  12.0000  12.7500 Du        
   3773 ****        14.5000  12.0000  13.0000 Du        
   3774 ****        14.5000  12.0000  13.2500 Du        
   3775 ****        14.5000  12.0000  13.5000 Du        
   3776 ****        14.5000  12.0000  14.0000 Du        
   3777 ****        14.5000  12.0000  14.5000 Du        
   3778 ****        14.5000  12.0000  14.7500 Du        
   3779 ****        14.5000  12.0000  15.0000 Du        
   3780 ****        14.5000  12.2500   9.0000 Du        
   3781 ****        14.5000  12.2500   9.2500 Du        
   3782 ****        14.5000  12.2500   9.5000 Du        
   3783 ****        14.5000  12.2500   9.7500 Du        
   3784 ****        14.5000  12.2500  10.0000 Du        
   3785 ****        14.5000  12.2500  10.2500 Du        
   3786 ****        14.5000  12.2500  10.5000 Du        
   3787 ****        14.5000  12.2500  10.7500 Du        
   3788 ****        14.5000  12.2500  11.0000 Du        
   3789 ****        14.5000  12.2500  11.2500 Du        
   3790 ****        14.5000  12.2500  11.5000 Du        
   3791 ****        14.5000  12.2500  11.7500 Du        
   3792 ****        14.5000  12.2500  12.0000 Du        
   3793 ****        14.5000  12.2500  12.2500 Du        
   3794 ****        14.5000  12.2500  12.5000 Du        
   3795 ****        14.5000  12.2500  12.7500 Du        
   3796 ****        14.5000  12.2500  13.0000 Du        
   3797 ****        14.5000  12.2500  13.2500 Du        
   3798 ****        14.5000  12.2500  13.5000 Du        
   3799 ****        14.5000  12.2500  13.7500 Du        
   3800 ****        14.5000  12.2500  14.0000 Du        
   3801 ****        14.5000  12.2500  14.2500 Du        
   3802 ****        14.5000  12.2500  14.5000 Du        
   3803 ****        14.5000  12.2500  14.7500 Du        
   3804 ****        14.5000  12.2500  15.0000 Du        
   3805 ****        14.5000  12.5000   9.2500 Du        
   3806 ****        14.5000  12.5000   9.5000 Du        
   3807 ****        14.5000  12.5000   9.7500 Du        
   3808 ****        14.5000  12.5000  10.0000 Du        
   3809 ****        14.5000  12.5000  10.2500 Du        
   3810 ****        14.5000  12.5000  10.5000 Du        
   3811 ****        14.5000  12.5000  10.7500 Du        
   3812 ****        14.5000  12.5000  11.0000 Du        
   3813 ****        14.5000  12.5000  11.2500 Du        
   3814 ****        14.5000  12.5000  11.5000 Du        
   3815 ****        14.5000  12.5000  11.7500 Du        
   3816 ****        14.5000  12.5000  12.0000 Du        
   3817 ****        14.5000  12.5000  12.2500 Du        
   3818 ****        14.5000  12.5000  12.5000 Du        
   3819 ****        14.5000  12.5000  12.7500 Du        
   3820 ****        14.5000  12.5000  13.0000 Du        
   3821 ****        14.5000  12.5000  13.2500 Du        
   3822 ****        14.5000  12.5000  13.5000 Du        
   3823 ****        14.5000  12.5000  13.7500 Du        
   3824 ****        14.5000  12.5000  14.0000 Du        
   3825 ****        14.5000  12.5000  14.2500 Du        
   3826 ****        14.5000  12.5000  14.5000 Du        
   3827 ****        14.5000  12.5000  14.7500 Du        
   3828 ****        14.5000  12.7500   9.2500 Du        
   3829 ****        14.5000  12.7500   9.5000 Du        
   3830 ****        14.5000  12.7500   9.7500 Du        
   3831 ****        14.5000  12.7500  10.0000 Du        
   3832 ****        14.5000  12.7500  10.2500 Du        
   3833 ****        14.5000  12.7500  10.5000 Du        
   3834 ****        14.5000  12.7500  10.7500 Du        
   3835 ****        14.5000  12.7500  11.0000 Du        
   3836 ****        14.5000  12.7500  11.2500 Du        
   3837 ****        14.5000  12.7500  11.5000 Du        
   3838 ****        14.5000  12.7500  11.7500 Du        
   3839 ****        14.5000  12.7500  12.0000 Du        
   3840 ****        14.5000  12.7500  12.2500 Du        
   3841 ****        14.5000  12.7500  12.5000 Du        
   3842 ****        14.5000  12.7500  12.7500 Du        
   3843 ****        14.5000  12.7500  13.0000 Du        
   3844 ****        14.5000  12.7500  13.2500 Du        
   3845 ****        14.5000  12.7500  13.5000 Du        
   3846 ****        14.5000  12.7500  13.7500 Du        
   3847 ****        14.5000  12.7500  14.0000 Du        
   3848 ****        14.5000  12.7500  14.2500 Du        
   3849 ****        14.5000  12.7500  14.5000 Du        
   3850 ****        14.5000  12.7500  14.7500 Du        
   3851 ****        14.5000  12.7500  15.0000 Du        
   3852 ****        14.5000  13.0000   9.5000 Du        
   3853 ****        14.5000  13.0000   9.7500 Du        
   3854 ****        14.5000  13.0000  10.0000 Du        
   3855 ****        14.5000  13.0000  10.2500 Du        
   3856 ****        14.5000  13.0000  10.5000 Du        
   3857 ****        14.5000  13.0000  10.7500 Du        
   3858 ****        14.5000  13.0000  11.0000 Du        
   3859 ****        14.5000  13.0000  11.2500 Du        
   3860 ****        14.5000  13.0000  11.5000 Du        
   3861 ****        14.5000  13.0000  11.7500 Du        
   3862 ****        14.5000  13.0000  12.0000 Du        
   3863 ****        14.5000  13.0000  12.2500 Du        
   3864 ****        14.5000  13.0000  12.5000 Du        
   3865 ****        14.5000  13.0000  12.7500 Du        
   3866 ****        14.5000  13.0000  13.0000 Du        
   3867 ****        14.5000  13.0000  13.2500 Du        
   3868 ****        14.5000  13.0000  13.5000 Du        
   3869 ****        14.5000  13.0000  13.7500 Du        
   3870 ****        14.5000  13.0000  14.0000 Du        
   3871 ****        14.5000  13.0000  14.2500 Du        
   3872 ****        14.5000  13.0000  14.5000 Du        
   3873 ****        14.5000  13.0000  14.7500 Du        
   3874 ****        14.5000  13.0000  15.0000 Du        
   3875 ****        14.5000  13.2500   9.7500 Du        
   3876 ****        14.5000  13.2500  10.0000 Du        
   3877 ****        14.5000  13.2500  10.2500 Du        
   3878 ****        14.5000  13.2500  10.5000 Du        
   3879 ****        14.5000  13.2500  10.7500 Du        
   3880 ****        14.5000  13.2500  11.0000 Du        
   3881 ****        14.5000  13.2500  11.2500 Du        
   3882 ****        14.5000  13.2500  11.5000 Du        
   3883 ****        14.5000  13.2500  11.7500 Du        
   3884 ****        14.5000  13.2500  12.0000 Du        
   3885 ****        14.5000  13.2500  12.2500 Du        
   3886 ****        14.5000  13.2500  12.5000 Du        
   3887 ****        14.5000  13.2500  12.7500 Du        
   3888 ****        14.5000  13.2500  13.0000 Du        
   3889 ****        14.5000  13.2500  13.2500 Du        
   3890 ****        14.5000  13.2500  13.5000 Du        
   3891 ****        14.5000  13.2500  13.7500 Du        
   3892 ****        14.5000  13.2500  14.0000 Du        
   3893 ****        14.5000  13.2500  14.2500 Du        
   3894 ****        14.5000  13.2500  14.5000 Du        
   3895 ****        14.5000  13.2500  14.7500 Du        
   3896 ****        14.5000  13.2500  15.0000 Du        
   3897 ****        14.5000  13.5000  10.0000 Du        
   3898 ****        14.5000  13.5000  10.2500 Du        
   3899 ****        14.5000  13.5000  10.5000 Du        
   3900 ****        14.5000  13.5000  10.7500 Du        
   3901 ****        14.5000  13.5000  11.0000 Du        
   3902 ****        14.5000  13.5000  11.2500 Du        
   3903 ****        14.5000  13.5000  11.5000 Du        
   3904 ****        14.5000  13.5000  11.7500 Du        
   3905 ****        14.5000  13.5000  12.0000 Du        
   3906 ****        14.5000  13.5000  12.2500 Du        
   3907 ****        14.5000  13.5000  12.5000 Du        
   3908 ****        14.5000  13.5000  12.7500 Du        
   3909 ****        14.5000  13.5000  13.0000 Du        
   3910 ****        14.5000  13.5000  13.2500 Du        
   3911 ****        14.5000  13.5000  13.5000 Du        
   3912 ****        14.5000  13.5000  13.7500 Du        
   3913 ****        14.5000  13.5000  14.0000 Du        
   3914 ****        14.5000  13.5000  14.2500 Du        
   3915 ****        14.5000  13.5000  14.5000 Du        
   3916 ****        14.5000  13.5000  14.7500 Du        
   3917 ****        14.5000  13.5000  15.0000 Du        
   3918 ****        14.5000  13.5000  15.2500 Du        
   3919 ****        14.5000  13.7500  10.2500 Du        
   3920 ****        14.5000  13.7500  10.5000 Du        
   3921 ****        14.5000  13.7500  10.7500 Du        
   3922 ****        14.5000  13.7500  11.0000 Du        
   3923 ****        14.5000  13.7500  11.2500 Du        
   3924 ****        14.5000  13.7500  11.5000 Du        
   3925 ****        14.5000  13.7500  11.7500 Du        
   3926 ****        14.5000  13.7500  12.0000 Du        
   3927 ****        14.5000  13.7500  12.2500 Du        
   3928 ****        14.5000  13.7500  12.5000 Du        
   3929 ****        14.5000  13.7500  12.7500 Du        
   3930 ****        14.5000  13.7500  13.0000 Du        
   3931 ****        14.5000  13.7500  13.2500 Du        
   3932 ****        14.5000  13.7500  13.5000 Du        
   3933 ****        14.5000  13.7500  13.7500 Du        
   3934 ****        14.5000  13.7500  14.0000 Du        
   3935 ****        14.5000  13.7500  14.2500 Du        
   3936 ****        14.5000  13.7500  14.5000 Du        
   3937 ****        14.5000  13.7500  14.7500 Du        
   3938 ****        14.5000  13.7500  15.0000 Du        
   3939 ****        14.5000  13.7500  15.2500 Du        
   3940 ****        14.5000  14.0000  10.5000 Du        
   3941 ****        14.5000  14.0000  10.7500 Du        
   3942 ****        14.5000  14.0000  11.0000 Du        
   3943 ****        14.5000  14.0000  11.2500 Du        
   3944 ****        14.5000  14.0000  11.5000 Du        
   3945 ****        14.5000  14.0000  11.7500 Du        
   3946 ****        14.5000  14.0000  12.0000 Du        
   3947 ****        14.5000  14.0000  12.2500 Du        
   3948 ****        14.5000  14.0000  12.5000 Du        
   3949 ****        14.5000  14.0000  12.7500 Du        
   3950 ****        14.5000  14.0000  13.0000 Du        
   3951 ****        14.5000  14.0000  13.2500 Du        
   3952 ****        14.5000  14.0000  13.5000 Du        
   3953 ****        14.5000  14.0000  13.7500 Du        
   3954 ****        14.5000  14.0000  14.0000 Du        
   3955 ****        14.5000  14.0000  14.2500 Du        
   3956 ****        14.5000  14.0000  14.5000 Du        
   3957 ****        14.5000  14.0000  14.7500 Du        
   3958 ****        14.5000  14.0000  15.0000 Du        
   3959 ****        14.5000  14.0000  15.2500 Du        
   3960 ****        14.5000  14.2500  11.5000 Du        
   3961 ****        14.5000  14.2500  11.7500 Du        
   3962 ****        14.5000  14.2500  12.0000 Du        
   3963 ****        14.5000  14.2500  12.2500 Du        
   3964 ****        14.5000  14.2500  12.5000 Du        
   3965 ****        14.5000  14.2500  12.7500 Du        
   3966 ****        14.5000  14.2500  13.0000 Du        
   3967 ****        14.5000  14.2500  13.2500 Du        
   3968 ****        14.5000  14.2500  13.5000 Du        
   3969 ****        14.5000  14.2500  13.7500 Du        
   3970 ****        14.5000  14.2500  14.0000 Du        
   3971 ****        14.5000  14.2500  14.2500 Du        
   3972 ****        14.5000  14.2500  14.5000 Du        
   3973 ****        14.5000  14.2500  14.7500 Du        
   3974 ****        14.5000  14.2500  15.0000 Du        
   3975 ****        14.5000  14.2500  15.2500 Du        
   3976 ****        14.5000  14.2500  15.5000 Du        
   3977 ****        14.5000  14.5000  12.7500 Du        
   3978 ****        14.5000  14.5000  13.0000 Du        
   3979 ****        14.5000  14.5000  13.2500 Du        
   3980 ****        14.5000  14.5000  13.5000 Du        
   3981 ****        14.5000  14.5000  13.7500 Du        
   3982 ****        14.5000  14.5000  14.0000 Du        
   3983 ****        14.5000  14.5000  14.2500 Du        
   3984 ****        14.5000  14.5000  14.5000 Du        
   3985 ****        14.5000  14.5000  14.7500 Du        
   3986 ****        14.5000  14.5000  15.0000 Du        
   3987 ****        14.5000  14.5000  15.2500 Du        
   3988 ****        14.5000  14.5000  15.5000 Du        
   3989 ****        14.5000  14.7500  12.7500 Du        
   3990 ****        14.5000  14.7500  13.0000 Du        
   3991 ****        14.5000  14.7500  13.2500 Du        
   3992 ****        14.5000  14.7500  13.5000 Du        
   3993 ****        14.5000  14.7500  13.7500 Du        
   3994 ****        14.5000  14.7500  14.0000 Du        
   3995 ****        14.5000  14.7500  14.2500 Du        
   3996 ****        14.5000  14.7500  14.5000 Du        
   3997 ****        14.5000  14.7500  14.7500 Du        
   3998 ****        14.5000  14.7500  15.0000 Du        
   3999 ****        14.5000  14.7500  15.2500 Du        
   4000 ****        14.5000  14.7500  15.5000 Du        
   4001 ****        14.5000  15.0000  12.7500 Du        
   4002 ****        14.5000  15.0000  13.0000 Du        
   4003 ****        14.5000  15.0000  13.2500 Du        
   4004 ****        14.5000  15.0000  13.5000 Du        
   4005 ****        14.5000  15.0000  13.7500 Du        
   4006 ****        14.5000  15.0000  14.0000 Du        
   4007 ****        14.5000  15.0000  14.2500 Du        
   4008 ****        14.5000  15.0000  14.5000 Du        
   4009 ****        14.5000  15.0000  14.7500 Du        
   4010 ****        14.5000  15.0000  15.0000 Du        
   4011 ****        14.5000  15.0000  15.2500 Du        
   4012 ****        14.5000  15.0000  15.5000 Du        
   4013 ****        14.5000  15.2500  13.0000 Du        
   4014 ****        14.5000  15.2500  13.2500 Du        
   4015 ****        14.5000  15.2500  13.5000 Du        
   4016 ****        14.5000  15.2500  13.7500 Du        
   4017 ****        14.5000  15.2500  14.0000 Du        
   4018 ****        14.5000  15.2500  14.2500 Du        
   4019 ****        14.5000  15.2500  14.5000 Du        
   4020 ****        14.5000  15.2500  14.7500 Du        
   4021 ****        14.5000  15.2500  15.0000 Du        
   4022 ****        14.5000  15.2500  15.2500 Du        
   4023 ****        14.5000  15.5000  13.0000 Du        
   4024 ****        14.5000  15.5000  13.2500 Du        
   4025 ****        14.5000  15.5000  13.5000 Du        
   4026 ****        14.5000  15.5000  13.7500 Du        
   4027 ****        14.5000  15.5000  14.0000 Du        
   4028 ****        14.5000  15.5000  14.2500 Du        
   4029 ****        14.5000  15.5000  14.5000 Du        
   4030 ****        14.5000  15.5000  14.7500 Du        
   4031 ****        14.5000  15.5000  15.0000 Du        
   4032 ****        14.5000  15.5000  15.2500 Du        
   4033 ****        14.5000  15.7500  13.7500 Du        
   4034 ****        14.5000  15.7500  14.0000 Du        
   4035 ****        14.5000  15.7500  14.2500 Du        
   4036 ****        14.5000  15.7500  14.5000 Du        
   4037 ****        14.5000  15.7500  14.7500 Du        
   4038 ****        14.5000  15.7500  15.0000 Du        
   4039 ****        14.7500   9.5000  20.5000 Du        
   4040 ****        14.7500   9.5000  20.7500 Du        
   4041 ****        14.7500   9.7500  20.5000 Du        
   4042 ****        14.7500   9.7500  20.7500 Du        
   4043 ****        14.7500   9.7500  21.0000 Du        
   4044 ****        14.7500   9.7500  21.2500 Du        
   4045 ****        14.7500  10.0000  20.7500 Du        
   4046 ****        14.7500  10.0000  21.0000 Du        
   4047 ****        14.7500  10.0000  21.2500 Du        
   4048 ****        14.7500  11.7500   9.5000 Du        
   4049 ****        14.7500  11.7500   9.7500 Du        
   4050 ****        14.7500  11.7500  10.0000 Du        
   4051 ****        14.7500  11.7500  10.2500 Du        
   4052 ****        14.7500  11.7500  10.5000 Du        
   4053 ****        14.7500  11.7500  10.7500 Du        
   4054 ****        14.7500  11.7500  11.0000 Du        
   4055 ****        14.7500  11.7500  11.2500 Du        
   4056 ****        14.7500  11.7500  11.5000 Du        
   4057 ****        14.7500  11.7500  11.7500 Du        
   4058 ****        14.7500  11.7500  12.0000 Du        
   4059 ****        14.7500  12.0000   9.2500 Du        
   4060 ****        14.7500  12.0000   9.5000 Du        
   4061 ****        14.7500  12.0000   9.7500 Du        
   4062 ****        14.7500  12.0000  10.0000 Du        
   4063 ****        14.7500  12.0000  10.2500 Du        
   4064 ****        14.7500  12.0000  10.5000 Du        
   4065 ****        14.7500  12.0000  10.7500 Du        
   4066 ****        14.7500  12.0000  11.0000 Du        
   4067 ****        14.7500  12.0000  11.2500 Du        
   4068 ****        14.7500  12.0000  11.5000 Du        
   4069 ****        14.7500  12.0000  11.7500 Du        
   4070 ****        14.7500  12.0000  12.0000 Du        
   4071 ****        14.7500  12.0000  12.2500 Du        
   4072 ****        14.7500  12.0000  12.5000 Du        
   4073 ****        14.7500  12.0000  12.7500 Du        
   4074 ****        14.7500  12.0000  13.0000 Du        
   4075 ****        14.7500  12.0000  13.2500 Du        
   4076 ****        14.7500  12.2500   9.0000 Du        
   4077 ****        14.7500  12.2500   9.2500 Du        
   4078 ****        14.7500  12.2500   9.5000 Du        
   4079 ****        14.7500  12.2500   9.7500 Du        
   4080 ****        14.7500  12.2500  10.0000 Du        
   4081 ****        14.7500  12.2500  10.2500 Du        
   4082 ****        14.7500  12.2500  10.5000 Du        
   4083 ****        14.7500  12.2500  10.7500 Du        
   4084 ****        14.7500  12.2500  11.0000 Du        
   4085 ****        14.7500  12.2500  11.2500 Du        
   4086 ****        14.7500  12.2500  11.5000 Du        
   4087 ****        14.7500  12.2500  11.7500 Du        
   4088 ****        14.7500  12.2500  12.0000 Du        
   4089 ****        14.7500  12.2500  12.2500 Du        
   4090 ****        14.7500  12.2500  12.5000 Du        
   4091 ****        14.7500  12.2500  12.7500 Du        
   4092 ****        14.7500  12.2500  13.0000 Du        
   4093 ****        14.7500  12.2500  13.2500 Du        
   4094 ****        14.7500  12.2500  13.5000 Du        
   4095 ****        14.7500  12.2500  13.7500 Du        
   4096 ****        14.7500  12.5000   9.2500 Du        
   4097 ****        14.7500  12.5000   9.5000 Du        
   4098 ****        14.7500  12.5000   9.7500 Du        
   4099 ****        14.7500  12.5000  10.0000 Du        
   4100 ****        14.7500  12.5000  10.2500 Du        
   4101 ****        14.7500  12.5000  10.5000 Du        
   4102 ****        14.7500  12.5000  10.7500 Du        
   4103 ****        14.7500  12.5000  11.0000 Du        
   4104 ****        14.7500  12.5000  11.2500 Du        
   4105 ****        14.7500  12.5000  11.5000 Du        
   4106 ****        14.7500  12.5000  11.7500 Du        
   4107 ****        14.7500  12.5000  12.0000 Du        
   4108 ****        14.7500  12.5000  12.2500 Du        
   4109 ****        14.7500  12.5000  12.5000 Du        
   4110 ****        14.7500  12.5000  12.7500 Du        
   4111 ****        14.7500  12.5000  13.0000 Du        
   4112 ****        14.7500  12.5000  13.2500 Du        
   4113 ****        14.7500  12.5000  13.5000 Du        
   4114 ****        14.7500  12.5000  13.7500 Du        
   4115 ****        14.7500  12.5000  14.0000 Du        
   4116 ****        14.7500  12.5000  14.2500 Du        
   4117 ****        14.7500  12.7500   9.5000 Du        
   4118 ****        14.7500  12.7500   9.7500 Du        
   4119 ****        14.7500  12.7500  10.0000 Du        
   4120 ****        14.7500  12.7500  10.2500 Du        
   4121 ****        14.7500  12.7500  10.5000 Du        
   4122 ****        14.7500  12.7500  10.7500 Du        
   4123 ****        14.7500  12.7500  11.0000 Du        
   4124 ****        14.7500  12.7500  11.2500 Du        
   4125 ****        14.7500  12.7500  11.5000 Du        
   4126 ****        14.7500  12.7500  11.7500 Du        
   4127 ****        14.7500  12.7500  12.0000 Du        
   4128 ****        14.7500  12.7500  12.2500 Du        
   4129 ****        14.7500  12.7500  12.5000 Du        
   4130 ****        14.7500  12.7500  12.7500 Du        
   4131 ****        14.7500  12.7500  13.0000 Du        
   4132 ****        14.7500  12.7500  13.2500 Du        
   4133 ****        14.7500  12.7500  13.5000 Du        
   4134 ****        14.7500  12.7500  13.7500 Du        
   4135 ****        14.7500  12.7500  14.0000 Du        
   4136 ****        14.7500  12.7500  14.2500 Du        
   4137 ****        14.7500  12.7500  14.5000 Du        
   4138 ****        14.7500  12.7500  14.7500 Du        
   4139 ****        14.7500  12.7500  15.0000 Du        
   4140 ****        14.7500  13.0000   9.5000 Du        
   4141 ****        14.7500  13.0000   9.7500 Du        
   4142 ****        14.7500  13.0000  10.0000 Du        
   4143 ****        14.7500  13.0000  10.2500 Du        
   4144 ****        14.7500  13.0000  10.5000 Du        
   4145 ****        14.7500  13.0000  10.7500 Du        
   4146 ****        14.7500  13.0000  11.0000 Du        
   4147 ****        14.7500  13.0000  11.2500 Du        
   4148 ****        14.7500  13.0000  11.5000 Du        
   4149 ****        14.7500  13.0000  11.7500 Du        
   4150 ****        14.7500  13.0000  12.0000 Du        
   4151 ****        14.7500  13.0000  12.2500 Du        
   4152 ****        14.7500  13.0000  12.5000 Du        
   4153 ****        14.7500  13.0000  12.7500 Du        
   4154 ****        14.7500  13.0000  13.0000 Du        
   4155 ****        14.7500  13.0000  13.2500 Du        
   4156 ****        14.7500  13.0000  13.5000 Du        
   4157 ****        14.7500  13.0000  13.7500 Du        
   4158 ****        14.7500  13.0000  14.0000 Du        
   4159 ****        14.7500  13.0000  14.2500 Du        
   4160 ****        14.7500  13.0000  14.5000 Du        
   4161 ****        14.7500  13.0000  14.7500 Du        
   4162 ****        14.7500  13.0000  15.0000 Du        
   4163 ****        14.7500  13.2500   9.7500 Du        
   4164 ****        14.7500  13.2500  10.0000 Du        
   4165 ****        14.7500  13.2500  10.2500 Du        
   4166 ****        14.7500  13.2500  10.5000 Du        
   4167 ****        14.7500  13.2500  10.7500 Du        
   4168 ****        14.7500  13.2500  11.0000 Du        
   4169 ****        14.7500  13.2500  11.2500 Du        
   4170 ****        14.7500  13.2500  11.5000 Du        
   4171 ****        14.7500  13.2500  11.7500 Du        
   4172 ****        14.7500  13.2500  12.0000 Du        
   4173 ****        14.7500  13.2500  12.2500 Du        
   4174 ****        14.7500  13.2500  12.5000 Du        
   4175 ****        14.7500  13.2500  12.7500 Du        
   4176 ****        14.7500  13.2500  13.0000 Du        
   4177 ****        14.7500  13.2500  13.2500 Du        
   4178 ****        14.7500  13.2500  13.5000 Du        
   4179 ****        14.7500  13.2500  13.7500 Du        
   4180 ****        14.7500  13.2500  14.0000 Du        
   4181 ****        14.7500  13.2500  14.2500 Du        
   4182 ****        14.7500  13.2500  14.5000 Du        
   4183 ****        14.7500  13.2500  14.7500 Du        
   4184 ****        14.7500  13.2500  15.0000 Du        
   4185 ****        14.7500  13.5000  10.0000 Du        
   4186 ****        14.7500  13.5000  10.2500 Du        
   4187 ****        14.7500  13.5000  10.5000 Du        
   4188 ****        14.7500  13.5000  10.7500 Du        
   4189 ****        14.7500  13.5000  11.0000 Du        
   4190 ****        14.7500  13.5000  11.2500 Du        
   4191 ****        14.7500  13.5000  11.5000 Du        
   4192 ****        14.7500  13.5000  11.7500 Du        
   4193 ****        14.7500  13.5000  12.0000 Du        
   4194 ****        14.7500  13.5000  12.2500 Du        
   4195 ****        14.7500  13.5000  12.5000 Du        
   4196 ****        14.7500  13.5000  12.7500 Du        
   4197 ****        14.7500  13.5000  13.0000 Du        
   4198 ****        14.7500  13.5000  13.2500 Du        
   4199 ****        14.7500  13.5000  13.5000 Du        
   4200 ****        14.7500  13.5000  13.7500 Du        
   4201 ****        14.7500  13.5000  14.0000 Du        
   4202 ****        14.7500  13.5000  14.2500 Du        
   4203 ****        14.7500  13.5000  14.5000 Du        
   4204 ****        14.7500  13.5000  14.7500 Du        
   4205 ****        14.7500  13.5000  15.0000 Du        
   4206 ****        14.7500  13.5000  15.2500 Du        
   4207 ****        14.7500  13.7500  10.2500 Du        
   4208 ****        14.7500  13.7500  10.5000 Du        
   4209 ****        14.7500  13.7500  10.7500 Du        
   4210 ****        14.7500  13.7500  11.0000 Du        
   4211 ****        14.7500  13.7500  11.2500 Du        
   4212 ****        14.7500  13.7500  11.5000 Du        
   4213 ****        14.7500  13.7500  11.7500 Du        
   4214 ****        14.7500  13.7500  12.0000 Du        
   4215 ****        14.7500  13.7500  12.2500 Du        
   4216 ****        14.7500  13.7500  12.5000 Du        
   4217 ****        14.7500  13.7500  12.7500 Du        
   4218 ****        14.7500  13.7500  13.0000 Du        
   4219 ****        14.7500  13.7500  13.2500 Du        
   4220 ****        14.7500  13.7500  13.5000 Du        
   4221 ****        14.7500  13.7500  13.7500 Du        
   4222 ****        14.7500  13.7500  14.0000 Du        
   4223 ****        14.7500  13.7500  14.2500 Du        
   4224 ****        14.7500  13.7500  14.5000 Du        
   4225 ****        14.7500  13.7500  14.7500 Du        
   4226 ****        14.7500  13.7500  15.0000 Du        
   4227 ****        14.7500  13.7500  15.2500 Du        
   4228 ****        14.7500  14.0000  10.5000 Du        
   4229 ****        14.7500  14.0000  10.7500 Du        
   4230 ****        14.7500  14.0000  11.0000 Du        
   4231 ****        14.7500  14.0000  11.2500 Du        
   4232 ****        14.7500  14.0000  11.5000 Du        
   4233 ****        14.7500  14.0000  11.7500 Du        
   4234 ****        14.7500  14.0000  12.0000 Du        
   4235 ****        14.7500  14.0000  12.2500 Du        
   4236 ****        14.7500  14.0000  12.5000 Du        
   4237 ****        14.7500  14.0000  12.7500 Du        
   4238 ****        14.7500  14.0000  13.0000 Du        
   4239 ****        14.7500  14.0000  13.2500 Du        
   4240 ****        14.7500  14.0000  13.5000 Du        
   4241 ****        14.7500  14.0000  13.7500 Du        
   4242 ****        14.7500  14.0000  14.0000 Du        
   4243 ****        14.7500  14.0000  14.2500 Du        
   4244 ****        14.7500  14.0000  14.5000 Du        
   4245 ****        14.7500  14.0000  14.7500 Du        
   4246 ****        14.7500  14.0000  15.0000 Du        
   4247 ****        14.7500  14.0000  15.2500 Du        
   4248 ****        14.7500  14.0000  15.5000 Du        
   4249 ****        14.7500  14.2500  10.7500 Du        
   4250 ****        14.7500  14.2500  11.0000 Du        
   4251 ****        14.7500  14.2500  11.2500 Du        
   4252 ****        14.7500  14.2500  11.5000 Du        
   4253 ****        14.7500  14.2500  11.7500 Du        
   4254 ****        14.7500  14.2500  12.0000 Du        
   4255 ****        14.7500  14.2500  12.2500 Du        
   4256 ****        14.7500  14.2500  12.5000 Du        
   4257 ****        14.7500  14.2500  12.7500 Du        
   4258 ****        14.7500  14.2500  13.0000 Du        
   4259 ****        14.7500  14.2500  13.2500 Du        
   4260 ****        14.7500  14.2500  13.5000 Du        
   4261 ****        14.7500  14.2500  13.7500 Du        
   4262 ****        14.7500  14.2500  14.0000 Du        
   4263 ****        14.7500  14.2500  14.2500 Du        
   4264 ****        14.7500  14.2500  14.5000 Du        
   4265 ****        14.7500  14.2500  14.7500 Du        
   4266 ****        14.7500  14.2500  15.0000 Du        
   4267 ****        14.7500  14.2500  15.2500 Du        
   4268 ****        14.7500  14.2500  15.5000 Du        
   4269 ****        14.7500  14.5000  12.2500 Du        
   4270 ****        14.7500  14.5000  12.7500 Du        
   4271 ****        14.7500  14.5000  13.0000 Du        
   4272 ****        14.7500  14.5000  13.2500 Du        
   4273 ****        14.7500  14.5000  13.5000 Du        
   4274 ****        14.7500  14.5000  13.7500 Du        
   4275 ****        14.7500  14.5000  14.0000 Du        
   4276 ****        14.7500  14.5000  14.2500 Du        
   4277 ****        14.7500  14.5000  14.5000 Du        
   4278 ****        14.7500  14.5000  14.7500 Du        
   4279 ****        14.7500  14.5000  15.0000 Du        
   4280 ****        14.7500  14.5000  15.2500 Du        
   4281 ****        14.7500  14.5000  15.5000 Du        
   4282 ****        14.7500  14.7500  12.5000 Du        
   4283 ****        14.7500  14.7500  12.7500 Du        
   4284 ****        14.7500  14.7500  13.0000 Du        
   4285 ****        14.7500  14.7500  13.2500 Du        
   4286 ****        14.7500  14.7500  13.5000 Du        
   4287 ****        14.7500  14.7500  13.7500 Du        
   4288 ****        14.7500  14.7500  14.0000 Du        
   4289 ****        14.7500  14.7500  14.2500 Du        
   4290 ****        14.7500  14.7500  14.5000 Du        
   4291 ****        14.7500  14.7500  14.7500 Du        
   4292 ****        14.7500  14.7500  15.0000 Du        
   4293 ****        14.7500  14.7500  15.2500 Du        
   4294 ****        14.7500  14.7500  15.5000 Du        
   4295 ****        14.7500  15.0000  12.5000 Du        
   4296 ****        14.7500  15.0000  12.7500 Du        
   4297 ****        14.7500  15.0000  13.0000 Du        
   4298 ****        14.7500  15.0000  13.2500 Du        
   4299 ****        14.7500  15.0000  13.5000 Du        
   4300 ****        14.7500  15.0000  13.7500 Du        
   4301 ****        14.7500  15.0000  14.0000 Du        
   4302 ****        14.7500  15.0000  14.2500 Du        
   4303 ****        14.7500  15.0000  14.5000 Du        
   4304 ****        14.7500  15.0000  14.7500 Du        
   4305 ****        14.7500  15.0000  15.0000 Du        
   4306 ****        14.7500  15.0000  15.2500 Du        
   4307 ****        14.7500  15.0000  15.5000 Du        
   4308 ****        14.7500  15.2500  12.7500 Du        
   4309 ****        14.7500  15.2500  13.0000 Du        
   4310 ****        14.7500  15.2500  13.2500 Du        
   4311 ****        14.7500  15.2500  13.5000 Du        
   4312 ****        14.7500  15.2500  13.7500 Du        
   4313 ****        14.7500  15.2500  14.0000 Du        
   4314 ****        14.7500  15.2500  14.2500 Du        
   4315 ****        14.7500  15.2500  14.5000 Du        
   4316 ****        14.7500  15.2500  14.7500 Du        
   4317 ****        14.7500  15.2500  15.0000 Du        
   4318 ****        14.7500  15.2500  15.2500 Du        
   4319 ****        14.7500  15.2500  15.5000 Du        
   4320 ****        14.7500  15.5000  12.7500 Du        
   4321 ****        14.7500  15.5000  13.0000 Du        
   4322 ****        14.7500  15.5000  13.2500 Du        
   4323 ****        14.7500  15.5000  13.5000 Du        
   4324 ****        14.7500  15.5000  13.7500 Du        
   4325 ****        14.7500  15.5000  14.0000 Du        
   4326 ****        14.7500  15.5000  14.2500 Du        
   4327 ****        14.7500  15.5000  14.5000 Du        
   4328 ****        14.7500  15.5000  14.7500 Du        
   4329 ****        14.7500  15.5000  15.0000 Du        
   4330 ****        14.7500  15.5000  15.2500 Du        
   4331 ****        14.7500  15.5000  15.5000 Du        
   4332 ****        14.7500  15.7500  13.0000 Du        
   4333 ****        14.7500  15.7500  13.2500 Du        
   4334 ****        14.7500  15.7500  13.5000 Du        
   4335 ****        14.7500  15.7500  13.7500 Du        
   4336 ****        14.7500  15.7500  14.0000 Du        
   4337 ****        14.7500  15.7500  14.2500 Du        
   4338 ****        14.7500  15.7500  14.5000 Du        
   4339 ****        14.7500  15.7500  14.7500 Du        
   4340 ****        14.7500  15.7500  15.0000 Du        
   4341 ****        14.7500  15.7500  15.2500 Du        
   4342 ****        14.7500  15.7500  15.5000 Du        
   4343 ****        14.7500  16.0000  15.0000 Du        
   4344 ****        14.7500  16.0000  15.2500 Du        
   4345 ****        15.0000   9.7500  20.5000 Du        
   4346 ****        15.0000   9.7500  20.7500 Du        
   4347 ****        15.0000   9.7500  21.0000 Du        
   4348 ****        15.0000   9.7500  21.2500 Du        
   4349 ****        15.0000  10.0000  20.7500 Du        
   4350 ****        15.0000  10.0000  21.0000 Du        
   4351 ****        15.0000  10.0000  21.2500 Du        
   4352 ****        15.0000  10.2500  21.2500 Du        
   4353 ****        15.0000  11.7500   9.7500 Du        
   4354 ****        15.0000  11.7500  10.0000 Du        
   4355 ****        15.0000  11.7500  10.2500 Du        
   4356 ****        15.0000  11.7500  10.5000 Du        
   4357 ****        15.0000  11.7500  10.7500 Du        
   4358 ****        15.0000  11.7500  11.0000 Du        
   4359 ****        15.0000  11.7500  11.2500 Du        
   4360 ****        15.0000  11.7500  11.5000 Du        
   4361 ****        15.0000  11.7500  11.7500 Du        
   4362 ****        15.0000  11.7500  12.0000 Du        
   4363 ****        15.0000  11.7500  12.2500 Du        
   4364 ****        15.0000  12.0000   9.2500 Du        
   4365 ****        15.0000  12.0000   9.5000 Du        
   4366 ****        15.0000  12.0000   9.7500 Du        
   4367 ****        15.0000  12.0000  10.0000 Du        
   4368 ****        15.0000  12.0000  10.2500 Du        
   4369 ****        15.0000  12.0000  10.5000 Du        
   4370 ****        15.0000  12.0000  10.7500 Du        
   4371 ****        15.0000  12.0000  11.0000 Du        
   4372 ****        15.0000  12.0000  11.2500 Du        
   4373 ****        15.0000  12.0000  11.5000 Du        
   4374 ****        15.0000  12.0000  11.7500 Du        
   4375 ****        15.0000  12.0000  12.0000 Du        
   4376 ****        15.0000  12.0000  12.2500 Du        
   4377 ****        15.0000  12.0000  12.5000 Du        
   4378 ****        15.0000  12.0000  12.7500 Du        
   4379 ****        15.0000  12.0000  13.0000 Du        
   4380 ****        15.0000  12.2500   9.2500 Du        
   4381 ****        15.0000  12.2500   9.5000 Du        
   4382 ****        15.0000  12.2500   9.7500 Du        
   4383 ****        15.0000  12.2500  10.0000 Du        
   4384 ****        15.0000  12.2500  10.2500 Du        
   4385 ****        15.0000  12.2500  10.5000 Du        
   4386 ****        15.0000  12.2500  10.7500 Du        
   4387 ****        15.0000  12.2500  11.0000 Du        
   4388 ****        15.0000  12.2500  11.2500 Du        
   4389 ****        15.0000  12.2500  11.5000 Du        
   4390 ****        15.0000  12.2500  11.7500 Du        
   4391 ****        15.0000  12.2500  12.0000 Du        
   4392 ****        15.0000  12.2500  12.2500 Du        
   4393 ****        15.0000  12.2500  12.5000 Du        
   4394 ****        15.0000  12.2500  12.7500 Du        
   4395 ****        15.0000  12.2500  13.0000 Du        
   4396 ****        15.0000  12.2500  13.2500 Du        
   4397 ****        15.0000  12.2500  13.5000 Du        
   4398 ****        15.0000  12.5000   9.2500 Du        
   4399 ****        15.0000  12.5000   9.5000 Du        
   4400 ****        15.0000  12.5000   9.7500 Du        
   4401 ****        15.0000  12.5000  10.0000 Du        
   4402 ****        15.0000  12.5000  10.2500 Du        
   4403 ****        15.0000  12.5000  10.5000 Du        
   4404 ****        15.0000  12.5000  10.7500 Du        
   4405 ****        15.0000  12.5000  11.0000 Du        
   4406 ****        15.0000  12.5000  11.2500 Du        
   4407 ****        15.0000  12.5000  11.5000 Du        
   4408 ****        15.0000  12.5000  11.7500 Du        
   4409 ****        15.0000  12.5000  12.0000 Du        
   4410 ****        15.0000  12.5000  12.2500 Du        
   4411 ****        15.0000  12.5000  12.5000 Du        
   4412 ****        15.0000  12.5000  12.7500 Du        
   4413 ****        15.0000  12.5000  13.0000 Du        
   4414 ****        15.0000  12.5000  13.2500 Du        
   4415 ****        15.0000  12.5000  13.5000 Du        
   4416 ****        15.0000  12.5000  13.7500 Du        
   4417 ****        15.0000  12.5000  14.0000 Du        
   4418 ****        15.0000  12.7500   9.5000 Du        
   4419 ****        15.0000  12.7500   9.7500 Du        
   4420 ****        15.0000  12.7500  10.0000 Du        
   4421 ****        15.0000  12.7500  10.2500 Du        
   4422 ****        15.0000  12.7500  10.5000 Du        
   4423 ****        15.0000  12.7500  10.7500 Du        
   4424 ****        15.0000  12.7500  11.0000 Du        
   4425 ****        15.0000  12.7500  11.2500 Du        
   4426 ****        15.0000  12.7500  11.5000 Du        
   4427 ****        15.0000  12.7500  11.7500 Du        
   4428 ****        15.0000  12.7500  12.0000 Du        
   4429 ****        15.0000  12.7500  12.2500 Du        
   4430 ****        15.0000  12.7500  12.5000 Du        
   4431 ****        15.0000  12.7500  12.7500 Du        
   4432 ****        15.0000  12.7500  13.0000 Du        
   4433 ****        15.0000  12.7500  13.2500 Du        
   4434 ****        15.0000  12.7500  13.5000 Du        
   4435 ****        15.0000  12.7500  13.7500 Du        
   4436 ****        15.0000  12.7500  14.0000 Du        
   4437 ****        15.0000  12.7500  14.2500 Du        
   4438 ****        15.0000  13.0000  10.0000 Du        
   4439 ****        15.0000  13.0000  10.2500 Du        
   4440 ****        15.0000  13.0000  10.7500 Du        
   4441 ****        15.0000  13.0000  11.0000 Du        
   4442 ****        15.0000  13.0000  11.2500 Du        
   4443 ****        15.0000  13.0000  11.5000 Du        
   4444 ****        15.0000  13.0000  11.7500 Du        
   4445 ****        15.0000  13.0000  12.0000 Du        
   4446 ****        15.0000  13.0000  12.2500 Du        
   4447 ****        15.0000  13.0000  12.5000 Du        
   4448 ****        15.0000  13.0000  12.7500 Du        
   4449 ****        15.0000  13.0000  13.0000 Du        
   4450 ****        15.0000  13.0000  13.2500 Du        
   4451 ****        15.0000  13.0000  13.5000 Du        
   4452 ****        15.0000  13.0000  13.7500 Du        
   4453 ****        15.0000  13.0000  14.0000 Du        
   4454 ****        15.0000  13.0000  14.2500 Du        
   4455 ****        15.0000  13.0000  14.5000 Du        
   4456 ****        15.0000  13.0000  14.7500 Du        
   4457 ****        15.0000  13.0000  15.0000 Du        
   4458 ****        15.0000  13.2500  11.0000 Du        
   4459 ****        15.0000  13.2500  11.2500 Du        
   4460 ****        15.0000  13.2500  11.5000 Du        
   4461 ****        15.0000  13.2500  11.7500 Du        
   4462 ****        15.0000  13.2500  12.0000 Du        
   4463 ****        15.0000  13.2500  12.2500 Du        
   4464 ****        15.0000  13.2500  12.5000 Du        
   4465 ****        15.0000  13.2500  12.7500 Du        
   4466 ****        15.0000  13.2500  13.0000 Du        
   4467 ****        15.0000  13.2500  13.2500 Du        
   4468 ****        15.0000  13.2500  13.5000 Du        
   4469 ****        15.0000  13.2500  13.7500 Du        
   4470 ****        15.0000  13.2500  14.0000 Du        
   4471 ****        15.0000  13.2500  14.2500 Du        
   4472 ****        15.0000  13.2500  14.5000 Du        
   4473 ****        15.0000  13.2500  14.7500 Du        
   4474 ****        15.0000  13.2500  15.0000 Du        
   4475 ****        15.0000  13.5000  11.2500 Du        
   4476 ****        15.0000  13.5000  11.5000 Du        
   4477 ****        15.0000  13.5000  11.7500 Du        
   4478 ****        15.0000  13.5000  12.0000 Du        
   4479 ****        15.0000  13.5000  12.2500 Du        
   4480 ****        15.0000  13.5000  12.5000 Du        
   4481 ****        15.0000  13.5000  12.7500 Du        
   4482 ****        15.0000  13.5000  13.0000 Du        
   4483 ****        15.0000  13.5000  13.2500 Du        
   4484 ****        15.0000  13.5000  13.5000 Du        
   4485 ****        15.0000  13.5000  13.7500 Du        
   4486 ****        15.0000  13.5000  14.0000 Du        
   4487 ****        15.0000  13.5000  14.2500 Du        
   4488 ****        15.0000  13.5000  14.5000 Du        
   4489 ****        15.0000  13.5000  14.7500 Du        
   4490 ****        15.0000  13.5000  15.0000 Du        
   4491 ****        15.0000  13.5000  15.2500 Du        
   4492 ****        15.0000  13.7500  11.2500 Du        
   4493 ****        15.0000  13.7500  11.5000 Du        
   4494 ****        15.0000  13.7500  11.7500 Du        
   4495 ****        15.0000  13.7500  12.0000 Du        
   4496 ****        15.0000  13.7500  12.2500 Du        
   4497 ****        15.0000  13.7500  12.5000 Du        
   4498 ****        15.0000  13.7500  12.7500 Du        
   4499 ****        15.0000  13.7500  13.0000 Du        
   4500 ****        15.0000  13.7500  13.2500 Du        
   4501 ****        15.0000  13.7500  13.5000 Du        
   4502 ****        15.0000  13.7500  13.7500 Du        
   4503 ****        15.0000  13.7500  14.0000 Du        
   4504 ****        15.0000  13.7500  14.2500 Du        
   4505 ****        15.0000  13.7500  14.5000 Du        
   4506 ****        15.0000  13.7500  14.7500 Du        
   4507 ****        15.0000  13.7500  15.0000 Du        
   4508 ****        15.0000  13.7500  15.2500 Du        
   4509 ****        15.0000  14.0000  11.0000 Du        
   4510 ****        15.0000  14.0000  11.2500 Du        
   4511 ****        15.0000  14.0000  11.5000 Du        
   4512 ****        15.0000  14.0000  11.7500 Du        
   4513 ****        15.0000  14.0000  12.0000 Du        
   4514 ****        15.0000  14.0000  12.2500 Du        
   4515 ****        15.0000  14.0000  12.5000 Du        
   4516 ****        15.0000  14.0000  12.7500 Du        
   4517 ****        15.0000  14.0000  13.0000 Du        
   4518 ****        15.0000  14.0000  13.2500 Du        
   4519 ****        15.0000  14.0000  13.5000 Du        
   4520 ****        15.0000  14.0000  13.7500 Du        
   4521 ****        15.0000  14.0000  14.0000 Du        
   4522 ****        15.0000  14.0000  14.2500 Du        
   4523 ****        15.0000  14.0000  14.5000 Du        
   4524 ****        15.0000  14.0000  14.7500 Du        
   4525 ****        15.0000  14.0000  15.0000 Du        
   4526 ****        15.0000  14.0000  15.2500 Du        
   4527 ****        15.0000  14.0000  15.5000 Du        
   4528 ****        15.0000  14.2500  11.0000 Du        
   4529 ****        15.0000  14.2500  11.2500 Du        
   4530 ****        15.0000  14.2500  11.5000 Du        
   4531 ****        15.0000  14.2500  11.7500 Du        
   4532 ****        15.0000  14.2500  12.0000 Du        
   4533 ****        15.0000  14.2500  12.2500 Du        
   4534 ****        15.0000  14.2500  12.5000 Du        
   4535 ****        15.0000  14.2500  12.7500 Du        
   4536 ****        15.0000  14.2500  13.0000 Du        
   4537 ****        15.0000  14.2500  13.2500 Du        
   4538 ****        15.0000  14.2500  13.5000 Du        
   4539 ****        15.0000  14.2500  13.7500 Du        
   4540 ****        15.0000  14.2500  14.0000 Du        
   4541 ****        15.0000  14.2500  14.2500 Du        
   4542 ****        15.0000  14.2500  14.5000 Du        
   4543 ****        15.0000  14.2500  14.7500 Du        
   4544 ****        15.0000  14.2500  15.0000 Du        
   4545 ****        15.0000  14.2500  15.2500 Du        
   4546 ****        15.0000  14.2500  15.5000 Du        
   4547 ****        15.0000  14.5000  12.2500 Du        
   4548 ****        15.0000  14.5000  12.7500 Du        
   4549 ****        15.0000  14.5000  13.0000 Du        
   4550 ****        15.0000  14.5000  13.2500 Du        
   4551 ****        15.0000  14.5000  13.5000 Du        
   4552 ****        15.0000  14.5000  13.7500 Du        
   4553 ****        15.0000  14.5000  14.0000 Du        
   4554 ****        15.0000  14.5000  14.2500 Du        
   4555 ****        15.0000  14.5000  14.5000 Du        
   4556 ****        15.0000  14.5000  14.7500 Du        
   4557 ****        15.0000  14.5000  15.0000 Du        
   4558 ****        15.0000  14.5000  15.2500 Du        
   4559 ****        15.0000  14.5000  15.5000 Du        
   4560 ****        15.0000  14.7500  12.0000 Du        
   4561 ****        15.0000  14.7500  12.2500 Du        
   4562 ****        15.0000  14.7500  12.5000 Du        
   4563 ****        15.0000  14.7500  12.7500 Du        
   4564 ****        15.0000  14.7500  13.0000 Du        
   4565 ****        15.0000  14.7500  13.2500 Du        
   4566 ****        15.0000  14.7500  13.5000 Du        
   4567 ****        15.0000  14.7500  13.7500 Du        
   4568 ****        15.0000  14.7500  14.0000 Du        
   4569 ****        15.0000  14.7500  14.2500 Du        
   4570 ****        15.0000  14.7500  14.5000 Du        
   4571 ****        15.0000  14.7500  14.7500 Du        
   4572 ****        15.0000  14.7500  15.0000 Du        
   4573 ****        15.0000  14.7500  15.2500 Du        
   4574 ****        15.0000  14.7500  15.5000 Du        
   4575 ****        15.0000  14.7500  15.7500 Du        
   4576 ****        15.0000  15.0000  11.7500 Du        
   4577 ****        15.0000  15.0000  12.0000 Du        
   4578 ****        15.0000  15.0000  12.2500 Du        
   4579 ****        15.0000  15.0000  12.5000 Du        
   4580 ****        15.0000  15.0000  12.7500 Du        
   4581 ****        15.0000  15.0000  13.0000 Du        
   4582 ****        15.0000  15.0000  13.2500 Du        
   4583 ****        15.0000  15.0000  13.5000 Du        
   4584 ****        15.0000  15.0000  13.7500 Du        
   4585 ****        15.0000  15.0000  14.0000 Du        
   4586 ****        15.0000  15.0000  14.2500 Du        
   4587 ****        15.0000  15.0000  14.5000 Du        
   4588 ****        15.0000  15.0000  14.7500 Du        
   4589 ****        15.0000  15.0000  15.0000 Du        
   4590 ****        15.0000  15.0000  15.2500 Du        
   4591 ****        15.0000  15.0000  15.5000 Du        
   4592 ****        15.0000  15.0000  15.7500 Du        
   4593 ****        15.0000  15.2500  11.7500 Du        
   4594 ****        15.0000  15.2500  12.0000 Du        
   4595 ****        15.0000  15.2500  12.2500 Du        
   4596 ****        15.0000  15.2500  12.5000 Du        
   4597 ****        15.0000  15.2500  12.7500 Du        
   4598 ****        15.0000  15.2500  13.0000 Du        
   4599 ****        15.0000  15.2500  13.2500 Du        
   4600 ****        15.0000  15.2500  13.5000 Du        
   4601 ****        15.0000  15.2500  13.7500 Du        
   4602 ****        15.0000  15.2500  14.0000 Du        
   4603 ****        15.0000  15.2500  14.2500 Du        
   4604 ****        15.0000  15.2500  14.5000 Du        
   4605 ****        15.0000  15.2500  14.7500 Du        
   4606 ****        15.0000  15.2500  15.0000 Du        
   4607 ****        15.0000  15.2500  15.2500 Du        
   4608 ****        15.0000  15.2500  15.5000 Du        
   4609 ****        15.0000  15.2500  15.7500 Du        
   4610 ****        15.0000  15.5000  12.0000 Du        
   4611 ****        15.0000  15.5000  12.2500 Du        
   4612 ****        15.0000  15.5000  12.5000 Du        
   4613 ****        15.0000  15.5000  12.7500 Du        
   4614 ****        15.0000  15.5000  13.0000 Du        
   4615 ****        15.0000  15.5000  13.2500 Du        
   4616 ****        15.0000  15.5000  13.5000 Du        
   4617 ****        15.0000  15.5000  13.7500 Du        
   4618 ****        15.0000  15.5000  14.0000 Du        
   4619 ****        15.0000  15.5000  14.2500 Du        
   4620 ****        15.0000  15.5000  14.5000 Du        
   4621 ****        15.0000  15.5000  14.7500 Du        
   4622 ****        15.0000  15.5000  15.0000 Du        
   4623 ****        15.0000  15.5000  15.2500 Du        
   4624 ****        15.0000  15.5000  15.5000 Du        
   4625 ****        15.0000  15.5000  15.7500 Du        
   4626 ****        15.0000  15.7500  12.2500 Du        
   4627 ****        15.0000  15.7500  12.5000 Du        
   4628 ****        15.0000  15.7500  12.7500 Du        
   4629 ****        15.0000  15.7500  13.0000 Du        
   4630 ****        15.0000  15.7500  13.2500 Du        
   4631 ****        15.0000  15.7500  13.5000 Du        
   4632 ****        15.0000  15.7500  13.7500 Du        
   4633 ****        15.0000  15.7500  14.0000 Du        
   4634 ****        15.0000  15.7500  14.2500 Du        
   4635 ****        15.0000  15.7500  14.5000 Du        
   4636 ****        15.0000  15.7500  14.7500 Du        
   4637 ****        15.0000  15.7500  15.0000 Du        
   4638 ****        15.0000  15.7500  15.2500 Du        
   4639 ****        15.0000  15.7500  15.5000 Du        
   4640 ****        15.0000  15.7500  15.7500 Du        
   4641 ****        15.0000  16.0000  13.0000 Du        
   4642 ****        15.0000  16.0000  13.2500 Du        
   4643 ****        15.0000  16.0000  14.7500 Du        
   4644 ****        15.0000  16.0000  15.0000 Du        
   4645 ****        15.0000  16.0000  15.2500 Du        
   4646 ****        15.0000  16.0000  15.5000 Du        
   4647 ****        15.0000  16.0000  15.7500 Du        
   4648 ****        15.2500   9.7500  20.5000 Du        
   4649 ****        15.2500   9.7500  20.7500 Du        
   4650 ****        15.2500   9.7500  21.0000 Du        
   4651 ****        15.2500  10.0000  20.5000 Du        
   4652 ****        15.2500  10.0000  20.7500 Du        
   4653 ****        15.2500  10.0000  21.0000 Du        
   4654 ****        15.2500  10.0000  21.2500 Du        
   4655 ****        15.2500  10.2500  21.0000 Du        
   4656 ****        15.2500  10.2500  21.2500 Du        
   4657 ****        15.2500  11.7500  10.7500 Du        
   4658 ****        15.2500  11.7500  11.0000 Du        
   4659 ****        15.2500  11.7500  11.2500 Du        
   4660 ****        15.2500  11.7500  11.5000 Du        
   4661 ****        15.2500  11.7500  11.7500 Du        
   4662 ****        15.2500  11.7500  12.0000 Du        
   4663 ****        15.2500  12.0000   9.7500 Du        
   4664 ****        15.2500  12.0000  10.0000 Du        
   4665 ****        15.2500  12.0000  10.2500 Du        
   4666 ****        15.2500  12.0000  10.7500 Du        
   4667 ****        15.2500  12.0000  11.0000 Du        
   4668 ****        15.2500  12.0000  11.2500 Du        
   4669 ****        15.2500  12.0000  11.5000 Du        
   4670 ****        15.2500  12.0000  11.7500 Du        
   4671 ****        15.2500  12.0000  12.0000 Du        
   4672 ****        15.2500  12.0000  12.2500 Du        
   4673 ****        15.2500  12.0000  12.5000 Du        
   4674 ****        15.2500  12.0000  12.7500 Du        
   4675 ****        15.2500  12.2500   9.5000 Du        
   4676 ****        15.2500  12.2500  11.2500 Du        
   4677 ****        15.2500  12.2500  11.5000 Du        
   4678 ****        15.2500  12.2500  11.7500 Du        
   4679 ****        15.2500  12.2500  12.0000 Du        
   4680 ****        15.2500  12.2500  12.2500 Du        
   4681 ****        15.2500  12.2500  12.5000 Du        
   4682 ****        15.2500  12.2500  12.7500 Du        
   4683 ****        15.2500  12.2500  13.0000 Du        
   4684 ****        15.2500  12.5000  11.5000 Du        
   4685 ****        15.2500  12.5000  11.7500 Du        
   4686 ****        15.2500  12.5000  12.0000 Du        
   4687 ****        15.2500  12.5000  12.2500 Du        
   4688 ****        15.2500  12.5000  12.5000 Du        
   4689 ****        15.2500  12.5000  12.7500 Du        
   4690 ****        15.2500  12.5000  13.0000 Du        
   4691 ****        15.2500  12.5000  13.2500 Du        
   4692 ****        15.2500  12.7500  11.7500 Du        
   4693 ****        15.2500  12.7500  12.0000 Du        
   4694 ****        15.2500  12.7500  12.2500 Du        
   4695 ****        15.2500  12.7500  12.5000 Du        
   4696 ****        15.2500  12.7500  12.7500 Du        
   4697 ****        15.2500  12.7500  13.0000 Du        
   4698 ****        15.2500  12.7500  13.2500 Du        
   4699 ****        15.2500  12.7500  13.5000 Du        
   4700 ****        15.2500  12.7500  13.7500 Du        
   4701 ****        15.2500  12.7500  14.0000 Du        
   4702 ****        15.2500  13.0000  12.0000 Du        
   4703 ****        15.2500  13.0000  12.2500 Du        
   4704 ****        15.2500  13.0000  12.5000 Du        
   4705 ****        15.2500  13.0000  12.7500 Du        
   4706 ****        15.2500  13.0000  13.0000 Du        
   4707 ****        15.2500  13.0000  13.2500 Du        
   4708 ****        15.2500  13.0000  13.5000 Du        
   4709 ****        15.2500  13.0000  13.7500 Du        
   4710 ****        15.2500  13.0000  14.0000 Du        
   4711 ****        15.2500  13.0000  14.2500 Du        
   4712 ****        15.2500  13.0000  14.5000 Du        
   4713 ****        15.2500  13.0000  14.7500 Du        
   4714 ****        15.2500  13.0000  15.0000 Du        
   4715 ****        15.2500  13.2500  12.0000 Du        
   4716 ****        15.2500  13.2500  12.2500 Du        
   4717 ****        15.2500  13.2500  12.5000 Du        
   4718 ****        15.2500  13.2500  12.7500 Du        
   4719 ****        15.2500  13.2500  13.0000 Du        
   4720 ****        15.2500  13.2500  13.2500 Du        
   4721 ****        15.2500  13.2500  13.5000 Du        
   4722 ****        15.2500  13.2500  13.7500 Du        
   4723 ****        15.2500  13.2500  14.0000 Du        
   4724 ****        15.2500  13.2500  14.2500 Du        
   4725 ****        15.2500  13.2500  14.5000 Du        
   4726 ****        15.2500  13.2500  14.7500 Du        
   4727 ****        15.2500  13.2500  15.0000 Du        
   4728 ****        15.2500  13.5000  12.2500 Du        
   4729 ****        15.2500  13.5000  12.5000 Du        
   4730 ****        15.2500  13.5000  12.7500 Du        
   4731 ****        15.2500  13.5000  13.0000 Du        
   4732 ****        15.2500  13.5000  13.2500 Du        
   4733 ****        15.2500  13.5000  13.5000 Du        
   4734 ****        15.2500  13.5000  13.7500 Du        
   4735 ****        15.2500  13.5000  14.0000 Du        
   4736 ****        15.2500  13.5000  14.2500 Du        
   4737 ****        15.2500  13.5000  14.5000 Du        
   4738 ****        15.2500  13.5000  14.7500 Du        
   4739 ****        15.2500  13.5000  15.0000 Du        
   4740 ****        15.2500  13.5000  15.2500 Du        
   4741 ****        15.2500  13.7500  12.5000 Du        
   4742 ****        15.2500  13.7500  12.7500 Du        
   4743 ****        15.2500  13.7500  13.0000 Du        
   4744 ****        15.2500  13.7500  13.2500 Du        
   4745 ****        15.2500  13.7500  13.5000 Du        
   4746 ****        15.2500  13.7500  13.7500 Du        
   4747 ****        15.2500  13.7500  14.0000 Du        
   4748 ****        15.2500  13.7500  14.2500 Du        
   4749 ****        15.2500  13.7500  14.5000 Du        
   4750 ****        15.2500  13.7500  14.7500 Du        
   4751 ****        15.2500  13.7500  15.0000 Du        
   4752 ****        15.2500  13.7500  15.2500 Du        
   4753 ****        15.2500  14.0000  12.2500 Du        
   4754 ****        15.2500  14.0000  12.5000 Du        
   4755 ****        15.2500  14.0000  12.7500 Du        
   4756 ****        15.2500  14.0000  13.0000 Du        
   4757 ****        15.2500  14.0000  13.2500 Du        
   4758 ****        15.2500  14.0000  13.5000 Du        
   4759 ****        15.2500  14.0000  13.7500 Du        
   4760 ****        15.2500  14.0000  14.0000 Du        
   4761 ****        15.2500  14.0000  14.2500 Du        
   4762 ****        15.2500  14.0000  14.5000 Du        
   4763 ****        15.2500  14.0000  14.7500 Du        
   4764 ****        15.2500  14.0000  15.0000 Du        
   4765 ****        15.2500  14.0000  15.2500 Du        
   4766 ****        15.2500  14.0000  15.5000 Du        
   4767 ****        15.2500  14.2500  12.2500 Du        
   4768 ****        15.2500  14.2500  12.7500 Du        
   4769 ****        15.2500  14.2500  13.0000 Du        
   4770 ****        15.2500  14.2500  13.2500 Du        
   4771 ****        15.2500  14.2500  13.5000 Du        
   4772 ****        15.2500  14.2500  13.7500 Du        
   4773 ****        15.2500  14.2500  14.0000 Du        
   4774 ****        15.2500  14.2500  14.2500 Du        
   4775 ****        15.2500  14.2500  14.5000 Du        
   4776 ****        15.2500  14.2500  14.7500 Du        
   4777 ****        15.2500  14.2500  15.0000 Du        
   4778 ****        15.2500  14.2500  15.2500 Du        
   4779 ****        15.2500  14.2500  15.5000 Du        
   4780 ****        15.2500  14.5000  13.2500 Du        
   4781 ****        15.2500  14.5000  13.5000 Du        
   4782 ****        15.2500  14.5000  13.7500 Du        
   4783 ****        15.2500  14.5000  14.0000 Du        
   4784 ****        15.2500  14.5000  14.2500 Du        
   4785 ****        15.2500  14.5000  14.5000 Du        
   4786 ****        15.2500  14.5000  14.7500 Du        
   4787 ****        15.2500  14.5000  15.0000 Du        
   4788 ****        15.2500  14.5000  15.2500 Du        
   4789 ****        15.2500  14.5000  15.5000 Du        
   4790 ****        15.2500  14.5000  15.7500 Du        
   4791 ****        15.2500  14.7500  12.7500 Du        
   4792 ****        15.2500  14.7500  13.0000 Du        
   4793 ****        15.2500  14.7500  13.2500 Du        
   4794 ****        15.2500  14.7500  13.5000 Du        
   4795 ****        15.2500  14.7500  13.7500 Du        
   4796 ****        15.2500  14.7500  14.0000 Du        
   4797 ****        15.2500  14.7500  14.2500 Du        
   4798 ****        15.2500  14.7500  14.5000 Du        
   4799 ****        15.2500  14.7500  14.7500 Du        
   4800 ****        15.2500  14.7500  15.0000 Du        
   4801 ****        15.2500  14.7500  15.2500 Du        
   4802 ****        15.2500  14.7500  15.5000 Du        
   4803 ****        15.2500  14.7500  15.7500 Du        
   4804 ****        15.2500  15.0000  12.2500 Du        
   4805 ****        15.2500  15.0000  12.5000 Du        
   4806 ****        15.2500  15.0000  12.7500 Du        
   4807 ****        15.2500  15.0000  13.0000 Du        
   4808 ****        15.2500  15.0000  13.2500 Du        
   4809 ****        15.2500  15.0000  13.5000 Du        
   4810 ****        15.2500  15.0000  13.7500 Du        
   4811 ****        15.2500  15.0000  14.0000 Du        
   4812 ****        15.2500  15.0000  14.2500 Du        
   4813 ****        15.2500  15.0000  14.5000 Du        
   4814 ****        15.2500  15.0000  14.7500 Du        
   4815 ****        15.2500  15.0000  15.0000 Du        
   4816 ****        15.2500  15.0000  15.2500 Du        
   4817 ****        15.2500  15.0000  15.5000 Du        
   4818 ****        15.2500  15.0000  15.7500 Du        
   4819 ****        15.2500  15.2500  12.0000 Du        
   4820 ****        15.2500  15.2500  12.2500 Du        
   4821 ****        15.2500  15.2500  12.5000 Du        
   4822 ****        15.2500  15.2500  12.7500 Du        
   4823 ****        15.2500  15.2500  13.0000 Du        
   4824 ****        15.2500  15.2500  13.2500 Du        
   4825 ****        15.2500  15.2500  13.5000 Du        
   4826 ****        15.2500  15.2500  13.7500 Du        
   4827 ****        15.2500  15.2500  14.0000 Du        
   4828 ****        15.2500  15.2500  14.2500 Du        
   4829 ****        15.2500  15.2500  14.5000 Du        
   4830 ****        15.2500  15.2500  14.7500 Du        
   4831 ****        15.2500  15.2500  15.0000 Du        
   4832 ****        15.2500  15.2500  15.2500 Du        
   4833 ****        15.2500  15.2500  15.5000 Du        
   4834 ****        15.2500  15.2500  15.7500 Du        
   4835 ****        15.2500  15.5000  11.7500 Du        
   4836 ****        15.2500  15.5000  12.0000 Du        
   4837 ****        15.2500  15.5000  12.2500 Du        
   4838 ****        15.2500  15.5000  12.5000 Du        
   4839 ****        15.2500  15.5000  12.7500 Du        
   4840 ****        15.2500  15.5000  13.0000 Du        
   4841 ****        15.2500  15.5000  13.2500 Du        
   4842 ****        15.2500  15.5000  13.5000 Du        
   4843 ****        15.2500  15.5000  13.7500 Du        
   4844 ****        15.2500  15.5000  14.0000 Du        
   4845 ****        15.2500  15.5000  14.2500 Du        
   4846 ****        15.2500  15.5000  14.5000 Du        
   4847 ****        15.2500  15.5000  14.7500 Du        
   4848 ****        15.2500  15.5000  15.0000 Du        
   4849 ****        15.2500  15.5000  15.2500 Du        
   4850 ****        15.2500  15.5000  15.5000 Du        
   4851 ****        15.2500  15.5000  15.7500 Du        
   4852 ****        15.2500  15.7500  11.2500 Du        
   4853 ****        15.2500  15.7500  11.5000 Du        
   4854 ****        15.2500  15.7500  11.7500 Du        
   4855 ****        15.2500  15.7500  12.0000 Du        
   4856 ****        15.2500  15.7500  12.2500 Du        
   4857 ****        15.2500  15.7500  12.5000 Du        
   4858 ****        15.2500  15.7500  12.7500 Du        
   4859 ****        15.2500  15.7500  13.0000 Du        
   4860 ****        15.2500  15.7500  13.2500 Du        
   4861 ****        15.2500  15.7500  13.5000 Du        
   4862 ****        15.2500  15.7500  13.7500 Du        
   4863 ****        15.2500  15.7500  14.0000 Du        
   4864 ****        15.2500  15.7500  14.2500 Du        
   4865 ****        15.2500  15.7500  14.5000 Du        
   4866 ****        15.2500  15.7500  14.7500 Du        
   4867 ****        15.2500  15.7500  15.0000 Du        
   4868 ****        15.2500  15.7500  15.2500 Du        
   4869 ****        15.2500  15.7500  15.5000 Du        
   4870 ****        15.2500  15.7500  15.7500 Du        
   4871 ****        15.2500  16.0000  11.2500 Du        
   4872 ****        15.2500  16.0000  11.5000 Du        
   4873 ****        15.2500  16.0000  11.7500 Du        
   4874 ****        15.2500  16.0000  12.0000 Du        
   4875 ****        15.2500  16.0000  12.2500 Du        
   4876 ****        15.2500  16.0000  12.5000 Du        
   4877 ****        15.2500  16.0000  12.7500 Du        
   4878 ****        15.2500  16.0000  13.0000 Du        
   4879 ****        15.2500  16.0000  13.2500 Du        
   4880 ****        15.2500  16.0000  13.5000 Du        
   4881 ****        15.2500  16.0000  13.7500 Du        
   4882 ****        15.2500  16.0000  14.0000 Du        
   4883 ****        15.2500  16.0000  14.2500 Du        
   4884 ****        15.2500  16.0000  14.5000 Du        
   4885 ****        15.2500  16.0000  14.7500 Du        
   4886 ****        15.2500  16.0000  15.0000 Du        
   4887 ****        15.2500  16.0000  15.2500 Du        
   4888 ****        15.2500  16.0000  15.5000 Du        
   4889 ****        15.2500  16.0000  15.7500 Du        
   4890 ****        15.2500  16.2500  11.2500 Du        
   4891 ****        15.2500  16.2500  11.5000 Du        
   4892 ****        15.2500  16.2500  11.7500 Du        
   4893 ****        15.2500  16.2500  12.0000 Du        
   4894 ****        15.2500  16.2500  15.5000 Du        
   4895 ****        15.5000   9.7500  20.5000 Du        
   4896 ****        15.5000   9.7500  20.7500 Du        
   4897 ****        15.5000  10.0000  20.5000 Du        
   4898 ****        15.5000  10.0000  20.7500 Du        
   4899 ****        15.5000  10.0000  21.0000 Du        
   4900 ****        15.5000  10.0000  21.2500 Du        
   4901 ****        15.5000  10.2500  20.5000 Du        
   4902 ****        15.5000  10.2500  20.7500 Du        
   4903 ****        15.5000  10.2500  21.0000 Du        
   4904 ****        15.5000  10.2500  21.2500 Du        
   4905 ****        15.5000  10.2500  21.5000 Du        
   4906 ****        15.5000  10.5000  21.0000 Du        
   4907 ****        15.5000  10.5000  21.2500 Du        
   4908 ****        15.5000  11.7500  11.7500 Du        
   4909 ****        15.5000  12.0000  11.7500 Du        
   4910 ****        15.5000  12.0000  12.0000 Du        
   4911 ****        15.5000  12.0000  12.2500 Du        
   4912 ****        15.5000  12.0000  12.5000 Du        
   4913 ****        15.5000  12.2500  11.7500 Du        
   4914 ****        15.5000  12.2500  12.0000 Du        
   4915 ****        15.5000  12.2500  12.2500 Du        
   4916 ****        15.5000  12.2500  12.5000 Du        
   4917 ****        15.5000  12.2500  12.7500 Du        
   4918 ****        15.5000  12.5000  12.0000 Du        
   4919 ****        15.5000  12.5000  12.2500 Du        
   4920 ****        15.5000  12.5000  12.5000 Du        
   4921 ****        15.5000  12.5000  12.7500 Du        
   4922 ****        15.5000  12.5000  13.0000 Du        
   4923 ****        15.5000  12.7500  12.2500 Du        
   4924 ****        15.5000  12.7500  12.5000 Du        
   4925 ****        15.5000  12.7500  12.7500 Du        
   4926 ****        15.5000  12.7500  13.0000 Du        
   4927 ****        15.5000  12.7500  13.2500 Du        
   4928 ****        15.5000  13.0000  12.2500 Du        
   4929 ****        15.5000  13.0000  12.5000 Du        
   4930 ****        15.5000  13.0000  12.7500 Du        
   4931 ****        15.5000  13.0000  13.0000 Du        
   4932 ****        15.5000  13.0000  13.2500 Du        
   4933 ****        15.5000  13.0000  13.5000 Du        
   4934 ****        15.5000  13.0000  13.7500 Du        
   4935 ****        15.5000  13.0000  14.0000 Du        
   4936 ****        15.5000  13.2500  12.7500 Du        
   4937 ****        15.5000  13.2500  13.0000 Du        
   4938 ****        15.5000  13.2500  13.2500 Du        
   4939 ****        15.5000  13.2500  13.5000 Du        
   4940 ****        15.5000  13.2500  13.7500 Du        
   4941 ****        15.5000  13.2500  14.0000 Du        
   4942 ****        15.5000  13.2500  14.2500 Du        
   4943 ****        15.5000  13.2500  14.5000 Du        
   4944 ****        15.5000  13.2500  14.7500 Du        
   4945 ****        15.5000  13.2500  15.0000 Du        
   4946 ****        15.5000  13.5000  12.7500 Du        
   4947 ****        15.5000  13.5000  13.0000 Du        
   4948 ****        15.5000  13.5000  13.2500 Du        
   4949 ****        15.5000  13.5000  13.5000 Du        
   4950 ****        15.5000  13.5000  13.7500 Du        
   4951 ****        15.5000  13.5000  14.0000 Du        
   4952 ****        15.5000  13.5000  14.2500 Du        
   4953 ****        15.5000  13.5000  14.5000 Du        
   4954 ****        15.5000  13.5000  14.7500 Du        
   4955 ****        15.5000  13.5000  15.0000 Du        
   4956 ****        15.5000  13.5000  15.2500 Du        
   4957 ****        15.5000  13.7500  13.0000 Du        
   4958 ****        15.5000  13.7500  13.2500 Du        
   4959 ****        15.5000  13.7500  13.5000 Du        
   4960 ****        15.5000  13.7500  13.7500 Du        
   4961 ****        15.5000  13.7500  14.0000 Du        
   4962 ****        15.5000  13.7500  14.2500 Du        
   4963 ****        15.5000  13.7500  14.5000 Du        
   4964 ****        15.5000  13.7500  14.7500 Du        
   4965 ****        15.5000  13.7500  15.0000 Du        
   4966 ****        15.5000  13.7500  15.2500 Du        
   4967 ****        15.5000  14.0000  13.0000 Du        
   4968 ****        15.5000  14.0000  13.2500 Du        
   4969 ****        15.5000  14.0000  13.5000 Du        
   4970 ****        15.5000  14.0000  13.7500 Du        
   4971 ****        15.5000  14.0000  14.0000 Du        
   4972 ****        15.5000  14.0000  14.2500 Du        
   4973 ****        15.5000  14.0000  14.5000 Du        
   4974 ****        15.5000  14.0000  14.7500 Du        
   4975 ****        15.5000  14.0000  15.0000 Du        
   4976 ****        15.5000  14.0000  15.2500 Du        
   4977 ****        15.5000  14.0000  15.5000 Du        
   4978 ****        15.5000  14.2500  13.5000 Du        
   4979 ****        15.5000  14.2500  13.7500 Du        
   4980 ****        15.5000  14.2500  14.0000 Du        
   4981 ****        15.5000  14.2500  14.2500 Du        
   4982 ****        15.5000  14.2500  14.5000 Du        
   4983 ****        15.5000  14.2500  14.7500 Du        
   4984 ****        15.5000  14.2500  15.0000 Du        
   4985 ****        15.5000  14.2500  15.2500 Du        
   4986 ****        15.5000  14.2500  15.5000 Du        
   4987 ****        15.5000  14.2500  15.7500 Du        
   4988 ****        15.5000  14.5000  13.0000 Du        
   4989 ****        15.5000  14.5000  13.2500 Du        
   4990 ****        15.5000  14.5000  13.5000 Du        
   4991 ****        15.5000  14.5000  13.7500 Du        
   4992 ****        15.5000  14.5000  14.0000 Du        
   4993 ****        15.5000  14.5000  14.2500 Du        
   4994 ****        15.5000  14.5000  14.5000 Du        
   4995 ****        15.5000  14.5000  14.7500 Du        
   4996 ****        15.5000  14.5000  15.0000 Du        
   4997 ****        15.5000  14.5000  15.2500 Du        
   4998 ****        15.5000  14.5000  15.5000 Du        
   4999 ****        15.5000  14.5000  15.7500 Du        
   5000 ****        15.5000  14.7500  12.7500 Du        
   5001 ****        15.5000  14.7500  13.0000 Du        
   5002 ****        15.5000  14.7500  13.2500 Du        
   5003 ****        15.5000  14.7500  13.5000 Du        
   5004 ****        15.5000  14.7500  13.7500 Du        
   5005 ****        15.5000  14.7500  14.0000 Du        
   5006 ****        15.5000  14.7500  14.2500 Du        
   5007 ****        15.5000  14.7500  14.5000 Du        
   5008 ****        15.5000  14.7500  14.7500 Du        
   5009 ****        15.5000  14.7500  15.0000 Du        
   5010 ****        15.5000  14.7500  15.2500 Du        
   5011 ****        15.5000  14.7500  15.5000 Du        
   5012 ****        15.5000  14.7500  15.7500 Du        
   5013 ****        15.5000  15.0000  12.7500 Du        
   5014 ****        15.5000  15.0000  13.0000 Du        
   5015 ****        15.5000  15.0000  13.2500 Du        
   5016 ****        15.5000  15.0000  13.5000 Du        
   5017 ****        15.5000  15.0000  13.7500 Du        
   5018 ****        15.5000  15.0000  14.0000 Du        
   5019 ****        15.5000  15.0000  14.2500 Du        
   5020 ****        15.5000  15.0000  14.5000 Du        
   5021 ****        15.5000  15.0000  14.7500 Du        
   5022 ****        15.5000  15.0000  15.0000 Du        
   5023 ****        15.5000  15.0000  15.2500 Du        
   5024 ****        15.5000  15.0000  15.5000 Du        
   5025 ****        15.5000  15.0000  15.7500 Du        
   5026 ****        15.5000  15.2500  12.5000 Du        
   5027 ****        15.5000  15.2500  12.7500 Du        
   5028 ****        15.5000  15.2500  13.0000 Du        
   5029 ****        15.5000  15.2500  13.2500 Du        
   5030 ****        15.5000  15.2500  13.5000 Du        
   5031 ****        15.5000  15.2500  13.7500 Du        
   5032 ****        15.5000  15.2500  14.0000 Du        
   5033 ****        15.5000  15.2500  14.2500 Du        
   5034 ****        15.5000  15.2500  14.5000 Du        
   5035 ****        15.5000  15.2500  14.7500 Du        
   5036 ****        15.5000  15.2500  15.0000 Du        
   5037 ****        15.5000  15.2500  15.2500 Du        
   5038 ****        15.5000  15.2500  15.5000 Du        
   5039 ****        15.5000  15.2500  15.7500 Du        
   5040 ****        15.5000  15.5000  12.2500 Du        
   5041 ****        15.5000  15.5000  12.5000 Du        
   5042 ****        15.5000  15.5000  12.7500 Du        
   5043 ****        15.5000  15.5000  13.0000 Du        
   5044 ****        15.5000  15.5000  13.2500 Du        
   5045 ****        15.5000  15.5000  13.5000 Du        
   5046 ****        15.5000  15.5000  13.7500 Du        
   5047 ****        15.5000  15.5000  14.0000 Du        
   5048 ****        15.5000  15.5000  14.2500 Du        
   5049 ****        15.5000  15.5000  14.5000 Du        
   5050 ****        15.5000  15.5000  14.7500 Du        
   5051 ****        15.5000  15.5000  15.0000 Du        
   5052 ****        15.5000  15.5000  15.2500 Du        
   5053 ****        15.5000  15.5000  15.5000 Du        
   5054 ****        15.5000  15.5000  15.7500 Du        
   5055 ****        15.5000  15.7500  11.5000 Du        
   5056 ****        15.5000  15.7500  11.7500 Du        
   5057 ****        15.5000  15.7500  12.0000 Du        
   5058 ****        15.5000  15.7500  12.2500 Du        
   5059 ****        15.5000  15.7500  12.5000 Du        
   5060 ****        15.5000  15.7500  12.7500 Du        
   5061 ****        15.5000  15.7500  13.0000 Du        
   5062 ****        15.5000  15.7500  13.2500 Du        
   5063 ****        15.5000  15.7500  13.5000 Du        
   5064 ****        15.5000  15.7500  13.7500 Du        
   5065 ****        15.5000  15.7500  14.0000 Du        
   5066 ****        15.5000  15.7500  14.2500 Du        
   5067 ****        15.5000  15.7500  14.5000 Du        
   5068 ****        15.5000  15.7500  14.7500 Du        
   5069 ****        15.5000  15.7500  15.0000 Du        
   5070 ****        15.5000  15.7500  15.2500 Du        
   5071 ****        15.5000  15.7500  15.5000 Du        
   5072 ****        15.5000  15.7500  15.7500 Du        
   5073 ****        15.5000  16.0000  11.0000 Du        
   5074 ****        15.5000  16.0000  11.2500 Du        
   5075 ****        15.5000  16.0000  11.5000 Du        
   5076 ****        15.5000  16.0000  11.7500 Du        
   5077 ****        15.5000  16.0000  12.0000 Du        
   5078 ****        15.5000  16.0000  12.2500 Du        
   5079 ****        15.5000  16.0000  12.5000 Du        
   5080 ****        15.5000  16.0000  12.7500 Du        
   5081 ****        15.5000  16.0000  13.0000 Du        
   5082 ****        15.5000  16.0000  13.2500 Du        
   5083 ****        15.5000  16.0000  13.5000 Du        
   5084 ****        15.5000  16.0000  13.7500 Du        
   5085 ****        15.5000  16.0000  14.0000 Du        
   5086 ****        15.5000  16.0000  14.2500 Du        
   5087 ****        15.5000  16.0000  14.5000 Du        
   5088 ****        15.5000  16.0000  14.7500 Du        
   5089 ****        15.5000  16.0000  15.0000 Du        
   5090 ****        15.5000  16.0000  15.2500 Du        
   5091 ****        15.5000  16.0000  15.5000 Du        
   5092 ****        15.5000  16.2500  11.0000 Du        
   5093 ****        15.5000  16.2500  11.2500 Du        
   5094 ****        15.5000  16.2500  11.5000 Du        
   5095 ****        15.5000  16.2500  11.7500 Du        
   5096 ****        15.5000  16.2500  12.0000 Du        
   5097 ****        15.5000  16.2500  12.2500 Du        
   5098 ****        15.5000  16.2500  12.5000 Du        
   5099 ****        15.5000  16.2500  12.7500 Du        
   5100 ****        15.5000  16.5000  11.0000 Du        
   5101 ****        15.5000  16.5000  11.2500 Du        
   5102 ****        15.5000  16.5000  11.5000 Du        
   5103 ****        15.5000  16.5000  11.7500 Du        
   5104 ****        15.5000  16.5000  12.0000 Du        
   5105 ****        15.5000  16.5000  12.2500 Du        
   5106 ****        15.5000  16.7500  11.0000 Du        
   5107 ****        15.5000  16.7500  11.2500 Du        
   5108 ****        15.5000  16.7500  11.5000 Du        
   5109 ****        15.5000  16.7500  11.7500 Du        
   5110 ****        15.7500   9.7500  20.5000 Du        
   5111 ****        15.7500   9.7500  20.7500 Du        
   5112 ****        15.7500  10.0000  20.5000 Du        
   5113 ****        15.7500  10.0000  20.7500 Du        
   5114 ****        15.7500  10.0000  21.0000 Du        
   5115 ****        15.7500  10.0000  21.2500 Du        
   5116 ****        15.7500  10.2500  20.5000 Du        
   5117 ****        15.7500  10.2500  20.7500 Du        
   5118 ****        15.7500  10.2500  21.0000 Du        
   5119 ****        15.7500  10.2500  21.2500 Du        
   5120 ****        15.7500  10.2500  21.5000 Du        
   5121 ****        15.7500  10.5000  20.7500 Du        
   5122 ****        15.7500  10.5000  21.0000 Du        
   5123 ****        15.7500  10.5000  21.2500 Du        
   5124 ****        15.7500  10.5000  21.5000 Du        
   5125 ****        15.7500  10.7500  21.0000 Du        
   5126 ****        15.7500  10.7500  21.2500 Du        
   5127 ****        15.7500  10.7500  21.5000 Du        
   5128 ****        15.7500  12.2500  12.5000 Du        
   5129 ****        15.7500  12.5000  12.7500 Du        
   5130 ****        15.7500  12.7500  12.7500 Du        
   5131 ****        15.7500  12.7500  13.0000 Du        
   5132 ****        15.7500  12.7500  13.2500 Du        
   5133 ****        15.7500  13.0000  13.0000 Du        
   5134 ****        15.7500  13.0000  13.2500 Du        
   5135 ****        15.7500  13.0000  13.5000 Du        
   5136 ****        15.7500  13.0000  13.7500 Du        
   5137 ****        15.7500  13.2500  13.0000 Du        
   5138 ****        15.7500  13.2500  13.2500 Du        
   5139 ****        15.7500  13.2500  13.5000 Du        
   5140 ****        15.7500  13.2500  13.7500 Du        
   5141 ****        15.7500  13.2500  14.0000 Du        
   5142 ****        15.7500  13.2500  14.2500 Du        
   5143 ****        15.7500  13.2500  14.5000 Du        
   5144 ****        15.7500  13.2500  14.7500 Du        
   5145 ****        15.7500  13.2500  15.0000 Du        
   5146 ****        15.7500  13.2500  15.2500 Du        
   5147 ****        15.7500  13.5000  13.0000 Du        
   5148 ****        15.7500  13.5000  13.2500 Du        
   5149 ****        15.7500  13.5000  13.5000 Du        
   5150 ****        15.7500  13.5000  13.7500 Du        
   5151 ****        15.7500  13.5000  14.0000 Du        
   5152 ****        15.7500  13.5000  14.2500 Du        
   5153 ****        15.7500  13.5000  14.5000 Du        
   5154 ****        15.7500  13.5000  14.7500 Du        
   5155 ****        15.7500  13.5000  15.0000 Du        
   5156 ****        15.7500  13.5000  15.2500 Du        
   5157 ****        15.7500  13.7500  13.2500 Du        
   5158 ****        15.7500  13.7500  13.5000 Du        
   5159 ****        15.7500  13.7500  13.7500 Du        
   5160 ****        15.7500  13.7500  14.0000 Du        
   5161 ****        15.7500  13.7500  14.2500 Du        
   5162 ****        15.7500  13.7500  14.5000 Du        
   5163 ****        15.7500  13.7500  14.7500 Du        
   5164 ****        15.7500  13.7500  15.0000 Du        
   5165 ****        15.7500  13.7500  15.2500 Du        
   5166 ****        15.7500  13.7500  15.5000 Du        
   5167 ****        15.7500  14.0000  13.5000 Du        
   5168 ****        15.7500  14.0000  13.7500 Du        
   5169 ****        15.7500  14.0000  14.0000 Du        
   5170 ****        15.7500  14.0000  14.2500 Du        
   5171 ****        15.7500  14.0000  14.5000 Du        
   5172 ****        15.7500  14.0000  14.7500 Du        
   5173 ****        15.7500  14.0000  15.0000 Du        
   5174 ****        15.7500  14.0000  15.2500 Du        
   5175 ****        15.7500  14.0000  15.5000 Du        
   5176 ****        15.7500  14.2500  13.5000 Du        
   5177 ****        15.7500  14.2500  13.7500 Du        
   5178 ****        15.7500  14.2500  14.0000 Du        
   5179 ****        15.7500  14.2500  14.2500 Du        
   5180 ****        15.7500  14.2500  14.5000 Du        
   5181 ****        15.7500  14.2500  14.7500 Du        
   5182 ****        15.7500  14.2500  15.0000 Du        
   5183 ****        15.7500  14.2500  15.2500 Du        
   5184 ****        15.7500  14.2500  15.5000 Du        
   5185 ****        15.7500  14.2500  15.7500 Du        
   5186 ****        15.7500  14.5000  13.5000 Du        
   5187 ****        15.7500  14.5000  13.7500 Du        
   5188 ****        15.7500  14.5000  14.0000 Du        
   5189 ****        15.7500  14.5000  14.2500 Du        
   5190 ****        15.7500  14.5000  14.5000 Du        
   5191 ****        15.7500  14.5000  14.7500 Du        
   5192 ****        15.7500  14.5000  15.0000 Du        
   5193 ****        15.7500  14.5000  15.2500 Du        
   5194 ****        15.7500  14.5000  15.5000 Du        
   5195 ****        15.7500  14.5000  15.7500 Du        
   5196 ****        15.7500  14.7500  13.2500 Du        
   5197 ****        15.7500  14.7500  13.5000 Du        
   5198 ****        15.7500  14.7500  13.7500 Du        
   5199 ****        15.7500  14.7500  14.0000 Du        
   5200 ****        15.7500  14.7500  14.2500 Du        
   5201 ****        15.7500  14.7500  14.5000 Du        
   5202 ****        15.7500  14.7500  14.7500 Du        
   5203 ****        15.7500  14.7500  15.0000 Du        
   5204 ****        15.7500  14.7500  15.2500 Du        
   5205 ****        15.7500  14.7500  15.5000 Du        
   5206 ****        15.7500  14.7500  15.7500 Du        
   5207 ****        15.7500  15.0000  13.0000 Du        
   5208 ****        15.7500  15.0000  13.2500 Du        
   5209 ****        15.7500  15.0000  13.5000 Du        
   5210 ****        15.7500  15.0000  13.7500 Du        
   5211 ****        15.7500  15.0000  14.0000 Du        
   5212 ****        15.7500  15.0000  14.2500 Du        
   5213 ****        15.7500  15.0000  14.5000 Du        
   5214 ****        15.7500  15.0000  14.7500 Du        
   5215 ****        15.7500  15.0000  15.0000 Du        
   5216 ****        15.7500  15.0000  15.2500 Du        
   5217 ****        15.7500  15.0000  15.5000 Du        
   5218 ****        15.7500  15.0000  15.7500 Du        
   5219 ****        15.7500  15.2500  13.0000 Du        
   5220 ****        15.7500  15.2500  13.2500 Du        
   5221 ****        15.7500  15.2500  13.5000 Du        
   5222 ****        15.7500  15.2500  13.7500 Du        
   5223 ****        15.7500  15.2500  14.0000 Du        
   5224 ****        15.7500  15.2500  14.2500 Du        
   5225 ****        15.7500  15.2500  14.5000 Du        
   5226 ****        15.7500  15.2500  14.7500 Du        
   5227 ****        15.7500  15.2500  15.0000 Du        
   5228 ****        15.7500  15.2500  15.2500 Du        
   5229 ****        15.7500  15.2500  15.5000 Du        
   5230 ****        15.7500  15.2500  15.7500 Du        
   5231 ****        15.7500  15.5000  12.7500 Du        
   5232 ****        15.7500  15.5000  13.0000 Du        
   5233 ****        15.7500  15.5000  13.2500 Du        
   5234 ****        15.7500  15.5000  13.5000 Du        
   5235 ****        15.7500  15.5000  13.7500 Du        
   5236 ****        15.7500  15.5000  14.0000 Du        
   5237 ****        15.7500  15.5000  14.2500 Du        
   5238 ****        15.7500  15.5000  14.5000 Du        
   5239 ****        15.7500  15.5000  14.7500 Du        
   5240 ****        15.7500  15.5000  15.0000 Du        
   5241 ****        15.7500  15.5000  15.2500 Du        
   5242 ****        15.7500  15.5000  15.5000 Du        
   5243 ****        15.7500  15.7500  12.5000 Du        
   5244 ****        15.7500  15.7500  12.7500 Du        
   5245 ****        15.7500  15.7500  13.0000 Du        
   5246 ****        15.7500  15.7500  13.2500 Du        
   5247 ****        15.7500  15.7500  13.5000 Du        
   5248 ****        15.7500  15.7500  13.7500 Du        
   5249 ****        15.7500  15.7500  14.0000 Du        
   5250 ****        15.7500  15.7500  14.2500 Du        
   5251 ****        15.7500  15.7500  14.5000 Du        
   5252 ****        15.7500  15.7500  14.7500 Du        
   5253 ****        15.7500  15.7500  15.0000 Du        
   5254 ****        15.7500  15.7500  15.2500 Du        
   5255 ****        15.7500  15.7500  15.5000 Du        
   5256 ****        15.7500  16.0000  11.7500 Du        
   5257 ****        15.7500  16.0000  12.0000 Du        
   5258 ****        15.7500  16.0000  12.2500 Du        
   5259 ****        15.7500  16.0000  12.5000 Du        
   5260 ****        15.7500  16.0000  12.7500 Du        
   5261 ****        15.7500  16.0000  13.0000 Du        
   5262 ****        15.7500  16.0000  13.2500 Du        
   5263 ****        15.7500  16.0000  13.5000 Du        
   5264 ****        15.7500  16.0000  13.7500 Du        
   5265 ****        15.7500  16.0000  14.0000 Du        
   5266 ****        15.7500  16.0000  14.2500 Du        
   5267 ****        15.7500  16.0000  14.5000 Du        
   5268 ****        15.7500  16.0000  14.7500 Du        
   5269 ****        15.7500  16.0000  15.0000 Du        
   5270 ****        15.7500  16.0000  15.2500 Du        
   5271 ****        15.7500  16.0000  15.5000 Du        
   5272 ****        15.7500  16.2500  11.0000 Du        
   5273 ****        15.7500  16.2500  11.2500 Du        
   5274 ****        15.7500  16.2500  11.5000 Du        
   5275 ****        15.7500  16.2500  11.7500 Du        
   5276 ****        15.7500  16.2500  12.0000 Du        
   5277 ****        15.7500  16.2500  12.2500 Du        
   5278 ****        15.7500  16.2500  12.5000 Du        
   5279 ****        15.7500  16.2500  12.7500 Du        
   5280 ****        15.7500  16.2500  13.0000 Du        
   5281 ****        15.7500  16.2500  15.0000 Du        
   5282 ****        15.7500  16.5000  10.7500 Du        
   5283 ****        15.7500  16.5000  11.0000 Du        
   5284 ****        15.7500  16.5000  11.2500 Du        
   5285 ****        15.7500  16.5000  11.5000 Du        
   5286 ****        15.7500  16.5000  11.7500 Du        
   5287 ****        15.7500  16.5000  12.0000 Du        
   5288 ****        15.7500  16.5000  12.2500 Du        
   5289 ****        15.7500  16.5000  12.5000 Du        
   5290 ****        15.7500  16.7500  10.7500 Du        
   5291 ****        15.7500  16.7500  11.0000 Du        
   5292 ****        15.7500  16.7500  11.2500 Du        
   5293 ****        15.7500  16.7500  11.5000 Du        
   5294 ****        15.7500  16.7500  11.7500 Du        
   5295 ****        15.7500  16.7500  12.0000 Du        
   5296 ****        15.7500  17.0000  10.7500 Du        
   5297 ****        15.7500  17.0000  11.0000 Du        
   5298 ****        15.7500  17.0000  11.2500 Du        
   5299 ****        15.7500  17.0000  11.5000 Du        
   5300 ****        15.7500  17.2500  10.7500 Du        
   5301 ****        15.7500  17.2500  11.0000 Du        
   5302 ****        16.0000  10.0000  20.2500 Du        
   5303 ****        16.0000  10.0000  20.5000 Du        
   5304 ****        16.0000  10.0000  20.7500 Du        
   5305 ****        16.0000  10.0000  21.0000 Du        
   5306 ****        16.0000  10.2500  20.2500 Du        
   5307 ****        16.0000  10.2500  20.5000 Du        
   5308 ****        16.0000  10.2500  20.7500 Du        
   5309 ****        16.0000  10.2500  21.0000 Du        
   5310 ****        16.0000  10.2500  21.2500 Du        
   5311 ****        16.0000  10.2500  21.5000 Du        
   5312 ****        16.0000  10.5000  20.5000 Du        
   5313 ****        16.0000  10.5000  20.7500 Du        
   5314 ****        16.0000  10.5000  21.0000 Du        
   5315 ****        16.0000  10.5000  21.2500 Du        
   5316 ****        16.0000  10.5000  21.5000 Du        
   5317 ****        16.0000  10.7500  20.7500 Du        
   5318 ****        16.0000  10.7500  21.0000 Du        
   5319 ****        16.0000  10.7500  21.2500 Du        
   5320 ****        16.0000  10.7500  21.5000 Du        
   5321 ****        16.0000  11.0000  21.0000 Du        
   5322 ****        16.0000  11.0000  21.2500 Du        
   5323 ****        16.0000  11.0000  21.5000 Du        
   5324 ****        16.0000  13.0000  13.2500 Du        
   5325 ****        16.0000  13.2500  13.2500 Du        
   5326 ****        16.0000  13.2500  13.5000 Du        
   5327 ****        16.0000  13.2500  13.7500 Du        
   5328 ****        16.0000  13.2500  14.0000 Du        
   5329 ****        16.0000  13.2500  14.2500 Du        
   5330 ****        16.0000  13.2500  14.5000 Du        
   5331 ****        16.0000  13.2500  14.7500 Du        
   5332 ****        16.0000  13.2500  15.0000 Du        
   5333 ****        16.0000  13.2500  15.2500 Du        
   5334 ****        16.0000  13.5000  13.2500 Du        
   5335 ****        16.0000  13.5000  13.5000 Du        
   5336 ****        16.0000  13.5000  13.7500 Du        
   5337 ****        16.0000  13.5000  14.0000 Du        
   5338 ****        16.0000  13.5000  14.2500 Du        
   5339 ****        16.0000  13.5000  14.5000 Du        
   5340 ****        16.0000  13.5000  14.7500 Du        
   5341 ****        16.0000  13.5000  15.0000 Du        
   5342 ****        16.0000  13.5000  15.2500 Du        
   5343 ****        16.0000  13.5000  15.5000 Du        
   5344 ****        16.0000  13.7500  13.5000 Du        
   5345 ****        16.0000  13.7500  13.7500 Du        
   5346 ****        16.0000  13.7500  14.0000 Du        
   5347 ****        16.0000  13.7500  14.2500 Du        
   5348 ****        16.0000  13.7500  14.5000 Du        
   5349 ****        16.0000  13.7500  14.7500 Du        
   5350 ****        16.0000  13.7500  15.0000 Du        
   5351 ****        16.0000  13.7500  15.2500 Du        
   5352 ****        16.0000  13.7500  15.5000 Du        
   5353 ****        16.0000  14.0000  13.5000 Du        
   5354 ****        16.0000  14.0000  13.7500 Du        
   5355 ****        16.0000  14.0000  14.0000 Du        
   5356 ****        16.0000  14.0000  14.2500 Du        
   5357 ****        16.0000  14.0000  14.5000 Du        
   5358 ****        16.0000  14.0000  14.7500 Du        
   5359 ****        16.0000  14.0000  15.0000 Du        
   5360 ****        16.0000  14.0000  15.2500 Du        
   5361 ****        16.0000  14.0000  15.5000 Du        
   5362 ****        16.0000  14.0000  15.7500 Du        
   5363 ****        16.0000  14.2500  13.5000 Du        
   5364 ****        16.0000  14.2500  13.7500 Du        
   5365 ****        16.0000  14.2500  14.0000 Du        
   5366 ****        16.0000  14.2500  14.2500 Du        
   5367 ****        16.0000  14.2500  14.5000 Du        
   5368 ****        16.0000  14.2500  14.7500 Du        
   5369 ****        16.0000  14.2500  15.0000 Du        
   5370 ****        16.0000  14.2500  15.2500 Du        
   5371 ****        16.0000  14.2500  15.5000 Du        
   5372 ****        16.0000  14.2500  15.7500 Du        
   5373 ****        16.0000  14.5000  13.7500 Du        
   5374 ****        16.0000  14.5000  14.0000 Du        
   5375 ****        16.0000  14.5000  14.2500 Du        
   5376 ****        16.0000  14.5000  14.5000 Du        
   5377 ****        16.0000  14.5000  14.7500 Du        
   5378 ****        16.0000  14.5000  15.0000 Du        
   5379 ****        16.0000  14.5000  15.2500 Du        
   5380 ****        16.0000  14.5000  15.5000 Du        
   5381 ****        16.0000  14.5000  15.7500 Du        
   5382 ****        16.0000  14.7500  13.5000 Du        
   5383 ****        16.0000  14.7500  13.7500 Du        
   5384 ****        16.0000  14.7500  14.0000 Du        
   5385 ****        16.0000  14.7500  14.2500 Du        
   5386 ****        16.0000  14.7500  14.5000 Du        
   5387 ****        16.0000  14.7500  14.7500 Du        
   5388 ****        16.0000  14.7500  15.0000 Du        
   5389 ****        16.0000  14.7500  15.2500 Du        
   5390 ****        16.0000  14.7500  15.5000 Du        
   5391 ****        16.0000  14.7500  15.7500 Du        
   5392 ****        16.0000  15.0000  13.5000 Du        
   5393 ****        16.0000  15.0000  13.7500 Du        
   5394 ****        16.0000  15.0000  14.0000 Du        
   5395 ****        16.0000  15.0000  14.2500 Du        
   5396 ****        16.0000  15.0000  14.5000 Du        
   5397 ****        16.0000  15.0000  14.7500 Du        
   5398 ****        16.0000  15.0000  15.0000 Du        
   5399 ****        16.0000  15.0000  15.2500 Du        
   5400 ****        16.0000  15.0000  15.5000 Du        
   5401 ****        16.0000  15.0000  15.7500 Du        
   5402 ****        16.0000  15.2500  13.2500 Du        
   5403 ****        16.0000  15.2500  13.5000 Du        
   5404 ****        16.0000  15.2500  13.7500 Du        
   5405 ****        16.0000  15.2500  14.0000 Du        
   5406 ****        16.0000  15.2500  14.2500 Du        
   5407 ****        16.0000  15.2500  14.5000 Du        
   5408 ****        16.0000  15.2500  14.7500 Du        
   5409 ****        16.0000  15.2500  15.0000 Du        
   5410 ****        16.0000  15.2500  15.2500 Du        
   5411 ****        16.0000  15.2500  15.5000 Du        
   5412 ****        16.0000  15.5000  13.2500 Du        
   5413 ****        16.0000  15.5000  13.5000 Du        
   5414 ****        16.0000  15.5000  13.7500 Du        
   5415 ****        16.0000  15.5000  14.0000 Du        
   5416 ****        16.0000  15.5000  14.2500 Du        
   5417 ****        16.0000  15.5000  14.5000 Du        
   5418 ****        16.0000  15.5000  14.7500 Du        
   5419 ****        16.0000  15.5000  15.0000 Du        
   5420 ****        16.0000  15.5000  15.2500 Du        
   5421 ****        16.0000  15.5000  15.5000 Du        
   5422 ****        16.0000  15.7500  13.0000 Du        
   5423 ****        16.0000  15.7500  13.2500 Du        
   5424 ****        16.0000  15.7500  13.5000 Du        
   5425 ****        16.0000  15.7500  13.7500 Du        
   5426 ****        16.0000  15.7500  14.0000 Du        
   5427 ****        16.0000  15.7500  14.2500 Du        
   5428 ****        16.0000  15.7500  14.5000 Du        
   5429 ****        16.0000  15.7500  14.7500 Du        
   5430 ****        16.0000  15.7500  15.0000 Du        
   5431 ****        16.0000  15.7500  15.2500 Du        
   5432 ****        16.0000  15.7500  15.5000 Du        
   5433 ****        16.0000  16.0000  12.7500 Du        
   5434 ****        16.0000  16.0000  13.0000 Du        
   5435 ****        16.0000  16.0000  13.2500 Du        
   5436 ****        16.0000  16.0000  13.5000 Du        
   5437 ****        16.0000  16.0000  13.7500 Du        
   5438 ****        16.0000  16.0000  14.0000 Du        
   5439 ****        16.0000  16.0000  14.2500 Du        
   5440 ****        16.0000  16.0000  14.5000 Du        
   5441 ****        16.0000  16.0000  14.7500 Du        
   5442 ****        16.0000  16.0000  15.0000 Du        
   5443 ****        16.0000  16.0000  15.2500 Du        
   5444 ****        16.0000  16.2500  11.7500 Du        
   5445 ****        16.0000  16.2500  12.0000 Du        
   5446 ****        16.0000  16.2500  12.2500 Du        
   5447 ****        16.0000  16.2500  12.5000 Du        
   5448 ****        16.0000  16.2500  12.7500 Du        
   5449 ****        16.0000  16.2500  13.0000 Du        
   5450 ****        16.0000  16.2500  13.2500 Du        
   5451 ****        16.0000  16.2500  13.5000 Du        
   5452 ****        16.0000  16.2500  13.7500 Du        
   5453 ****        16.0000  16.2500  14.0000 Du        
   5454 ****        16.0000  16.2500  14.7500 Du        
   5455 ****        16.0000  16.2500  15.0000 Du        
   5456 ****        16.0000  16.5000  11.0000 Du        
   5457 ****        16.0000  16.5000  11.2500 Du        
   5458 ****        16.0000  16.5000  11.5000 Du        
   5459 ****        16.0000  16.5000  11.7500 Du        
   5460 ****        16.0000  16.5000  12.0000 Du        
   5461 ****        16.0000  16.5000  12.2500 Du        
   5462 ****        16.0000  16.5000  12.5000 Du        
   5463 ****        16.0000  16.5000  12.7500 Du        
   5464 ****        16.0000  16.7500  10.7500 Du        
   5465 ****        16.0000  16.7500  11.0000 Du        
   5466 ****        16.0000  16.7500  11.2500 Du        
   5467 ****        16.0000  16.7500  11.5000 Du        
   5468 ****        16.0000  16.7500  11.7500 Du        
   5469 ****        16.0000  16.7500  12.0000 Du        
   5470 ****        16.0000  16.7500  12.2500 Du        
   5471 ****        16.0000  17.0000  10.7500 Du        
   5472 ****        16.0000  17.0000  11.0000 Du        
   5473 ****        16.0000  17.0000  11.2500 Du        
   5474 ****        16.0000  17.0000  11.5000 Du        
   5475 ****        16.0000  17.2500  10.5000 Du        
   5476 ****        16.0000  17.2500  10.7500 Du        
   5477 ****        16.0000  17.2500  11.0000 Du        
   5478 ****        16.0000  17.2500  11.2500 Du        
   5479 ****        16.0000  17.5000  10.5000 Du        
   5480 ****        16.0000  17.5000  10.7500 Du        
   5481 ****        16.0000  18.7500   8.7500 Du        
   5482 ****        16.0000  18.7500   9.0000 Du        
   5483 ****        16.0000  19.0000   8.2500 Du        
   5484 ****        16.0000  19.0000   8.5000 Du        
   5485 ****        16.0000  19.0000   8.7500 Du        
   5486 ****        16.0000  19.2500   8.2500 Du        
   5487 ****        16.0000  19.2500   8.5000 Du        
   5488 ****        16.0000  19.2500   8.7500 Du        
   5489 ****        16.2500  10.0000  20.2500 Du        
   5490 ****        16.2500  10.0000  20.5000 Du        
   5491 ****        16.2500  10.0000  20.7500 Du        
   5492 ****        16.2500  10.0000  21.0000 Du        
   5493 ****        16.2500  10.2500  20.2500 Du        
   5494 ****        16.2500  10.2500  20.5000 Du        
   5495 ****        16.2500  10.2500  20.7500 Du        
   5496 ****        16.2500  10.2500  21.0000 Du        
   5497 ****        16.2500  10.2500  21.2500 Du        
   5498 ****        16.2500  10.2500  21.5000 Du        
   5499 ****        16.2500  10.5000  20.2500 Du        
   5500 ****        16.2500  10.5000  20.5000 Du        
   5501 ****        16.2500  10.5000  20.7500 Du        
   5502 ****        16.2500  10.5000  21.0000 Du        
   5503 ****        16.2500  10.5000  21.2500 Du        
   5504 ****        16.2500  10.5000  21.5000 Du        
   5505 ****        16.2500  10.7500  20.5000 Du        
   5506 ****        16.2500  10.7500  20.7500 Du        
   5507 ****        16.2500  10.7500  21.0000 Du        
   5508 ****        16.2500  10.7500  21.2500 Du        
   5509 ****        16.2500  10.7500  21.5000 Du        
   5510 ****        16.2500  10.7500  21.7500 Du        
   5511 ****        16.2500  11.0000  20.7500 Du        
   5512 ****        16.2500  11.0000  21.0000 Du        
   5513 ****        16.2500  11.0000  21.2500 Du        
   5514 ****        16.2500  11.0000  21.5000 Du        
   5515 ****        16.2500  11.0000  21.7500 Du        
   5516 ****        16.2500  11.2500  21.2500 Du        
   5517 ****        16.2500  11.2500  21.5000 Du        
   5518 ****        16.2500  13.2500  13.7500 Du        
   5519 ****        16.2500  13.2500  14.0000 Du        
   5520 ****        16.2500  13.2500  14.7500 Du        
   5521 ****        16.2500  13.2500  15.0000 Du        
   5522 ****        16.2500  13.2500  15.2500 Du        
   5523 ****        16.2500  13.2500  15.5000 Du        
   5524 ****        16.2500  13.5000  13.7500 Du        
   5525 ****        16.2500  13.5000  14.0000 Du        
   5526 ****        16.2500  13.5000  14.2500 Du        
   5527 ****        16.2500  13.5000  14.5000 Du        
   5528 ****        16.2500  13.5000  14.7500 Du        
   5529 ****        16.2500  13.5000  15.0000 Du        
   5530 ****        16.2500  13.5000  15.2500 Du        
   5531 ****        16.2500  13.5000  15.5000 Du        
   5532 ****        16.2500  13.7500  13.7500 Du        
   5533 ****        16.2500  13.7500  14.0000 Du        
   5534 ****        16.2500  13.7500  14.2500 Du        
   5535 ****        16.2500  13.7500  14.5000 Du        
   5536 ****        16.2500  13.7500  14.7500 Du        
   5537 ****        16.2500  13.7500  15.0000 Du        
   5538 ****        16.2500  13.7500  15.2500 Du        
   5539 ****        16.2500  13.7500  15.5000 Du        
   5540 ****        16.2500  13.7500  15.7500 Du        
   5541 ****        16.2500  14.0000  13.7500 Du        
   5542 ****        16.2500  14.0000  14.0000 Du        
   5543 ****        16.2500  14.0000  14.2500 Du        
   5544 ****        16.2500  14.0000  14.5000 Du        
   5545 ****        16.2500  14.0000  14.7500 Du        
   5546 ****        16.2500  14.0000  15.0000 Du        
   5547 ****        16.2500  14.0000  15.2500 Du        
   5548 ****        16.2500  14.0000  15.5000 Du        
   5549 ****        16.2500  14.0000  15.7500 Du        
   5550 ****        16.2500  14.2500  13.7500 Du        
   5551 ****        16.2500  14.2500  14.0000 Du        
   5552 ****        16.2500  14.2500  14.2500 Du        
   5553 ****        16.2500  14.2500  14.5000 Du        
   5554 ****        16.2500  14.2500  14.7500 Du        
   5555 ****        16.2500  14.2500  15.0000 Du        
   5556 ****        16.2500  14.2500  15.2500 Du        
   5557 ****        16.2500  14.2500  15.5000 Du        
   5558 ****        16.2500  14.2500  15.7500 Du        
   5559 ****        16.2500  14.2500  16.0000 Du        
   5560 ****        16.2500  14.5000  14.0000 Du        
   5561 ****        16.2500  14.5000  14.2500 Du        
   5562 ****        16.2500  14.5000  14.5000 Du        
   5563 ****        16.2500  14.5000  14.7500 Du        
   5564 ****        16.2500  14.5000  15.0000 Du        
   5565 ****        16.2500  14.5000  15.2500 Du        
   5566 ****        16.2500  14.5000  15.5000 Du        
   5567 ****        16.2500  14.5000  15.7500 Du        
   5568 ****        16.2500  14.7500  13.7500 Du        
   5569 ****        16.2500  14.7500  14.0000 Du        
   5570 ****        16.2500  14.7500  14.2500 Du        
   5571 ****        16.2500  14.7500  14.5000 Du        
   5572 ****        16.2500  14.7500  14.7500 Du        
   5573 ****        16.2500  14.7500  15.0000 Du        
   5574 ****        16.2500  14.7500  15.2500 Du        
   5575 ****        16.2500  14.7500  15.5000 Du        
   5576 ****        16.2500  14.7500  15.7500 Du        
   5577 ****        16.2500  15.0000  13.5000 Du        
   5578 ****        16.2500  15.0000  13.7500 Du        
   5579 ****        16.2500  15.0000  14.0000 Du        
   5580 ****        16.2500  15.0000  14.2500 Du        
   5581 ****        16.2500  15.0000  14.5000 Du        
   5582 ****        16.2500  15.0000  14.7500 Du        
   5583 ****        16.2500  15.0000  15.0000 Du        
   5584 ****        16.2500  15.0000  15.2500 Du        
   5585 ****        16.2500  15.0000  15.5000 Du        
   5586 ****        16.2500  15.0000  15.7500 Du        
   5587 ****        16.2500  15.2500  13.5000 Du        
   5588 ****        16.2500  15.2500  13.7500 Du        
   5589 ****        16.2500  15.2500  14.0000 Du        
   5590 ****        16.2500  15.2500  14.2500 Du        
   5591 ****        16.2500  15.2500  14.5000 Du        
   5592 ****        16.2500  15.2500  14.7500 Du        
   5593 ****        16.2500  15.2500  15.0000 Du        
   5594 ****        16.2500  15.2500  15.2500 Du        
   5595 ****        16.2500  15.2500  15.5000 Du        
   5596 ****        16.2500  15.5000  13.5000 Du        
   5597 ****        16.2500  15.5000  13.7500 Du        
   5598 ****        16.2500  15.5000  14.0000 Du        
   5599 ****        16.2500  15.5000  14.2500 Du        
   5600 ****        16.2500  15.5000  14.5000 Du        
   5601 ****        16.2500  15.5000  14.7500 Du        
   5602 ****        16.2500  15.5000  15.0000 Du        
   5603 ****        16.2500  15.5000  15.2500 Du        
   5604 ****        16.2500  15.7500  13.2500 Du        
   5605 ****        16.2500  15.7500  13.5000 Du        
   5606 ****        16.2500  15.7500  13.7500 Du        
   5607 ****        16.2500  15.7500  14.0000 Du        
   5608 ****        16.2500  15.7500  14.2500 Du        
   5609 ****        16.2500  15.7500  14.5000 Du        
   5610 ****        16.2500  15.7500  14.7500 Du        
   5611 ****        16.2500  15.7500  15.0000 Du        
   5612 ****        16.2500  15.7500  15.2500 Du        
   5613 ****        16.2500  16.0000  13.0000 Du        
   5614 ****        16.2500  16.0000  13.2500 Du        
   5615 ****        16.2500  16.0000  13.5000 Du        
   5616 ****        16.2500  16.0000  13.7500 Du        
   5617 ****        16.2500  16.0000  14.0000 Du        
   5618 ****        16.2500  16.0000  14.2500 Du        
   5619 ****        16.2500  16.0000  14.5000 Du        
   5620 ****        16.2500  16.0000  14.7500 Du        
   5621 ****        16.2500  16.0000  15.0000 Du        
   5622 ****        16.2500  16.2500  12.7500 Du        
   5623 ****        16.2500  16.2500  13.0000 Du        
   5624 ****        16.2500  16.2500  13.2500 Du        
   5625 ****        16.2500  16.2500  13.5000 Du        
   5626 ****        16.2500  16.2500  13.7500 Du        
   5627 ****        16.2500  16.2500  14.0000 Du        
   5628 ****        16.2500  16.2500  14.2500 Du        
   5629 ****        16.2500  16.2500  14.5000 Du        
   5630 ****        16.2500  16.2500  14.7500 Du        
   5631 ****        16.2500  16.2500  15.0000 Du        
   5632 ****        16.2500  16.5000  11.7500 Du        
   5633 ****        16.2500  16.5000  12.0000 Du        
   5634 ****        16.2500  16.5000  12.2500 Du        
   5635 ****        16.2500  16.5000  12.5000 Du        
   5636 ****        16.2500  16.7500  10.7500 Du        
   5637 ****        16.2500  16.7500  11.0000 Du        
   5638 ****        16.2500  16.7500  11.2500 Du        
   5639 ****        16.2500  16.7500  11.5000 Du        
   5640 ****        16.2500  16.7500  11.7500 Du        
   5641 ****        16.2500  16.7500  12.0000 Du        
   5642 ****        16.2500  16.7500  12.2500 Du        
   5643 ****        16.2500  17.0000  10.7500 Du        
   5644 ****        16.2500  17.0000  11.0000 Du        
   5645 ****        16.2500  17.0000  11.2500 Du        
   5646 ****        16.2500  17.0000  11.5000 Du        
   5647 ****        16.2500  17.0000  11.7500 Du        
   5648 ****        16.2500  17.2500  10.5000 Du        
   5649 ****        16.2500  17.2500  10.7500 Du        
   5650 ****        16.2500  17.2500  11.0000 Du        
   5651 ****        16.2500  17.2500  11.2500 Du        
   5652 ****        16.2500  17.5000  10.5000 Du        
   5653 ****        16.2500  17.5000  10.7500 Du        
   5654 ****        16.2500  17.5000  11.0000 Du        
   5655 ****        16.2500  17.7500  10.2500 Du        
   5656 ****        16.2500  17.7500  10.5000 Du        
   5657 ****        16.5000  10.0000  20.5000 Du        
   5658 ****        16.5000  10.2500  20.2500 Du        
   5659 ****        16.5000  10.2500  20.5000 Du        
   5660 ****        16.5000  10.2500  20.7500 Du        
   5661 ****        16.5000  10.2500  21.0000 Du        
   5662 ****        16.5000  10.2500  21.2500 Du        
   5663 ****        16.5000  10.5000  20.0000 Du        
   5664 ****        16.5000  10.5000  20.2500 Du        
   5665 ****        16.5000  10.5000  20.5000 Du        
   5666 ****        16.5000  10.5000  20.7500 Du        
   5667 ****        16.5000  10.5000  21.0000 Du        
   5668 ****        16.5000  10.5000  21.2500 Du        
   5669 ****        16.5000  10.5000  21.5000 Du        
   5670 ****        16.5000  10.7500  20.2500 Du        
   5671 ****        16.5000  10.7500  20.5000 Du        
   5672 ****        16.5000  10.7500  20.7500 Du        
   5673 ****        16.5000  10.7500  21.0000 Du        
   5674 ****        16.5000  10.7500  21.2500 Du        
   5675 ****        16.5000  10.7500  21.5000 Du        
   5676 ****        16.5000  10.7500  21.7500 Du        
   5677 ****        16.5000  11.0000  20.5000 Du        
   5678 ****        16.5000  11.0000  20.7500 Du        
   5679 ****        16.5000  11.0000  21.0000 Du        
   5680 ****        16.5000  11.0000  21.2500 Du        
   5681 ****        16.5000  11.0000  21.5000 Du        
   5682 ****        16.5000  11.0000  21.7500 Du        
   5683 ****        16.5000  11.2500  21.0000 Du        
   5684 ****        16.5000  11.2500  21.2500 Du        
   5685 ****        16.5000  11.2500  21.5000 Du        
   5686 ****        16.5000  11.2500  21.7500 Du        
   5687 ****        16.5000  11.5000  21.2500 Du        
   5688 ****        16.5000  11.5000  21.5000 Du        
   5689 ****        16.5000  11.5000  21.7500 Du        
   5690 ****        16.5000  13.5000  14.0000 Du        
   5691 ****        16.5000  13.5000  14.2500 Du        
   5692 ****        16.5000  13.5000  14.5000 Du        
   5693 ****        16.5000  13.5000  14.7500 Du        
   5694 ****        16.5000  13.5000  15.0000 Du        
   5695 ****        16.5000  13.5000  15.2500 Du        
   5696 ****        16.5000  13.5000  15.5000 Du        
   5697 ****        16.5000  13.5000  15.7500 Du        
   5698 ****        16.5000  13.7500  13.7500 Du        
   5699 ****        16.5000  13.7500  14.0000 Du        
   5700 ****        16.5000  13.7500  14.2500 Du        
   5701 ****        16.5000  13.7500  14.5000 Du        
   5702 ****        16.5000  13.7500  14.7500 Du        
   5703 ****        16.5000  13.7500  15.0000 Du        
   5704 ****        16.5000  13.7500  15.2500 Du        
   5705 ****        16.5000  13.7500  15.5000 Du        
   5706 ****        16.5000  13.7500  15.7500 Du        
   5707 ****        16.5000  14.0000  14.0000 Du        
   5708 ****        16.5000  14.0000  14.2500 Du        
   5709 ****        16.5000  14.0000  14.5000 Du        
   5710 ****        16.5000  14.0000  14.7500 Du        
   5711 ****        16.5000  14.0000  15.0000 Du        
   5712 ****        16.5000  14.0000  15.2500 Du        
   5713 ****        16.5000  14.0000  15.5000 Du        
   5714 ****        16.5000  14.0000  15.7500 Du        
   5715 ****        16.5000  14.0000  16.0000 Du        
   5716 ****        16.5000  14.2500  14.0000 Du        
   5717 ****        16.5000  14.2500  14.2500 Du        
   5718 ****        16.5000  14.2500  14.5000 Du        
   5719 ****        16.5000  14.2500  14.7500 Du        
   5720 ****        16.5000  14.2500  15.0000 Du        
   5721 ****        16.5000  14.2500  15.2500 Du        
   5722 ****        16.5000  14.2500  15.5000 Du        
   5723 ****        16.5000  14.2500  15.7500 Du        
   5724 ****        16.5000  14.2500  16.0000 Du        
   5725 ****        16.5000  14.5000  14.0000 Du        
   5726 ****        16.5000  14.5000  14.2500 Du        
   5727 ****        16.5000  14.5000  14.5000 Du        
   5728 ****        16.5000  14.5000  14.7500 Du        
   5729 ****        16.5000  14.5000  15.0000 Du        
   5730 ****        16.5000  14.5000  15.2500 Du        
   5731 ****        16.5000  14.5000  15.5000 Du        
   5732 ****        16.5000  14.5000  15.7500 Du        
   5733 ****        16.5000  14.7500  14.0000 Du        
   5734 ****        16.5000  14.7500  14.2500 Du        
   5735 ****        16.5000  14.7500  14.5000 Du        
   5736 ****        16.5000  14.7500  14.7500 Du        
   5737 ****        16.5000  14.7500  15.0000 Du        
   5738 ****        16.5000  14.7500  15.2500 Du        
   5739 ****        16.5000  14.7500  15.5000 Du        
   5740 ****        16.5000  14.7500  15.7500 Du        
   5741 ****        16.5000  15.0000  13.7500 Du        
   5742 ****        16.5000  15.0000  14.0000 Du        
   5743 ****        16.5000  15.0000  14.2500 Du        
   5744 ****        16.5000  15.0000  14.5000 Du        
   5745 ****        16.5000  15.0000  14.7500 Du        
   5746 ****        16.5000  15.0000  15.0000 Du        
   5747 ****        16.5000  15.0000  15.2500 Du        
   5748 ****        16.5000  15.0000  15.5000 Du        
   5749 ****        16.5000  15.2500  13.7500 Du        
   5750 ****        16.5000  15.2500  14.0000 Du        
   5751 ****        16.5000  15.2500  14.2500 Du        
   5752 ****        16.5000  15.2500  14.5000 Du        
   5753 ****        16.5000  15.2500  14.7500 Du        
   5754 ****        16.5000  15.2500  15.0000 Du        
   5755 ****        16.5000  15.2500  15.2500 Du        
   5756 ****        16.5000  15.2500  15.5000 Du        
   5757 ****        16.5000  15.5000  13.7500 Du        
   5758 ****        16.5000  15.5000  14.0000 Du        
   5759 ****        16.5000  15.5000  14.2500 Du        
   5760 ****        16.5000  15.5000  14.5000 Du        
   5761 ****        16.5000  15.5000  14.7500 Du        
   5762 ****        16.5000  15.5000  15.0000 Du        
   5763 ****        16.5000  15.5000  15.2500 Du        
   5764 ****        16.5000  15.7500  13.5000 Du        
   5765 ****        16.5000  15.7500  13.7500 Du        
   5766 ****        16.5000  15.7500  14.0000 Du        
   5767 ****        16.5000  15.7500  14.2500 Du        
   5768 ****        16.5000  15.7500  14.5000 Du        
   5769 ****        16.5000  15.7500  14.7500 Du        
   5770 ****        16.5000  15.7500  15.0000 Du        
   5771 ****        16.5000  16.0000  13.5000 Du        
   5772 ****        16.5000  16.0000  13.7500 Du        
   5773 ****        16.5000  16.0000  14.0000 Du        
   5774 ****        16.5000  16.0000  14.2500 Du        
   5775 ****        16.5000  16.0000  14.5000 Du        
   5776 ****        16.5000  16.0000  14.7500 Du        
   5777 ****        16.5000  16.0000  15.0000 Du        
   5778 ****        16.5000  16.2500  13.2500 Du        
   5779 ****        16.5000  16.2500  13.7500 Du        
   5780 ****        16.5000  16.2500  14.0000 Du        
   5781 ****        16.5000  16.2500  14.2500 Du        
   5782 ****        16.5000  16.2500  14.5000 Du        
   5783 ****        16.5000  16.7500  11.0000 Du        
   5784 ****        16.5000  16.7500  11.2500 Du        
   5785 ****        16.5000  16.7500  11.5000 Du        
   5786 ****        16.5000  16.7500  11.7500 Du        
   5787 ****        16.5000  16.7500  12.0000 Du        
   5788 ****        16.5000  17.0000  10.7500 Du        
   5789 ****        16.5000  17.0000  11.0000 Du        
   5790 ****        16.5000  17.0000  11.2500 Du        
   5791 ****        16.5000  17.0000  11.5000 Du        
   5792 ****        16.5000  17.2500  10.5000 Du        
   5793 ****        16.5000  17.2500  10.7500 Du        
   5794 ****        16.5000  17.2500  11.0000 Du        
   5795 ****        16.5000  17.2500  11.2500 Du        
   5796 ****        16.5000  17.5000  10.5000 Du        
   5797 ****        16.5000  17.5000  10.7500 Du        
   5798 ****        16.5000  17.5000  11.0000 Du        
   5799 ****        16.5000  17.7500  10.5000 Du        
   5800 ****        16.5000  17.7500  10.7500 Du        
   5801 ****        16.7500  10.2500  20.0000 Du        
   5802 ****        16.7500  10.2500  20.2500 Du        
   5803 ****        16.7500  10.2500  20.5000 Du        
   5804 ****        16.7500  10.5000  20.0000 Du        
   5805 ****        16.7500  10.5000  20.2500 Du        
   5806 ****        16.7500  10.5000  20.5000 Du        
   5807 ****        16.7500  10.5000  20.7500 Du        
   5808 ****        16.7500  10.5000  21.0000 Du        
   5809 ****        16.7500  10.5000  21.2500 Du        
   5810 ****        16.7500  10.7500  20.0000 Du        
   5811 ****        16.7500  10.7500  20.2500 Du        
   5812 ****        16.7500  10.7500  20.5000 Du        
   5813 ****        16.7500  10.7500  20.7500 Du        
   5814 ****        16.7500  10.7500  21.0000 Du        
   5815 ****        16.7500  10.7500  21.2500 Du        
   5816 ****        16.7500  10.7500  21.5000 Du        
   5817 ****        16.7500  10.7500  21.7500 Du        
   5818 ****        16.7500  11.0000  20.2500 Du        
   5819 ****        16.7500  11.0000  20.5000 Du        
   5820 ****        16.7500  11.0000  20.7500 Du        
   5821 ****        16.7500  11.0000  21.0000 Du        
   5822 ****        16.7500  11.0000  21.2500 Du        
   5823 ****        16.7500  11.0000  21.5000 Du        
   5824 ****        16.7500  11.0000  21.7500 Du        
   5825 ****        16.7500  11.2500  20.7500 Du        
   5826 ****        16.7500  11.2500  21.0000 Du        
   5827 ****        16.7500  11.2500  21.2500 Du        
   5828 ****        16.7500  11.2500  21.5000 Du        
   5829 ****        16.7500  11.2500  21.7500 Du        
   5830 ****        16.7500  11.2500  22.0000 Du        
   5831 ****        16.7500  11.5000  21.0000 Du        
   5832 ****        16.7500  11.5000  21.2500 Du        
   5833 ****        16.7500  11.5000  21.5000 Du        
   5834 ****        16.7500  11.5000  21.7500 Du        
   5835 ****        16.7500  11.7500  21.5000 Du        
   5836 ****        16.7500  11.7500  21.7500 Du        
   5837 ****        16.7500  13.2500  15.5000 Du        
   5838 ****        16.7500  13.2500  15.7500 Du        
   5839 ****        16.7500  13.5000  14.0000 Du        
   5840 ****        16.7500  13.5000  14.2500 Du        
   5841 ****        16.7500  13.5000  14.5000 Du        
   5842 ****        16.7500  13.5000  14.7500 Du        
   5843 ****        16.7500  13.5000  15.0000 Du        
   5844 ****        16.7500  13.5000  15.2500 Du        
   5845 ****        16.7500  13.5000  15.5000 Du        
   5846 ****        16.7500  13.5000  15.7500 Du        
   5847 ****        16.7500  13.5000  16.0000 Du        
   5848 ****        16.7500  13.7500  14.0000 Du        
   5849 ****        16.7500  13.7500  14.2500 Du        
   5850 ****        16.7500  13.7500  14.5000 Du        
   5851 ****        16.7500  13.7500  14.7500 Du        
   5852 ****        16.7500  13.7500  15.0000 Du        
   5853 ****        16.7500  13.7500  15.2500 Du        
   5854 ****        16.7500  13.7500  15.5000 Du        
   5855 ****        16.7500  13.7500  15.7500 Du        
   5856 ****        16.7500  13.7500  16.0000 Du        
   5857 ****        16.7500  14.0000  14.0000 Du        
   5858 ****        16.7500  14.0000  14.2500 Du        
   5859 ****        16.7500  14.0000  14.5000 Du        
   5860 ****        16.7500  14.0000  14.7500 Du        
   5861 ****        16.7500  14.0000  15.0000 Du        
   5862 ****        16.7500  14.0000  15.2500 Du        
   5863 ****        16.7500  14.0000  15.5000 Du        
   5864 ****        16.7500  14.0000  15.7500 Du        
   5865 ****        16.7500  14.0000  16.0000 Du        
   5866 ****        16.7500  14.2500  14.0000 Du        
   5867 ****        16.7500  14.2500  14.2500 Du        
   5868 ****        16.7500  14.2500  14.5000 Du        
   5869 ****        16.7500  14.2500  14.7500 Du        
   5870 ****        16.7500  14.2500  15.0000 Du        
   5871 ****        16.7500  14.2500  15.2500 Du        
   5872 ****        16.7500  14.2500  15.5000 Du        
   5873 ****        16.7500  14.2500  15.7500 Du        
   5874 ****        16.7500  14.2500  16.0000 Du        
   5875 ****        16.7500  14.5000  14.0000 Du        
   5876 ****        16.7500  14.5000  14.2500 Du        
   5877 ****        16.7500  14.5000  14.5000 Du        
   5878 ****        16.7500  14.5000  14.7500 Du        
   5879 ****        16.7500  14.5000  15.0000 Du        
   5880 ****        16.7500  14.5000  15.2500 Du        
   5881 ****        16.7500  14.5000  15.5000 Du        
   5882 ****        16.7500  14.5000  15.7500 Du        
   5883 ****        16.7500  14.5000  16.0000 Du        
   5884 ****        16.7500  14.7500  14.0000 Du        
   5885 ****        16.7500  14.7500  14.2500 Du        
   5886 ****        16.7500  14.7500  14.5000 Du        
   5887 ****        16.7500  14.7500  14.7500 Du        
   5888 ****        16.7500  14.7500  15.0000 Du        
   5889 ****        16.7500  14.7500  15.2500 Du        
   5890 ****        16.7500  14.7500  15.5000 Du        
   5891 ****        16.7500  14.7500  15.7500 Du        
   5892 ****        16.7500  15.0000  14.0000 Du        
   5893 ****        16.7500  15.0000  14.2500 Du        
   5894 ****        16.7500  15.0000  14.5000 Du        
   5895 ****        16.7500  15.0000  14.7500 Du        
   5896 ****        16.7500  15.0000  15.0000 Du        
   5897 ****        16.7500  15.0000  15.2500 Du        
   5898 ****        16.7500  15.0000  15.5000 Du        
   5899 ****        16.7500  15.2500  14.0000 Du        
   5900 ****        16.7500  15.2500  14.2500 Du        
   5901 ****        16.7500  15.2500  14.5000 Du        
   5902 ****        16.7500  15.2500  14.7500 Du        
   5903 ****        16.7500  15.2500  15.0000 Du        
   5904 ****        16.7500  15.2500  15.2500 Du        
   5905 ****        16.7500  15.5000  13.7500 Du        
   5906 ****        16.7500  15.5000  14.0000 Du        
   5907 ****        16.7500  15.5000  14.2500 Du        
   5908 ****        16.7500  15.5000  14.5000 Du        
   5909 ****        16.7500  15.5000  14.7500 Du        
   5910 ****        16.7500  15.5000  15.0000 Du        
   5911 ****        16.7500  15.5000  15.2500 Du        
   5912 ****        16.7500  15.7500  13.5000 Du        
   5913 ****        16.7500  15.7500  13.7500 Du        
   5914 ****        16.7500  15.7500  14.0000 Du        
   5915 ****        16.7500  15.7500  14.2500 Du        
   5916 ****        16.7500  15.7500  14.5000 Du        
   5917 ****        16.7500  15.7500  14.7500 Du        
   5918 ****        16.7500  15.7500  15.0000 Du        
   5919 ****        16.7500  16.0000  13.5000 Du        
   5920 ****        16.7500  16.0000  13.7500 Du        
   5921 ****        16.7500  16.0000  14.0000 Du        
   5922 ****        16.7500  16.0000  14.2500 Du        
   5923 ****        16.7500  16.0000  14.5000 Du        
   5924 ****        16.7500  16.0000  14.7500 Du        
   5925 ****        16.7500  16.2500  13.2500 Du        
   5926 ****        16.7500  16.2500  13.5000 Du        
   5927 ****        16.7500  16.2500  13.7500 Du        
   5928 ****        16.7500  16.2500  14.0000 Du        
   5929 ****        16.7500  16.2500  14.2500 Du        
   5930 ****        16.7500  16.2500  14.5000 Du        
   5931 ****        16.7500  16.5000  13.0000 Du        
   5932 ****        16.7500  16.5000  13.2500 Du        
   5933 ****        16.7500  16.5000  13.5000 Du        
   5934 ****        16.7500  16.5000  13.7500 Du        
   5935 ****        16.7500  17.0000  10.7500 Du        
   5936 ****        16.7500  17.0000  11.0000 Du        
   5937 ****        16.7500  17.0000  11.2500 Du        
   5938 ****        16.7500  17.0000  11.5000 Du        
   5939 ****        16.7500  17.0000  11.7500 Du        
   5940 ****        16.7500  17.2500  10.7500 Du        
   5941 ****        16.7500  17.2500  11.0000 Du        
   5942 ****        16.7500  17.2500  11.2500 Du        
   5943 ****        16.7500  17.2500  11.5000 Du        
   5944 ****        16.7500  17.5000  10.5000 Du        
   5945 ****        16.7500  17.5000  10.7500 Du        
   5946 ****        16.7500  17.5000  11.0000 Du        
   5947 ****        16.7500  17.5000  11.2500 Du        
   5948 ****        16.7500  17.7500  10.7500 Du        
   5949 ****        17.0000  10.5000  19.7500 Du        
   5950 ****        17.0000  10.5000  20.0000 Du        
   5951 ****        17.0000  10.5000  20.2500 Du        
   5952 ****        17.0000  10.5000  20.5000 Du        
   5953 ****        17.0000  10.7500  19.7500 Du        
   5954 ****        17.0000  10.7500  20.0000 Du        
   5955 ****        17.0000  10.7500  20.2500 Du        
   5956 ****        17.0000  10.7500  20.5000 Du        
   5957 ****        17.0000  10.7500  20.7500 Du        
   5958 ****        17.0000  10.7500  21.0000 Du        
   5959 ****        17.0000  10.7500  21.2500 Du        
   5960 ****        17.0000  11.0000  20.0000 Du        
   5961 ****        17.0000  11.0000  20.2500 Du        
   5962 ****        17.0000  11.0000  20.5000 Du        
   5963 ****        17.0000  11.0000  20.7500 Du        
   5964 ****        17.0000  11.0000  21.0000 Du        
   5965 ****        17.0000  11.0000  21.2500 Du        
   5966 ****        17.0000  11.0000  21.5000 Du        
   5967 ****        17.0000  11.0000  21.7500 Du        
   5968 ****        17.0000  11.0000  22.0000 Du        
   5969 ****        17.0000  11.2500  20.5000 Du        
   5970 ****        17.0000  11.2500  20.7500 Du        
   5971 ****        17.0000  11.2500  21.0000 Du        
   5972 ****        17.0000  11.2500  21.2500 Du        
   5973 ****        17.0000  11.2500  21.5000 Du        
   5974 ****        17.0000  11.2500  21.7500 Du        
   5975 ****        17.0000  11.2500  22.0000 Du        
   5976 ****        17.0000  11.5000  21.0000 Du        
   5977 ****        17.0000  11.5000  21.2500 Du        
   5978 ****        17.0000  11.5000  21.5000 Du        
   5979 ****        17.0000  11.5000  21.7500 Du        
   5980 ****        17.0000  11.5000  22.0000 Du        
   5981 ****        17.0000  11.7500  21.2500 Du        
   5982 ****        17.0000  11.7500  21.5000 Du        
   5983 ****        17.0000  11.7500  21.7500 Du        
   5984 ****        17.0000  11.7500  22.0000 Du        
   5985 ****        17.0000  13.2500  15.0000 Du        
   5986 ****        17.0000  13.2500  15.2500 Du        
   5987 ****        17.0000  13.2500  15.5000 Du        
   5988 ****        17.0000  13.2500  15.7500 Du        
   5989 ****        17.0000  13.2500  16.0000 Du        
   5990 ****        17.0000  13.5000  14.2500 Du        
   5991 ****        17.0000  13.5000  14.5000 Du        
   5992 ****        17.0000  13.5000  14.7500 Du        
   5993 ****        17.0000  13.5000  15.0000 Du        
   5994 ****        17.0000  13.5000  15.2500 Du        
   5995 ****        17.0000  13.5000  15.5000 Du        
   5996 ****        17.0000  13.5000  15.7500 Du        
   5997 ****        17.0000  13.5000  16.0000 Du        
   5998 ****        17.0000  13.5000  16.2500 Du        
   5999 ****        17.0000  13.7500  14.0000 Du        
   6000 ****        17.0000  13.7500  14.2500 Du        
   6001 ****        17.0000  13.7500  14.5000 Du        
   6002 ****        17.0000  13.7500  14.7500 Du        
   6003 ****        17.0000  13.7500  15.0000 Du        
   6004 ****        17.0000  13.7500  15.2500 Du        
   6005 ****        17.0000  13.7500  15.5000 Du        
   6006 ****        17.0000  13.7500  15.7500 Du        
   6007 ****        17.0000  13.7500  16.0000 Du        
   6008 ****        17.0000  13.7500  16.2500 Du        
   6009 ****        17.0000  14.0000  14.0000 Du        
   6010 ****        17.0000  14.0000  14.2500 Du        
   6011 ****        17.0000  14.0000  14.5000 Du        
   6012 ****        17.0000  14.0000  14.7500 Du        
   6013 ****        17.0000  14.0000  15.0000 Du        
   6014 ****        17.0000  14.0000  15.2500 Du        
   6015 ****        17.0000  14.0000  15.5000 Du        
   6016 ****        17.0000  14.0000  15.7500 Du        
   6017 ****        17.0000  14.0000  16.0000 Du        
   6018 ****        17.0000  14.0000  16.2500 Du        
   6019 ****        17.0000  14.2500  14.0000 Du        
   6020 ****        17.0000  14.2500  14.2500 Du        
   6021 ****        17.0000  14.2500  14.5000 Du        
   6022 ****        17.0000  14.2500  14.7500 Du        
   6023 ****        17.0000  14.2500  15.0000 Du        
   6024 ****        17.0000  14.2500  15.2500 Du        
   6025 ****        17.0000  14.2500  15.5000 Du        
   6026 ****        17.0000  14.2500  15.7500 Du        
   6027 ****        17.0000  14.2500  16.0000 Du        
   6028 ****        17.0000  14.5000  14.0000 Du        
   6029 ****        17.0000  14.5000  14.2500 Du        
   6030 ****        17.0000  14.5000  14.5000 Du        
   6031 ****        17.0000  14.5000  14.7500 Du        
   6032 ****        17.0000  14.5000  15.0000 Du        
   6033 ****        17.0000  14.5000  15.2500 Du        
   6034 ****        17.0000  14.5000  15.5000 Du        
   6035 ****        17.0000  14.5000  15.7500 Du        
   6036 ****        17.0000  14.5000  16.0000 Du        
   6037 ****        17.0000  14.7500  14.0000 Du        
   6038 ****        17.0000  14.7500  14.2500 Du        
   6039 ****        17.0000  14.7500  14.5000 Du        
   6040 ****        17.0000  14.7500  14.7500 Du        
   6041 ****        17.0000  14.7500  15.0000 Du        
   6042 ****        17.0000  14.7500  15.2500 Du        
   6043 ****        17.0000  14.7500  15.5000 Du        
   6044 ****        17.0000  14.7500  15.7500 Du        
   6045 ****        17.0000  15.0000  14.0000 Du        
   6046 ****        17.0000  15.0000  14.2500 Du        
   6047 ****        17.0000  15.0000  14.5000 Du        
   6048 ****        17.0000  15.0000  14.7500 Du        
   6049 ****        17.0000  15.0000  15.0000 Du        
   6050 ****        17.0000  15.0000  15.2500 Du        
   6051 ****        17.0000  15.0000  15.5000 Du        
   6052 ****        17.0000  15.2500  14.0000 Du        
   6053 ****        17.0000  15.2500  14.2500 Du        
   6054 ****        17.0000  15.2500  14.5000 Du        
   6055 ****        17.0000  15.2500  14.7500 Du        
   6056 ****        17.0000  15.2500  15.0000 Du        
   6057 ****        17.0000  15.2500  15.2500 Du        
   6058 ****        17.0000  15.5000  14.0000 Du        
   6059 ****        17.0000  15.5000  14.2500 Du        
   6060 ****        17.0000  15.5000  14.5000 Du        
   6061 ****        17.0000  15.5000  14.7500 Du        
   6062 ****        17.0000  15.5000  15.0000 Du        
   6063 ****        17.0000  15.7500  13.7500 Du        
   6064 ****        17.0000  15.7500  14.0000 Du        
   6065 ****        17.0000  15.7500  14.2500 Du        
   6066 ****        17.0000  15.7500  14.5000 Du        
   6067 ****        17.0000  15.7500  14.7500 Du        
   6068 ****        17.0000  15.7500  15.0000 Du        
   6069 ****        17.0000  16.0000  13.7500 Du        
   6070 ****        17.0000  16.0000  14.0000 Du        
   6071 ****        17.0000  16.0000  14.2500 Du        
   6072 ****        17.0000  16.0000  14.5000 Du        
   6073 ****        17.0000  16.0000  14.7500 Du        
   6074 ****        17.0000  16.2500  13.2500 Du        
   6075 ****        17.0000  16.2500  13.5000 Du        
   6076 ****        17.0000  16.2500  13.7500 Du        
   6077 ****        17.0000  16.2500  14.0000 Du        
   6078 ****        17.0000  16.2500  14.2500 Du        
   6079 ****        17.0000  16.2500  14.5000 Du        
   6080 ****        17.0000  16.5000  13.2500 Du        
   6081 ****        17.0000  16.5000  13.5000 Du        
   6082 ****        17.0000  16.5000  13.7500 Du        
   6083 ****        17.0000  16.5000  14.0000 Du        
   6084 ****        17.0000  17.0000  11.0000 Du        
   6085 ****        17.0000  17.0000  11.2500 Du        
   6086 ****        17.0000  17.0000  11.5000 Du        
   6087 ****        17.0000  17.0000  11.7500 Du        
   6088 ****        17.0000  17.2500  10.7500 Du        
   6089 ****        17.0000  17.2500  11.0000 Du        
   6090 ****        17.0000  17.2500  11.2500 Du        
   6091 ****        17.0000  17.2500  11.5000 Du        
   6092 ****        17.0000  17.5000  10.7500 Du        
   6093 ****        17.0000  17.5000  11.0000 Du        
   6094 ****        17.0000  17.5000  11.2500 Du        
   6095 ****        17.0000  17.7500  11.0000 Du        
   6096 ****        17.2500  11.0000  20.7500 Du        
   6097 ****        17.2500  11.2500  20.7500 Du        
   6098 ****        17.2500  11.2500  21.0000 Du        
   6099 ****        17.2500  11.2500  21.2500 Du        
   6100 ****        17.2500  11.2500  21.5000 Du        
   6101 ****        17.2500  11.2500  21.7500 Du        
   6102 ****        17.2500  11.2500  22.0000 Du        
   6103 ****        17.2500  11.5000  21.0000 Du        
   6104 ****        17.2500  11.5000  21.2500 Du        
   6105 ****        17.2500  11.5000  21.5000 Du        
   6106 ****        17.2500  11.5000  21.7500 Du        
   6107 ****        17.2500  11.5000  22.0000 Du        
   6108 ****        17.2500  11.7500  21.5000 Du        
   6109 ****        17.2500  11.7500  21.7500 Du        
   6110 ****        17.2500  11.7500  22.0000 Du        
   6111 ****        17.2500  13.2500  15.0000 Du        
   6112 ****        17.2500  13.2500  15.2500 Du        
   6113 ****        17.2500  13.2500  15.5000 Du        
   6114 ****        17.2500  13.2500  15.7500 Du        
   6115 ****        17.2500  13.2500  16.0000 Du        
   6116 ****        17.2500  13.2500  16.2500 Du        
   6117 ****        17.2500  13.5000  14.2500 Du        
   6118 ****        17.2500  13.5000  14.5000 Du        
   6119 ****        17.2500  13.5000  14.7500 Du        
   6120 ****        17.2500  13.5000  15.0000 Du        
   6121 ****        17.2500  13.5000  15.2500 Du        
   6122 ****        17.2500  13.5000  15.5000 Du        
   6123 ****        17.2500  13.5000  15.7500 Du        
   6124 ****        17.2500  13.5000  16.0000 Du        
   6125 ****        17.2500  13.5000  16.2500 Du        
   6126 ****        17.2500  13.7500  14.2500 Du        
   6127 ****        17.2500  13.7500  14.5000 Du        
   6128 ****        17.2500  13.7500  14.7500 Du        
   6129 ****        17.2500  13.7500  15.0000 Du        
   6130 ****        17.2500  13.7500  15.2500 Du        
   6131 ****        17.2500  13.7500  15.5000 Du        
   6132 ****        17.2500  13.7500  15.7500 Du        
   6133 ****        17.2500  13.7500  16.0000 Du        
   6134 ****        17.2500  13.7500  16.2500 Du        
   6135 ****        17.2500  14.0000  14.0000 Du        
   6136 ****        17.2500  14.0000  14.2500 Du        
   6137 ****        17.2500  14.0000  14.5000 Du        
   6138 ****        17.2500  14.0000  14.7500 Du        
   6139 ****        17.2500  14.0000  15.0000 Du        
   6140 ****        17.2500  14.0000  15.2500 Du        
   6141 ****        17.2500  14.0000  15.5000 Du        
   6142 ****        17.2500  14.0000  15.7500 Du        
   6143 ****        17.2500  14.0000  16.0000 Du        
   6144 ****        17.2500  14.0000  16.2500 Du        
   6145 ****        17.2500  14.2500  14.0000 Du        
   6146 ****        17.2500  14.2500  14.2500 Du        
   6147 ****        17.2500  14.2500  14.5000 Du        
   6148 ****        17.2500  14.2500  14.7500 Du        
   6149 ****        17.2500  14.2500  15.0000 Du        
   6150 ****        17.2500  14.2500  15.2500 Du        
   6151 ****        17.2500  14.2500  15.5000 Du        
   6152 ****        17.2500  14.2500  15.7500 Du        
   6153 ****        17.2500  14.2500  16.0000 Du        
   6154 ****        17.2500  14.2500  16.2500 Du        
   6155 ****        17.2500  14.5000  14.2500 Du        
   6156 ****        17.2500  14.5000  14.5000 Du        
   6157 ****        17.2500  14.5000  14.7500 Du        
   6158 ****        17.2500  14.5000  15.0000 Du        
   6159 ****        17.2500  14.5000  15.2500 Du        
   6160 ****        17.2500  14.5000  15.5000 Du        
   6161 ****        17.2500  14.5000  15.7500 Du        
   6162 ****        17.2500  14.5000  16.0000 Du        
   6163 ****        17.2500  14.7500  14.0000 Du        
   6164 ****        17.2500  14.7500  14.2500 Du        
   6165 ****        17.2500  14.7500  14.5000 Du        
   6166 ****        17.2500  14.7500  14.7500 Du        
   6167 ****        17.2500  14.7500  15.0000 Du        
   6168 ****        17.2500  14.7500  15.2500 Du        
   6169 ****        17.2500  14.7500  15.5000 Du        
   6170 ****        17.2500  14.7500  15.7500 Du        
   6171 ****        17.2500  15.0000  14.0000 Du        
   6172 ****        17.2500  15.0000  14.2500 Du        
   6173 ****        17.2500  15.0000  14.5000 Du        
   6174 ****        17.2500  15.0000  14.7500 Du        
   6175 ****        17.2500  15.0000  15.0000 Du        
   6176 ****        17.2500  15.0000  15.2500 Du        
   6177 ****        17.2500  15.0000  15.5000 Du        
   6178 ****        17.2500  15.2500  14.0000 Du        
   6179 ****        17.2500  15.2500  14.2500 Du        
   6180 ****        17.2500  15.2500  14.5000 Du        
   6181 ****        17.2500  15.2500  14.7500 Du        
   6182 ****        17.2500  15.2500  15.0000 Du        
   6183 ****        17.2500  15.2500  15.2500 Du        
   6184 ****        17.2500  15.5000  14.0000 Du        
   6185 ****        17.2500  15.5000  14.2500 Du        
   6186 ****        17.2500  15.5000  14.5000 Du        
   6187 ****        17.2500  15.5000  14.7500 Du        
   6188 ****        17.2500  15.5000  15.0000 Du        
   6189 ****        17.2500  15.7500  13.7500 Du        
   6190 ****        17.2500  15.7500  14.0000 Du        
   6191 ****        17.2500  15.7500  14.2500 Du        
   6192 ****        17.2500  15.7500  14.5000 Du        
   6193 ****        17.2500  15.7500  14.7500 Du        
   6194 ****        17.2500  16.0000  13.7500 Du        
   6195 ****        17.2500  16.0000  14.0000 Du        
   6196 ****        17.2500  16.0000  14.2500 Du        
   6197 ****        17.2500  16.0000  14.5000 Du        
   6198 ****        17.2500  16.2500  13.5000 Du        
   6199 ****        17.2500  16.2500  13.7500 Du        
   6200 ****        17.2500  16.2500  14.0000 Du        
   6201 ****        17.2500  16.2500  14.2500 Du        
   6202 ****        17.2500  16.5000  13.2500 Du        
   6203 ****        17.2500  16.5000  13.5000 Du        
   6204 ****        17.2500  16.5000  13.7500 Du        
   6205 ****        17.2500  16.5000  14.0000 Du        
   6206 ****        17.2500  16.7500  13.2500 Du        
   6207 ****        17.2500  17.2500  11.0000 Du        
   6208 ****        17.2500  17.2500  11.2500 Du        
   6209 ****        17.2500  17.2500  11.5000 Du        
   6210 ****        17.2500  17.2500  11.7500 Du        
   6211 ****        17.2500  17.5000  11.0000 Du        
   6212 ****        17.2500  17.5000  11.2500 Du        
   6213 ****        17.2500  17.5000  11.5000 Du        
   6214 ****        17.5000  13.2500  15.0000 Du        
   6215 ****        17.5000  13.2500  15.2500 Du        
   6216 ****        17.5000  13.2500  15.5000 Du        
   6217 ****        17.5000  13.2500  15.7500 Du        
   6218 ****        17.5000  13.2500  16.0000 Du        
   6219 ****        17.5000  13.2500  16.2500 Du        
   6220 ****        17.5000  13.2500  16.5000 Du        
   6221 ****        17.5000  13.5000  14.2500 Du        
   6222 ****        17.5000  13.5000  14.5000 Du        
   6223 ****        17.5000  13.5000  14.7500 Du        
   6224 ****        17.5000  13.5000  15.0000 Du        
   6225 ****        17.5000  13.5000  15.2500 Du        
   6226 ****        17.5000  13.5000  15.5000 Du        
   6227 ****        17.5000  13.5000  15.7500 Du        
   6228 ****        17.5000  13.5000  16.0000 Du        
   6229 ****        17.5000  13.5000  16.2500 Du        
   6230 ****        17.5000  13.5000  16.5000 Du        
   6231 ****        17.5000  13.7500  14.2500 Du        
   6232 ****        17.5000  13.7500  14.5000 Du        
   6233 ****        17.5000  13.7500  14.7500 Du        
   6234 ****        17.5000  13.7500  15.0000 Du        
   6235 ****        17.5000  13.7500  15.2500 Du        
   6236 ****        17.5000  13.7500  15.5000 Du        
   6237 ****        17.5000  13.7500  15.7500 Du        
   6238 ****        17.5000  13.7500  16.0000 Du        
   6239 ****        17.5000  13.7500  16.2500 Du        
   6240 ****        17.5000  13.7500  16.5000 Du        
   6241 ****        17.5000  14.0000  14.2500 Du        
   6242 ****        17.5000  14.0000  14.5000 Du        
   6243 ****        17.5000  14.0000  14.7500 Du        
   6244 ****        17.5000  14.0000  15.0000 Du        
   6245 ****        17.5000  14.0000  15.2500 Du        
   6246 ****        17.5000  14.0000  15.5000 Du        
   6247 ****        17.5000  14.0000  15.7500 Du        
   6248 ****        17.5000  14.0000  16.0000 Du        
   6249 ****        17.5000  14.0000  16.2500 Du        
   6250 ****        17.5000  14.2500  14.2500 Du        
   6251 ****        17.5000  14.2500  14.5000 Du        
   6252 ****        17.5000  14.2500  14.7500 Du        
   6253 ****        17.5000  14.2500  15.0000 Du        
   6254 ****        17.5000  14.2500  15.2500 Du        
   6255 ****        17.5000  14.2500  15.5000 Du        
   6256 ****        17.5000  14.2500  15.7500 Du        
   6257 ****        17.5000  14.2500  16.0000 Du        
   6258 ****        17.5000  14.2500  16.2500 Du        
   6259 ****        17.5000  14.5000  14.2500 Du        
   6260 ****        17.5000  14.5000  14.5000 Du        
   6261 ****        17.5000  14.5000  14.7500 Du        
   6262 ****        17.5000  14.5000  15.0000 Du        
   6263 ****        17.5000  14.5000  15.2500 Du        
   6264 ****        17.5000  14.5000  15.5000 Du        
   6265 ****        17.5000  14.5000  15.7500 Du        
   6266 ****        17.5000  14.5000  16.0000 Du        
   6267 ****        17.5000  14.7500  14.2500 Du        
   6268 ****        17.5000  14.7500  14.5000 Du        
   6269 ****        17.5000  14.7500  14.7500 Du        
   6270 ****        17.5000  14.7500  15.0000 Du        
   6271 ****        17.5000  14.7500  15.2500 Du        
   6272 ****        17.5000  14.7500  15.5000 Du        
   6273 ****        17.5000  14.7500  15.7500 Du        
   6274 ****        17.5000  15.0000  14.0000 Du        
   6275 ****        17.5000  15.0000  14.2500 Du        
   6276 ****        17.5000  15.0000  14.5000 Du        
   6277 ****        17.5000  15.0000  14.7500 Du        
   6278 ****        17.5000  15.0000  15.0000 Du        
   6279 ****        17.5000  15.0000  15.2500 Du        
   6280 ****        17.5000  15.0000  15.5000 Du        
   6281 ****        17.5000  15.2500  14.0000 Du        
   6282 ****        17.5000  15.2500  14.2500 Du        
   6283 ****        17.5000  15.2500  14.5000 Du        
   6284 ****        17.5000  15.2500  14.7500 Du        
   6285 ****        17.5000  15.2500  15.0000 Du        
   6286 ****        17.5000  15.2500  15.2500 Du        
   6287 ****        17.5000  15.5000  14.0000 Du        
   6288 ****        17.5000  15.5000  14.2500 Du        
   6289 ****        17.5000  15.5000  14.5000 Du        
   6290 ****        17.5000  15.5000  14.7500 Du        
   6291 ****        17.5000  15.5000  15.0000 Du        
   6292 ****        17.5000  15.7500  14.0000 Du        
   6293 ****        17.5000  15.7500  14.2500 Du        
   6294 ****        17.5000  15.7500  14.5000 Du        
   6295 ****        17.5000  15.7500  14.7500 Du        
   6296 ****        17.5000  16.0000  13.7500 Du        
   6297 ****        17.5000  16.0000  14.0000 Du        
   6298 ****        17.5000  16.0000  14.2500 Du        
   6299 ****        17.5000  16.2500  13.7500 Du        
   6300 ****        17.5000  16.2500  14.0000 Du        
   6301 ****        17.5000  16.5000  13.5000 Du        
   6302 ****        17.5000  16.5000  13.7500 Du        
   6303 ****        17.5000  16.7500  13.2500 Du        
   6304 ****        17.5000  17.2500  11.2500 Du        
   6305 ****        17.5000  17.2500  11.5000 Du        
   6306 ****        17.5000  17.2500  11.7500 Du        
   6307 ****        17.5000  17.2500  12.0000 Du        
   6308 ****        17.5000  17.5000  11.2500 Du        
   6309 ****        17.5000  17.5000  11.5000 Du        
   6310 ****        17.7500  13.2500  14.7500 Du        
   6311 ****        17.7500  13.2500  15.0000 Du        
   6312 ****        17.7500  13.2500  15.2500 Du        
   6313 ****        17.7500  13.2500  15.5000 Du        
   6314 ****        17.7500  13.2500  15.7500 Du        
   6315 ****        17.7500  13.2500  16.0000 Du        
   6316 ****        17.7500  13.2500  16.2500 Du        
   6317 ****        17.7500  13.2500  16.5000 Du        
   6318 ****        17.7500  13.5000  14.5000 Du        
   6319 ****        17.7500  13.5000  14.7500 Du        
   6320 ****        17.7500  13.5000  15.0000 Du        
   6321 ****        17.7500  13.5000  15.2500 Du        
   6322 ****        17.7500  13.5000  15.5000 Du        
   6323 ****        17.7500  13.5000  15.7500 Du        
   6324 ****        17.7500  13.5000  16.0000 Du        
   6325 ****        17.7500  13.5000  16.2500 Du        
   6326 ****        17.7500  13.5000  16.5000 Du        
   6327 ****        17.7500  13.7500  14.2500 Du        
   6328 ****        17.7500  13.7500  14.5000 Du        
   6329 ****        17.7500  13.7500  14.7500 Du        
   6330 ****        17.7500  13.7500  15.0000 Du        
   6331 ****        17.7500  13.7500  15.2500 Du        
   6332 ****        17.7500  13.7500  15.5000 Du        
   6333 ****        17.7500  13.7500  15.7500 Du        
   6334 ****        17.7500  13.7500  16.0000 Du        
   6335 ****        17.7500  13.7500  16.2500 Du        
   6336 ****        17.7500  14.0000  14.2500 Du        
   6337 ****        17.7500  14.0000  14.5000 Du        
   6338 ****        17.7500  14.0000  14.7500 Du        
   6339 ****        17.7500  14.0000  15.0000 Du        
   6340 ****        17.7500  14.0000  15.2500 Du        
   6341 ****        17.7500  14.0000  15.5000 Du        
   6342 ****        17.7500  14.0000  15.7500 Du        
   6343 ****        17.7500  14.0000  16.0000 Du        
   6344 ****        17.7500  14.0000  16.2500 Du        
   6345 ****        17.7500  14.2500  14.2500 Du        
   6346 ****        17.7500  14.2500  14.5000 Du        
   6347 ****        17.7500  14.2500  14.7500 Du        
   6348 ****        17.7500  14.2500  15.0000 Du        
   6349 ****        17.7500  14.2500  15.2500 Du        
   6350 ****        17.7500  14.2500  15.5000 Du        
   6351 ****        17.7500  14.2500  15.7500 Du        
   6352 ****        17.7500  14.2500  16.0000 Du        
   6353 ****        17.7500  14.2500  16.2500 Du        
   6354 ****        17.7500  14.5000  14.2500 Du        
   6355 ****        17.7500  14.5000  14.5000 Du        
   6356 ****        17.7500  14.5000  14.7500 Du        
   6357 ****        17.7500  14.5000  15.0000 Du        
   6358 ****        17.7500  14.5000  15.2500 Du        
   6359 ****        17.7500  14.5000  15.5000 Du        
   6360 ****        17.7500  14.5000  15.7500 Du        
   6361 ****        17.7500  14.5000  16.0000 Du        
   6362 ****        17.7500  14.7500  14.2500 Du        
   6363 ****        17.7500  14.7500  14.5000 Du        
   6364 ****        17.7500  14.7500  14.7500 Du        
   6365 ****        17.7500  14.7500  15.0000 Du        
   6366 ****        17.7500  14.7500  15.2500 Du        
   6367 ****        17.7500  14.7500  15.5000 Du        
   6368 ****        17.7500  14.7500  15.7500 Du        
   6369 ****        17.7500  15.0000  14.2500 Du        
   6370 ****        17.7500  15.0000  14.5000 Du        
   6371 ****        17.7500  15.0000  14.7500 Du        
   6372 ****        17.7500  15.0000  15.0000 Du        
   6373 ****        17.7500  15.0000  15.2500 Du        
   6374 ****        17.7500  15.0000  15.5000 Du        
   6375 ****        17.7500  15.2500  14.2500 Du        
   6376 ****        17.7500  15.2500  14.5000 Du        
   6377 ****        17.7500  15.2500  14.7500 Du        
   6378 ****        17.7500  15.2500  15.0000 Du        
   6379 ****        17.7500  15.2500  15.2500 Du        
   6380 ****        17.7500  15.5000  14.0000 Du        
   6381 ****        17.7500  15.5000  14.2500 Du        
   6382 ****        17.7500  15.5000  14.5000 Du        
   6383 ****        17.7500  15.5000  14.7500 Du        
   6384 ****        17.7500  15.7500  14.0000 Du        
   6385 ****        17.7500  15.7500  14.2500 Du        
   6386 ****        17.7500  15.7500  14.5000 Du        
   6387 ****        17.7500  16.0000  14.0000 Du        
   6388 ****        17.7500  16.0000  14.2500 Du        
   6389 ****        17.7500  16.2500  13.7500 Du        
   6390 ****        17.7500  16.2500  14.0000 Du        
   6391 ****        17.7500  16.5000  13.5000 Du        
   6392 ****        17.7500  16.5000  13.7500 Du        
   6393 ****        17.7500  16.7500  13.0000 Du        
   6394 ****        17.7500  16.7500  13.2500 Du        
   6395 ****        17.7500  16.7500  13.5000 Du        
   6396 ****        17.7500  17.0000  12.5000 Du        
   6397 ****        17.7500  17.0000  12.7500 Du        
   6398 ****        17.7500  17.0000  13.0000 Du        
   6399 ****        17.7500  17.2500  11.5000 Du        
   6400 ****        17.7500  17.2500  11.7500 Du        
   6401 ****        17.7500  17.2500  12.0000 Du        
   6402 ****        17.7500  17.2500  12.2500 Du        
   6403 ****        17.7500  17.5000  11.2500 Du        
   6404 ****        17.7500  17.5000  11.5000 Du        
   6405 ****        17.7500  17.5000  11.7500 Du        
   6406 ****        17.7500  17.5000  12.0000 Du        
   6407 ****        18.0000  13.2500  14.7500 Du        
   6408 ****        18.0000  13.2500  15.0000 Du        
   6409 ****        18.0000  13.2500  15.2500 Du        
   6410 ****        18.0000  13.2500  15.5000 Du        
   6411 ****        18.0000  13.2500  15.7500 Du        
   6412 ****        18.0000  13.2500  16.0000 Du        
   6413 ****        18.0000  13.2500  16.2500 Du        
   6414 ****        18.0000  13.5000  14.5000 Du        
   6415 ****        18.0000  13.5000  14.7500 Du        
   6416 ****        18.0000  13.5000  15.0000 Du        
   6417 ****        18.0000  13.5000  15.2500 Du        
   6418 ****        18.0000  13.5000  15.5000 Du        
   6419 ****        18.0000  13.5000  15.7500 Du        
   6420 ****        18.0000  13.5000  16.0000 Du        
   6421 ****        18.0000  13.5000  16.2500 Du        
   6422 ****        18.0000  13.7500  14.5000 Du        
   6423 ****        18.0000  13.7500  14.7500 Du        
   6424 ****        18.0000  13.7500  15.0000 Du        
   6425 ****        18.0000  13.7500  15.2500 Du        
   6426 ****        18.0000  13.7500  15.5000 Du        
   6427 ****        18.0000  13.7500  15.7500 Du        
   6428 ****        18.0000  13.7500  16.0000 Du        
   6429 ****        18.0000  13.7500  16.2500 Du        
   6430 ****        18.0000  14.0000  14.2500 Du        
   6431 ****        18.0000  14.0000  14.5000 Du        
   6432 ****        18.0000  14.0000  14.7500 Du        
   6433 ****        18.0000  14.0000  15.0000 Du        
   6434 ****        18.0000  14.0000  15.2500 Du        
   6435 ****        18.0000  14.0000  15.5000 Du        
   6436 ****        18.0000  14.0000  15.7500 Du        
   6437 ****        18.0000  14.0000  16.0000 Du        
   6438 ****        18.0000  14.0000  16.2500 Du        
   6439 ****        18.0000  14.2500  14.2500 Du        
   6440 ****        18.0000  14.2500  14.5000 Du        
   6441 ****        18.0000  14.2500  14.7500 Du        
   6442 ****        18.0000  14.2500  15.0000 Du        
   6443 ****        18.0000  14.2500  15.2500 Du        
   6444 ****        18.0000  14.2500  15.5000 Du        
   6445 ****        18.0000  14.2500  15.7500 Du        
   6446 ****        18.0000  14.2500  16.0000 Du        
   6447 ****        18.0000  14.5000  14.2500 Du        
   6448 ****        18.0000  14.5000  14.5000 Du        
   6449 ****        18.0000  14.5000  14.7500 Du        
   6450 ****        18.0000  14.5000  15.0000 Du        
   6451 ****        18.0000  14.5000  15.2500 Du        
   6452 ****        18.0000  14.5000  15.5000 Du        
   6453 ****        18.0000  14.5000  15.7500 Du        
   6454 ****        18.0000  14.5000  16.0000 Du        
   6455 ****        18.0000  14.7500  14.2500 Du        
   6456 ****        18.0000  14.7500  14.5000 Du        
   6457 ****        18.0000  14.7500  14.7500 Du        
   6458 ****        18.0000  14.7500  15.0000 Du        
   6459 ****        18.0000  14.7500  15.2500 Du        
   6460 ****        18.0000  14.7500  15.5000 Du        
   6461 ****        18.0000  14.7500  15.7500 Du        
   6462 ****        18.0000  15.0000  14.2500 Du        
   6463 ****        18.0000  15.0000  14.5000 Du        
   6464 ****        18.0000  15.0000  14.7500 Du        
   6465 ****        18.0000  15.0000  15.0000 Du        
   6466 ****        18.0000  15.0000  15.2500 Du        
   6467 ****        18.0000  15.0000  15.5000 Du        
   6468 ****        18.0000  15.2500  14.2500 Du        
   6469 ****        18.0000  15.2500  14.5000 Du        
   6470 ****        18.0000  15.2500  14.7500 Du        
   6471 ****        18.0000  15.2500  15.0000 Du        
   6472 ****        18.0000  15.2500  15.2500 Du        
   6473 ****        18.0000  15.5000  14.2500 Du        
   6474 ****        18.0000  15.5000  14.5000 Du        
   6475 ****        18.0000  15.5000  14.7500 Du        
   6476 ****        18.0000  15.7500  14.2500 Du        
   6477 ****        18.0000  15.7500  14.5000 Du        
   6478 ****        18.0000  16.0000  14.0000 Du        
   6479 ****        18.0000  16.0000  14.2500 Du        
   6480 ****        18.0000  16.2500  13.7500 Du        
   6481 ****        18.0000  16.2500  14.0000 Du        
   6482 ****        18.0000  16.5000  13.7500 Du        
   6483 ****        18.0000  16.7500  13.0000 Du        
   6484 ****        18.0000  16.7500  13.2500 Du        
   6485 ****        18.0000  16.7500  13.5000 Du        
   6486 ****        18.0000  16.7500  13.7500 Du        
   6487 ****        18.0000  17.0000  12.2500 Du        
   6488 ****        18.0000  17.0000  12.5000 Du        
   6489 ****        18.0000  17.0000  12.7500 Du        
   6490 ****        18.0000  17.0000  13.0000 Du        
   6491 ****        18.0000  17.0000  13.2500 Du        
   6492 ****        18.0000  17.0000  13.5000 Du        
   6493 ****        18.0000  17.2500  11.5000 Du        
   6494 ****        18.0000  17.2500  11.7500 Du        
   6495 ****        18.0000  17.2500  12.0000 Du        
   6496 ****        18.0000  17.2500  12.2500 Du        
   6497 ****        18.0000  17.2500  12.5000 Du        
   6498 ****        18.0000  17.2500  12.7500 Du        
   6499 ****        18.0000  17.2500  13.0000 Du        
   6500 ****        18.0000  17.5000  11.5000 Du        
   6501 ****        18.0000  17.5000  11.7500 Du        
   6502 ****        18.0000  17.5000  12.0000 Du        
   6503 ****        18.0000  17.5000  12.2500 Du        
   6504 ****        18.0000  17.5000  12.5000 Du        
   6505 ****        18.0000  17.7500  11.5000 Du        
   6506 ****        18.0000  17.7500  11.7500 Du        
   6507 ****        18.0000  17.7500  12.0000 Du        
   6508 ****        18.2500  13.2500  14.7500 Du        
   6509 ****        18.2500  13.2500  15.0000 Du        
   6510 ****        18.2500  13.2500  15.2500 Du        
   6511 ****        18.2500  13.2500  15.5000 Du        
   6512 ****        18.2500  13.2500  15.7500 Du        
   6513 ****        18.2500  13.2500  16.0000 Du        
   6514 ****        18.2500  13.5000  14.5000 Du        
   6515 ****        18.2500  13.5000  14.7500 Du        
   6516 ****        18.2500  13.5000  15.0000 Du        
   6517 ****        18.2500  13.5000  15.2500 Du        
   6518 ****        18.2500  13.5000  15.5000 Du        
   6519 ****        18.2500  13.5000  15.7500 Du        
   6520 ****        18.2500  13.5000  16.0000 Du        
   6521 ****        18.2500  13.5000  16.2500 Du        
   6522 ****        18.2500  13.7500  14.5000 Du        
   6523 ****        18.2500  13.7500  14.7500 Du        
   6524 ****        18.2500  13.7500  15.0000 Du        
   6525 ****        18.2500  13.7500  15.2500 Du        
   6526 ****        18.2500  13.7500  15.5000 Du        
   6527 ****        18.2500  13.7500  15.7500 Du        
   6528 ****        18.2500  13.7500  16.0000 Du        
   6529 ****        18.2500  13.7500  16.2500 Du        
   6530 ****        18.2500  14.0000  14.5000 Du        
   6531 ****        18.2500  14.0000  14.7500 Du        
   6532 ****        18.2500  14.0000  15.0000 Du        
   6533 ****        18.2500  14.0000  15.2500 Du        
   6534 ****        18.2500  14.0000  15.5000 Du        
   6535 ****        18.2500  14.0000  15.7500 Du        
   6536 ****        18.2500  14.0000  16.0000 Du        
   6537 ****        18.2500  14.0000  16.2500 Du        
   6538 ****        18.2500  14.2500  14.5000 Du        
   6539 ****        18.2500  14.2500  14.7500 Du        
   6540 ****        18.2500  14.2500  15.0000 Du        
   6541 ****        18.2500  14.2500  15.2500 Du        
   6542 ****        18.2500  14.2500  15.5000 Du        
   6543 ****        18.2500  14.2500  15.7500 Du        
   6544 ****        18.2500  14.2500  16.0000 Du        
   6545 ****        18.2500  14.5000  14.5000 Du        
   6546 ****        18.2500  14.5000  14.7500 Du        
   6547 ****        18.2500  14.5000  15.0000 Du        
   6548 ****        18.2500  14.5000  15.2500 Du        
   6549 ****        18.2500  14.5000  15.5000 Du        
   6550 ****        18.2500  14.5000  15.7500 Du        
   6551 ****        18.2500  14.5000  16.0000 Du        
   6552 ****        18.2500  14.7500  14.5000 Du        
   6553 ****        18.2500  14.7500  14.7500 Du        
   6554 ****        18.2500  14.7500  15.0000 Du        
   6555 ****        18.2500  14.7500  15.2500 Du        
   6556 ****        18.2500  14.7500  15.5000 Du        
   6557 ****        18.2500  14.7500  15.7500 Du        
   6558 ****        18.2500  15.0000  14.5000 Du        
   6559 ****        18.2500  15.0000  14.7500 Du        
   6560 ****        18.2500  15.0000  15.0000 Du        
   6561 ****        18.2500  15.0000  15.2500 Du        
   6562 ****        18.2500  15.0000  15.5000 Du        
   6563 ****        18.2500  15.2500  14.2500 Du        
   6564 ****        18.2500  15.2500  14.5000 Du        
   6565 ****        18.2500  15.2500  14.7500 Du        
   6566 ****        18.2500  15.2500  15.0000 Du        
   6567 ****        18.2500  15.5000  14.5000 Du        
   6568 ****        18.2500  16.5000  13.7500 Du        
   6569 ****        18.2500  16.7500  13.2500 Du        
   6570 ****        18.2500  16.7500  13.5000 Du        
   6571 ****        18.2500  16.7500  13.7500 Du        
   6572 ****        18.2500  17.0000  12.0000 Du        
   6573 ****        18.2500  17.0000  12.2500 Du        
   6574 ****        18.2500  17.0000  12.5000 Du        
   6575 ****        18.2500  17.0000  12.7500 Du        
   6576 ****        18.2500  17.0000  13.0000 Du        
   6577 ****        18.2500  17.0000  13.2500 Du        
   6578 ****        18.2500  17.0000  13.5000 Du        
   6579 ****        18.2500  17.2500  11.5000 Du        
   6580 ****        18.2500  17.2500  11.7500 Du        
   6581 ****        18.2500  17.2500  12.0000 Du        
   6582 ****        18.2500  17.2500  12.2500 Du        
   6583 ****        18.2500  17.2500  12.5000 Du        
   6584 ****        18.2500  17.2500  12.7500 Du        
   6585 ****        18.2500  17.2500  13.0000 Du        
   6586 ****        18.2500  17.2500  13.2500 Du        
   6587 ****        18.2500  17.5000  11.5000 Du        
   6588 ****        18.2500  17.5000  11.7500 Du        
   6589 ****        18.2500  17.5000  12.0000 Du        
   6590 ****        18.2500  17.5000  12.2500 Du        
   6591 ****        18.2500  17.5000  12.5000 Du        
   6592 ****        18.2500  17.5000  12.7500 Du        
   6593 ****        18.2500  17.5000  13.0000 Du        
   6594 ****        18.2500  17.7500  11.5000 Du        
   6595 ****        18.2500  17.7500  11.7500 Du        
   6596 ****        18.2500  17.7500  12.0000 Du        
   6597 ****        18.2500  17.7500  12.2500 Du        
   6598 ****        18.2500  17.7500  12.5000 Du        
   6599 ****        18.2500  18.0000  11.7500 Du        
   6600 ****        18.2500  18.0000  12.0000 Du        
   6601 ****        18.2500  18.0000  12.2500 Du        
   6602 ****        18.2500  18.2500  11.7500 Du        
   6603 ****        18.5000  13.2500  15.0000 Du        
   6604 ****        18.5000  13.2500  15.2500 Du        
   6605 ****        18.5000  13.2500  15.5000 Du        
   6606 ****        18.5000  13.2500  15.7500 Du        
   6607 ****        18.5000  13.5000  14.7500 Du        
   6608 ****        18.5000  13.5000  15.0000 Du        
   6609 ****        18.5000  13.5000  15.2500 Du        
   6610 ****        18.5000  13.5000  15.5000 Du        
   6611 ****        18.5000  13.5000  15.7500 Du        
   6612 ****        18.5000  13.5000  16.0000 Du        
   6613 ****        18.5000  13.7500  14.5000 Du        
   6614 ****        18.5000  13.7500  14.7500 Du        
   6615 ****        18.5000  13.7500  15.0000 Du        
   6616 ****        18.5000  13.7500  15.2500 Du        
   6617 ****        18.5000  13.7500  15.5000 Du        
   6618 ****        18.5000  13.7500  15.7500 Du        
   6619 ****        18.5000  13.7500  16.0000 Du        
   6620 ****        18.5000  14.0000  14.5000 Du        
   6621 ****        18.5000  14.0000  14.7500 Du        
   6622 ****        18.5000  14.0000  15.0000 Du        
   6623 ****        18.5000  14.0000  15.2500 Du        
   6624 ****        18.5000  14.0000  15.5000 Du        
   6625 ****        18.5000  14.0000  15.7500 Du        
   6626 ****        18.5000  14.0000  16.0000 Du        
   6627 ****        18.5000  14.2500  14.5000 Du        
   6628 ****        18.5000  14.2500  14.7500 Du        
   6629 ****        18.5000  14.2500  15.0000 Du        
   6630 ****        18.5000  14.2500  15.2500 Du        
   6631 ****        18.5000  14.2500  15.5000 Du        
   6632 ****        18.5000  14.2500  15.7500 Du        
   6633 ****        18.5000  14.2500  16.0000 Du        
   6634 ****        18.5000  14.5000  14.5000 Du        
   6635 ****        18.5000  14.5000  14.7500 Du        
   6636 ****        18.5000  14.5000  15.0000 Du        
   6637 ****        18.5000  14.5000  15.2500 Du        
   6638 ****        18.5000  14.5000  15.5000 Du        
   6639 ****        18.5000  14.5000  15.7500 Du        
   6640 ****        18.5000  14.5000  16.0000 Du        
   6641 ****        18.5000  14.7500  14.5000 Du        
   6642 ****        18.5000  14.7500  14.7500 Du        
   6643 ****        18.5000  14.7500  15.0000 Du        
   6644 ****        18.5000  14.7500  15.2500 Du        
   6645 ****        18.5000  14.7500  15.5000 Du        
   6646 ****        18.5000  14.7500  15.7500 Du        
   6647 ****        18.5000  15.0000  14.5000 Du        
   6648 ****        18.5000  15.0000  14.7500 Du        
   6649 ****        18.5000  15.0000  15.0000 Du        
   6650 ****        18.5000  15.0000  15.2500 Du        
   6651 ****        18.5000  15.0000  15.5000 Du        
   6652 ****        18.5000  15.2500  14.5000 Du        
   6653 ****        18.5000  15.2500  14.7500 Du        
   6654 ****        18.5000  15.2500  15.0000 Du        
   6655 ****        18.5000  15.5000  14.5000 Du        
   6656 ****        18.5000  16.7500  13.2500 Du        
   6657 ****        18.5000  16.7500  13.5000 Du        
   6658 ****        18.5000  16.7500  13.7500 Du        
   6659 ****        18.5000  17.0000  12.2500 Du        
   6660 ****        18.5000  17.0000  12.5000 Du        
   6661 ****        18.5000  17.0000  12.7500 Du        
   6662 ****        18.5000  17.0000  13.0000 Du        
   6663 ****        18.5000  17.0000  13.2500 Du        
   6664 ****        18.5000  17.0000  13.5000 Du        
   6665 ****        18.5000  17.2500  11.7500 Du        
   6666 ****        18.5000  17.2500  12.0000 Du        
   6667 ****        18.5000  17.2500  12.2500 Du        
   6668 ****        18.5000  17.2500  12.5000 Du        
   6669 ****        18.5000  17.2500  12.7500 Du        
   6670 ****        18.5000  17.2500  13.0000 Du        
   6671 ****        18.5000  17.2500  13.2500 Du        
   6672 ****        18.5000  17.2500  13.5000 Du        
   6673 ****        18.5000  17.5000  11.7500 Du        
   6674 ****        18.5000  17.5000  12.0000 Du        
   6675 ****        18.5000  17.5000  12.2500 Du        
   6676 ****        18.5000  17.5000  12.5000 Du        
   6677 ****        18.5000  17.5000  12.7500 Du        
   6678 ****        18.5000  17.5000  13.0000 Du        
   6679 ****        18.5000  17.5000  13.2500 Du        
   6680 ****        18.5000  17.7500  11.7500 Du        
   6681 ****        18.5000  17.7500  12.0000 Du        
   6682 ****        18.5000  17.7500  12.2500 Du        
   6683 ****        18.5000  17.7500  12.5000 Du        
   6684 ****        18.5000  17.7500  12.7500 Du        
   6685 ****        18.5000  17.7500  13.0000 Du        
   6686 ****        18.5000  18.0000  11.7500 Du        
   6687 ****        18.5000  18.0000  12.0000 Du        
   6688 ****        18.5000  18.0000  12.2500 Du        
   6689 ****        18.5000  18.0000  12.5000 Du        
   6690 ****        18.5000  18.0000  12.7500 Du        
   6691 ****        18.5000  18.2500  11.7500 Du        
   6692 ****        18.5000  18.2500  12.0000 Du        
   6693 ****        18.5000  18.2500  12.2500 Du        
   6694 ****        18.5000  18.5000  12.0000 Du        
   6695 ****        18.7500  13.5000  14.7500 Du        
   6696 ****        18.7500  13.5000  15.0000 Du        
   6697 ****        18.7500  13.5000  15.2500 Du        
   6698 ****        18.7500  13.5000  15.5000 Du        
   6699 ****        18.7500  13.5000  15.7500 Du        
   6700 ****        18.7500  13.7500  14.7500 Du        
   6701 ****        18.7500  13.7500  15.0000 Du        
   6702 ****        18.7500  13.7500  15.2500 Du        
   6703 ****        18.7500  13.7500  15.5000 Du        
   6704 ****        18.7500  13.7500  15.7500 Du        
   6705 ****        18.7500  13.7500  16.0000 Du        
   6706 ****        18.7500  14.0000  14.7500 Du        
   6707 ****        18.7500  14.0000  15.0000 Du        
   6708 ****        18.7500  14.0000  15.2500 Du        
   6709 ****        18.7500  14.0000  15.5000 Du        
   6710 ****        18.7500  14.0000  15.7500 Du        
   6711 ****        18.7500  14.0000  16.0000 Du        
   6712 ****        18.7500  14.2500  14.7500 Du        
   6713 ****        18.7500  14.2500  15.0000 Du        
   6714 ****        18.7500  14.2500  15.2500 Du        
   6715 ****        18.7500  14.2500  15.5000 Du        
   6716 ****        18.7500  14.2500  15.7500 Du        
   6717 ****        18.7500  14.2500  16.0000 Du        
   6718 ****        18.7500  14.5000  14.7500 Du        
   6719 ****        18.7500  14.5000  15.0000 Du        
   6720 ****        18.7500  14.5000  15.2500 Du        
   6721 ****        18.7500  14.5000  15.5000 Du        
   6722 ****        18.7500  14.5000  15.7500 Du        
   6723 ****        18.7500  14.5000  16.0000 Du        
   6724 ****        18.7500  14.7500  14.7500 Du        
   6725 ****        18.7500  14.7500  15.0000 Du        
   6726 ****        18.7500  14.7500  15.2500 Du        
   6727 ****        18.7500  14.7500  15.5000 Du        
   6728 ****        18.7500  14.7500  15.7500 Du        
   6729 ****        18.7500  15.0000  14.7500 Du        
   6730 ****        18.7500  15.0000  15.0000 Du        
   6731 ****        18.7500  15.0000  15.2500 Du        
   6732 ****        18.7500  15.0000  15.5000 Du        
   6733 ****        18.7500  15.2500  14.7500 Du        
   6734 ****        18.7500  15.2500  15.0000 Du        
   6735 ****        18.7500  15.2500  15.2500 Du        
   6736 ****        18.7500  16.7500  13.5000 Du        
   6737 ****        18.7500  16.7500  13.7500 Du        
   6738 ****        18.7500  17.0000  12.7500 Du        
   6739 ****        18.7500  17.0000  13.0000 Du        
   6740 ****        18.7500  17.0000  13.2500 Du        
   6741 ****        18.7500  17.0000  13.5000 Du        
   6742 ****        18.7500  17.0000  13.7500 Du        
   6743 ****        18.7500  17.2500  11.7500 Du        
   6744 ****        18.7500  17.2500  12.0000 Du        
   6745 ****        18.7500  17.2500  12.2500 Du        
   6746 ****        18.7500  17.2500  12.5000 Du        
   6747 ****        18.7500  17.2500  12.7500 Du        
   6748 ****        18.7500  17.2500  13.0000 Du        
   6749 ****        18.7500  17.2500  13.2500 Du        
   6750 ****        18.7500  17.2500  13.5000 Du        
   6751 ****        18.7500  17.2500  13.7500 Du        
   6752 ****        18.7500  17.5000  11.7500 Du        
   6753 ****        18.7500  17.5000  12.0000 Du        
   6754 ****        18.7500  17.5000  12.2500 Du        
   6755 ****        18.7500  17.5000  12.5000 Du        
   6756 ****        18.7500  17.5000  12.7500 Du        
   6757 ****        18.7500  17.5000  13.0000 Du        
   6758 ****        18.7500  17.5000  13.2500 Du        
   6759 ****        18.7500  17.5000  13.5000 Du        
   6760 ****        18.7500  17.7500  11.7500 Du        
   6761 ****        18.7500  17.7500  12.0000 Du        
   6762 ****        18.7500  17.7500  12.2500 Du        
   6763 ****        18.7500  17.7500  12.5000 Du        
   6764 ****        18.7500  17.7500  12.7500 Du        
   6765 ****        18.7500  17.7500  13.0000 Du        
   6766 ****        18.7500  17.7500  13.2500 Du        
   6767 ****        18.7500  18.0000  11.7500 Du        
   6768 ****        18.7500  18.0000  12.0000 Du        
   6769 ****        18.7500  18.0000  12.2500 Du        
   6770 ****        18.7500  18.0000  12.5000 Du        
   6771 ****        18.7500  18.0000  12.7500 Du        
   6772 ****        18.7500  18.0000  13.0000 Du        
   6773 ****        18.7500  18.2500  11.7500 Du        
   6774 ****        18.7500  18.2500  12.0000 Du        
   6775 ****        18.7500  18.2500  12.2500 Du        
   6776 ****        18.7500  18.2500  12.5000 Du        
   6777 ****        18.7500  18.2500  12.7500 Du        
   6778 ****        18.7500  18.5000  12.0000 Du        
   6779 ****        18.7500  18.5000  12.2500 Du        
   6780 ****        18.7500  18.5000  12.5000 Du        
   6781 ****        18.7500  18.7500  12.0000 Du        
   6782 ****        18.7500  18.7500  12.2500 Du        
   6783 ****        19.0000  13.7500  15.0000 Du        
   6784 ****        19.0000  13.7500  15.2500 Du        
   6785 ****        19.0000  13.7500  15.5000 Du        
   6786 ****        19.0000  13.7500  15.7500 Du        
   6787 ****        19.0000  14.0000  14.7500 Du        
   6788 ****        19.0000  14.0000  15.0000 Du        
   6789 ****        19.0000  14.0000  15.2500 Du        
   6790 ****        19.0000  14.0000  15.5000 Du        
   6791 ****        19.0000  14.0000  15.7500 Du        
   6792 ****        19.0000  14.0000  16.0000 Du        
   6793 ****        19.0000  14.2500  14.7500 Du        
   6794 ****        19.0000  14.2500  15.0000 Du        
   6795 ****        19.0000  14.2500  15.2500 Du        
   6796 ****        19.0000  14.2500  15.5000 Du        
   6797 ****        19.0000  14.2500  15.7500 Du        
   6798 ****        19.0000  14.2500  16.0000 Du        
   6799 ****        19.0000  14.5000  14.7500 Du        
   6800 ****        19.0000  14.5000  15.0000 Du        
   6801 ****        19.0000  14.5000  15.2500 Du        
   6802 ****        19.0000  14.5000  15.5000 Du        
   6803 ****        19.0000  14.5000  15.7500 Du        
   6804 ****        19.0000  14.7500  14.7500 Du        
   6805 ****        19.0000  14.7500  15.0000 Du        
   6806 ****        19.0000  14.7500  15.2500 Du        
   6807 ****        19.0000  14.7500  15.5000 Du        
   6808 ****        19.0000  14.7500  15.7500 Du        
   6809 ****        19.0000  15.0000  14.7500 Du        
   6810 ****        19.0000  15.0000  15.0000 Du        
   6811 ****        19.0000  15.0000  15.2500 Du        
   6812 ****        19.0000  15.0000  15.5000 Du        
   6813 ****        19.0000  15.0000  15.7500 Du        
   6814 ****        19.0000  15.2500  14.7500 Du        
   6815 ****        19.0000  15.2500  15.0000 Du        
   6816 ****        19.0000  15.2500  15.2500 Du        
   6817 ****        19.0000  16.7500  13.7500 Du        
   6818 ****        19.0000  17.0000  13.0000 Du        
   6819 ****        19.0000  17.0000  13.2500 Du        
   6820 ****        19.0000  17.0000  13.5000 Du        
   6821 ****        19.0000  17.0000  13.7500 Du        
   6822 ****        19.0000  17.2500  11.7500 Du        
   6823 ****        19.0000  17.2500  12.0000 Du        
   6824 ****        19.0000  17.2500  12.2500 Du        
   6825 ****        19.0000  17.2500  12.5000 Du        
   6826 ****        19.0000  17.2500  12.7500 Du        
   6827 ****        19.0000  17.2500  13.0000 Du        
   6828 ****        19.0000  17.2500  13.2500 Du        
   6829 ****        19.0000  17.2500  13.5000 Du        
   6830 ****        19.0000  17.2500  13.7500 Du        
   6831 ****        19.0000  17.5000  11.7500 Du        
   6832 ****        19.0000  17.5000  12.0000 Du        
   6833 ****        19.0000  17.5000  12.2500 Du        
   6834 ****        19.0000  17.5000  12.5000 Du        
   6835 ****        19.0000  17.5000  12.7500 Du        
   6836 ****        19.0000  17.5000  13.0000 Du        
   6837 ****        19.0000  17.5000  13.2500 Du        
   6838 ****        19.0000  17.5000  13.5000 Du        
   6839 ****        19.0000  17.5000  13.7500 Du        
   6840 ****        19.0000  17.7500  11.7500 Du        
   6841 ****        19.0000  17.7500  12.0000 Du        
   6842 ****        19.0000  17.7500  12.2500 Du        
   6843 ****        19.0000  17.7500  12.5000 Du        
   6844 ****        19.0000  17.7500  12.7500 Du        
   6845 ****        19.0000  17.7500  13.0000 Du        
   6846 ****        19.0000  17.7500  13.2500 Du        
   6847 ****        19.0000  17.7500  13.5000 Du        
   6848 ****        19.0000  18.0000  11.7500 Du        
   6849 ****        19.0000  18.0000  12.0000 Du        
   6850 ****        19.0000  18.0000  12.2500 Du        
   6851 ****        19.0000  18.0000  12.5000 Du        
   6852 ****        19.0000  18.0000  12.7500 Du        
   6853 ****        19.0000  18.0000  13.0000 Du        
   6854 ****        19.0000  18.0000  13.2500 Du        
   6855 ****        19.0000  18.2500  11.7500 Du        
   6856 ****        19.0000  18.2500  12.0000 Du        
   6857 ****        19.0000  18.2500  12.2500 Du        
   6858 ****        19.0000  18.2500  12.5000 Du        
   6859 ****        19.0000  18.2500  12.7500 Du        
   6860 ****        19.0000  18.2500  13.0000 Du        
   6861 ****        19.0000  18.5000  12.0000 Du        
   6862 ****        19.0000  18.5000  12.2500 Du        
   6863 ****        19.0000  18.5000  12.5000 Du        
   6864 ****        19.0000  18.5000  12.7500 Du        
   6865 ****        19.0000  18.5000  13.0000 Du        
   6866 ****        19.0000  18.7500  12.0000 Du        
   6867 ****        19.0000  18.7500  12.2500 Du        
   6868 ****        19.0000  18.7500  12.5000 Du        
   6869 ****        19.0000  18.7500  12.7500 Du        
   6870 ****        19.0000  19.0000  12.0000 Du        
   6871 ****        19.0000  19.0000  12.2500 Du        
   6872 ****        19.0000  19.0000  12.5000 Du        
   6873 ****        19.0000  19.2500  12.2500 Du        
   6874 ****        19.2500  14.0000  15.0000 Du        
   6875 ****        19.2500  14.0000  15.2500 Du        
   6876 ****        19.2500  14.0000  15.5000 Du        
   6877 ****        19.2500  14.0000  15.7500 Du        
   6878 ****        19.2500  14.2500  15.0000 Du        
   6879 ****        19.2500  14.2500  15.2500 Du        
   6880 ****        19.2500  14.2500  15.5000 Du        
   6881 ****        19.2500  14.2500  15.7500 Du        
   6882 ****        19.2500  14.5000  15.0000 Du        
   6883 ****        19.2500  14.5000  15.2500 Du        
   6884 ****        19.2500  14.5000  15.5000 Du        
   6885 ****        19.2500  14.5000  15.7500 Du        
   6886 ****        19.2500  14.7500  14.7500 Du        
   6887 ****        19.2500  14.7500  15.0000 Du        
   6888 ****        19.2500  14.7500  15.2500 Du        
   6889 ****        19.2500  14.7500  15.5000 Du        
   6890 ****        19.2500  14.7500  15.7500 Du        
   6891 ****        19.2500  15.0000  14.7500 Du        
   6892 ****        19.2500  15.0000  15.0000 Du        
   6893 ****        19.2500  15.0000  15.2500 Du        
   6894 ****        19.2500  15.0000  15.5000 Du        
   6895 ****        19.2500  15.0000  15.7500 Du        
   6896 ****        19.2500  15.2500  14.7500 Du        
   6897 ****        19.2500  15.2500  15.0000 Du        
   6898 ****        19.2500  15.2500  15.2500 Du        
   6899 ****        19.2500  17.0000  13.5000 Du        
   6900 ****        19.2500  17.0000  13.7500 Du        
   6901 ****        19.2500  17.2500  12.0000 Du        
   6902 ****        19.2500  17.2500  12.2500 Du        
   6903 ****        19.2500  17.2500  12.5000 Du        
   6904 ****        19.2500  17.2500  12.7500 Du        
   6905 ****        19.2500  17.2500  13.0000 Du        
   6906 ****        19.2500  17.2500  13.2500 Du        
   6907 ****        19.2500  17.2500  13.5000 Du        
   6908 ****        19.2500  17.2500  13.7500 Du        
   6909 ****        19.2500  17.5000  11.7500 Du        
   6910 ****        19.2500  17.5000  12.0000 Du        
   6911 ****        19.2500  17.5000  12.2500 Du        
   6912 ****        19.2500  17.5000  12.5000 Du        
   6913 ****        19.2500  17.5000  12.7500 Du        
   6914 ****        19.2500  17.5000  13.0000 Du        
   6915 ****        19.2500  17.5000  13.2500 Du        
   6916 ****        19.2500  17.5000  13.5000 Du        
   6917 ****        19.2500  17.5000  13.7500 Du        
   6918 ****        19.2500  17.7500  11.7500 Du        
   6919 ****        19.2500  17.7500  12.0000 Du        
   6920 ****        19.2500  17.7500  12.2500 Du        
   6921 ****        19.2500  17.7500  12.5000 Du        
   6922 ****        19.2500  17.7500  12.7500 Du        
   6923 ****        19.2500  17.7500  13.0000 Du        
   6924 ****        19.2500  17.7500  13.2500 Du        
   6925 ****        19.2500  17.7500  13.5000 Du        
   6926 ****        19.2500  17.7500  13.7500 Du        
   6927 ****        19.2500  18.0000  11.7500 Du        
   6928 ****        19.2500  18.0000  12.0000 Du        
   6929 ****        19.2500  18.0000  12.2500 Du        
   6930 ****        19.2500  18.0000  12.5000 Du        
   6931 ****        19.2500  18.0000  12.7500 Du        
   6932 ****        19.2500  18.0000  13.0000 Du        
   6933 ****        19.2500  18.0000  13.2500 Du        
   6934 ****        19.2500  18.0000  13.5000 Du        
   6935 ****        19.2500  18.2500  11.7500 Du        
   6936 ****        19.2500  18.2500  12.0000 Du        
   6937 ****        19.2500  18.2500  12.2500 Du        
   6938 ****        19.2500  18.2500  12.5000 Du        
   6939 ****        19.2500  18.2500  12.7500 Du        
   6940 ****        19.2500  18.2500  13.0000 Du        
   6941 ****        19.2500  18.2500  13.2500 Du        
   6942 ****        19.2500  18.2500  13.5000 Du        
   6943 ****        19.2500  18.5000  12.0000 Du        
   6944 ****        19.2500  18.5000  12.2500 Du        
   6945 ****        19.2500  18.5000  12.5000 Du        
   6946 ****        19.2500  18.5000  12.7500 Du        
   6947 ****        19.2500  18.5000  13.0000 Du        
   6948 ****        19.2500  18.5000  13.2500 Du        
   6949 ****        19.2500  18.7500  12.0000 Du        
   6950 ****        19.2500  18.7500  12.2500 Du        
   6951 ****        19.2500  18.7500  12.5000 Du        
   6952 ****        19.2500  18.7500  12.7500 Du        
   6953 ****        19.2500  18.7500  13.0000 Du        
   6954 ****        19.2500  19.0000  12.0000 Du        
   6955 ****        19.2500  19.0000  12.2500 Du        
   6956 ****        19.2500  19.0000  12.5000 Du        
   6957 ****        19.2500  19.0000  12.7500 Du        
   6958 ****        19.2500  19.2500  12.2500 Du        
   6959 ****        19.2500  19.2500  12.5000 Du        
   6960 ****        19.5000  14.2500  15.0000 Du        
   6961 ****        19.5000  14.2500  15.2500 Du        
   6962 ****        19.5000  14.2500  15.5000 Du        
   6963 ****        19.5000  14.2500  15.7500 Du        
   6964 ****        19.5000  14.5000  15.0000 Du        
   6965 ****        19.5000  14.5000  15.2500 Du        
   6966 ****        19.5000  14.5000  15.5000 Du        
   6967 ****        19.5000  14.5000  15.7500 Du        
   6968 ****        19.5000  14.7500  15.0000 Du        
   6969 ****        19.5000  14.7500  15.2500 Du        
   6970 ****        19.5000  14.7500  15.5000 Du        
   6971 ****        19.5000  14.7500  15.7500 Du        
   6972 ****        19.5000  15.0000  15.0000 Du        
   6973 ****        19.5000  15.0000  15.2500 Du        
   6974 ****        19.5000  15.0000  15.5000 Du        
   6975 ****        19.5000  15.0000  15.7500 Du        
   6976 ****        19.5000  15.2500  15.0000 Du        
   6977 ****        19.5000  15.2500  15.2500 Du        
   6978 ****        19.5000  15.2500  15.5000 Du        
   6979 ****        19.5000  15.5000  15.0000 Du        
   6980 ****        19.5000  17.0000  13.5000 Du        
   6981 ****        19.5000  17.0000  13.7500 Du        
   6982 ****        19.5000  17.0000  14.0000 Du        
   6983 ****        19.5000  17.2500  13.0000 Du        
   6984 ****        19.5000  17.2500  13.2500 Du        
   6985 ****        19.5000  17.2500  13.5000 Du        
   6986 ****        19.5000  17.2500  13.7500 Du        
   6987 ****        19.5000  17.2500  14.0000 Du        
   6988 ****        19.5000  17.5000  12.0000 Du        
   6989 ****        19.5000  17.5000  12.2500 Du        
   6990 ****        19.5000  17.5000  12.5000 Du        
   6991 ****        19.5000  17.5000  12.7500 Du        
   6992 ****        19.5000  17.5000  13.0000 Du        
   6993 ****        19.5000  17.5000  13.2500 Du        
   6994 ****        19.5000  17.5000  13.5000 Du        
   6995 ****        19.5000  17.5000  13.7500 Du        
   6996 ****        19.5000  17.5000  14.0000 Du        
   6997 ****        19.5000  17.7500  12.0000 Du        
   6998 ****        19.5000  17.7500  12.2500 Du        
   6999 ****        19.5000  17.7500  12.5000 Du        
   7000 ****        19.5000  17.7500  12.7500 Du        
   7001 ****        19.5000  17.7500  13.0000 Du        
   7002 ****        19.5000  17.7500  13.2500 Du        
   7003 ****        19.5000  17.7500  13.5000 Du        
   7004 ****        19.5000  17.7500  13.7500 Du        
   7005 ****        19.5000  17.7500  14.0000 Du        
   7006 ****        19.5000  18.0000  12.0000 Du        
   7007 ****        19.5000  18.0000  12.2500 Du        
   7008 ****        19.5000  18.0000  12.5000 Du        
   7009 ****        19.5000  18.0000  12.7500 Du        
   7010 ****        19.5000  18.0000  13.0000 Du        
   7011 ****        19.5000  18.0000  13.2500 Du        
   7012 ****        19.5000  18.0000  13.5000 Du        
   7013 ****        19.5000  18.0000  13.7500 Du        
   7014 ****        19.5000  18.2500  12.0000 Du        
   7015 ****        19.5000  18.2500  12.2500 Du        
   7016 ****        19.5000  18.2500  12.5000 Du        
   7017 ****        19.5000  18.2500  12.7500 Du        
   7018 ****        19.5000  18.2500  13.0000 Du        
   7019 ****        19.5000  18.2500  13.2500 Du        
   7020 ****        19.5000  18.2500  13.5000 Du        
   7021 ****        19.5000  18.2500  13.7500 Du        
   7022 ****        19.5000  18.5000  12.0000 Du        
   7023 ****        19.5000  18.5000  12.2500 Du        
   7024 ****        19.5000  18.5000  12.5000 Du        
   7025 ****        19.5000  18.5000  12.7500 Du        
   7026 ****        19.5000  18.5000  13.0000 Du        
   7027 ****        19.5000  18.5000  13.2500 Du        
   7028 ****        19.5000  18.5000  13.5000 Du        
   7029 ****        19.5000  18.7500  12.0000 Du        
   7030 ****        19.5000  18.7500  12.2500 Du        
   7031 ****        19.5000  18.7500  12.5000 Du        
   7032 ****        19.5000  18.7500  12.7500 Du        
   7033 ****        19.5000  18.7500  13.0000 Du        
   7034 ****        19.5000  18.7500  13.2500 Du        
   7035 ****        19.5000  19.0000  12.0000 Du        
   7036 ****        19.5000  19.0000  12.2500 Du        
   7037 ****        19.5000  19.0000  12.5000 Du        
   7038 ****        19.5000  19.0000  12.7500 Du        
   7039 ****        19.5000  19.0000  13.0000 Du        
   7040 ****        19.5000  19.0000  13.2500 Du        
   7041 ****        19.5000  19.2500  12.2500 Du        
   7042 ****        19.5000  19.2500  12.5000 Du        
   7043 ****        19.5000  19.2500  12.7500 Du        
   7044 ****        19.5000  19.2500  13.0000 Du        
   7045 ****        19.7500  14.2500  15.5000 Du        
   7046 ****        19.7500  14.2500  15.7500 Du        
   7047 ****        19.7500  14.5000  15.0000 Du        
   7048 ****        19.7500  14.5000  15.2500 Du        
   7049 ****        19.7500  14.5000  15.5000 Du        
   7050 ****        19.7500  14.5000  15.7500 Du        
   7051 ****        19.7500  14.7500  15.0000 Du        
   7052 ****        19.7500  14.7500  15.2500 Du        
   7053 ****        19.7500  14.7500  15.5000 Du        
   7054 ****        19.7500  14.7500  15.7500 Du        
   7055 ****        19.7500  14.7500  16.0000 Du        
   7056 ****        19.7500  15.0000  15.0000 Du        
   7057 ****        19.7500  15.0000  15.2500 Du        
   7058 ****        19.7500  15.0000  15.5000 Du        
   7059 ****        19.7500  15.0000  15.7500 Du        
   7060 ****        19.7500  15.2500  15.0000 Du        
   7061 ****        19.7500  15.2500  15.2500 Du        
   7062 ****        19.7500  15.2500  15.5000 Du        
   7063 ****        19.7500  15.2500  15.7500 Du        
   7064 ****        19.7500  15.5000  15.0000 Du        
   7065 ****        19.7500  15.5000  15.2500 Du        
   7066 ****        19.7500  15.7500  15.0000 Du        
   7067 ****        19.7500  16.7500  14.0000 Du        
   7068 ****        19.7500  17.0000  13.7500 Du        
   7069 ****        19.7500  17.0000  14.0000 Du        
   7070 ****        19.7500  17.2500  13.5000 Du        
   7071 ****        19.7500  17.2500  13.7500 Du        
   7072 ****        19.7500  17.2500  14.0000 Du        
   7073 ****        19.7500  17.5000  13.0000 Du        
   7074 ****        19.7500  17.5000  13.2500 Du        
   7075 ****        19.7500  17.5000  13.5000 Du        
   7076 ****        19.7500  17.5000  13.7500 Du        
   7077 ****        19.7500  17.5000  14.0000 Du        
   7078 ****        19.7500  17.7500  12.2500 Du        
   7079 ****        19.7500  17.7500  12.5000 Du        
   7080 ****        19.7500  17.7500  12.7500 Du        
   7081 ****        19.7500  17.7500  13.0000 Du        
   7082 ****        19.7500  17.7500  13.2500 Du        
   7083 ****        19.7500  17.7500  13.5000 Du        
   7084 ****        19.7500  17.7500  13.7500 Du        
   7085 ****        19.7500  17.7500  14.0000 Du        
   7086 ****        19.7500  18.0000  12.2500 Du        
   7087 ****        19.7500  18.0000  12.5000 Du        
   7088 ****        19.7500  18.0000  12.7500 Du        
   7089 ****        19.7500  18.0000  13.0000 Du        
   7090 ****        19.7500  18.0000  13.2500 Du        
   7091 ****        19.7500  18.0000  13.5000 Du        
   7092 ****        19.7500  18.0000  13.7500 Du        
   7093 ****        19.7500  18.0000  14.0000 Du        
   7094 ****        19.7500  18.2500  12.0000 Du        
   7095 ****        19.7500  18.2500  12.2500 Du        
   7096 ****        19.7500  18.2500  12.5000 Du        
   7097 ****        19.7500  18.2500  12.7500 Du        
   7098 ****        19.7500  18.2500  13.0000 Du        
   7099 ****        19.7500  18.2500  13.2500 Du        
   7100 ****        19.7500  18.2500  13.5000 Du        
   7101 ****        19.7500  18.2500  13.7500 Du        
   7102 ****        19.7500  18.2500  14.0000 Du        
   7103 ****        19.7500  18.5000  12.0000 Du        
   7104 ****        19.7500  18.5000  12.2500 Du        
   7105 ****        19.7500  18.5000  12.5000 Du        
   7106 ****        19.7500  18.5000  12.7500 Du        
   7107 ****        19.7500  18.5000  13.0000 Du        
   7108 ****        19.7500  18.5000  13.2500 Du        
   7109 ****        19.7500  18.5000  13.5000 Du        
   7110 ****        19.7500  18.5000  13.7500 Du        
   7111 ****        19.7500  18.5000  14.0000 Du        
   7112 ****        19.7500  18.7500  12.2500 Du        
   7113 ****        19.7500  18.7500  12.5000 Du        
   7114 ****        19.7500  18.7500  12.7500 Du        
   7115 ****        19.7500  18.7500  13.0000 Du        
   7116 ****        19.7500  18.7500  13.2500 Du        
   7117 ****        19.7500  18.7500  13.5000 Du        
   7118 ****        19.7500  18.7500  13.7500 Du        
   7119 ****        19.7500  19.0000  12.2500 Du        
   7120 ****        19.7500  19.0000  12.5000 Du        
   7121 ****        19.7500  19.0000  12.7500 Du        
   7122 ****        19.7500  19.0000  13.0000 Du        
   7123 ****        19.7500  19.0000  13.2500 Du        
   7124 ****        19.7500  19.0000  13.5000 Du        
   7125 ****        19.7500  19.2500  12.2500 Du        
   7126 ****        19.7500  19.2500  12.5000 Du        
   7127 ****        19.7500  19.2500  12.7500 Du        
   7128 ****        19.7500  19.2500  13.0000 Du        
   7129 ****        19.7500  19.2500  13.2500 Du        
   7130 ****        19.7500  19.5000  12.5000 Du        
   7131 ****        20.0000  14.5000  15.2500 Du        
   7132 ****        20.0000  14.5000  15.5000 Du        
   7133 ****        20.0000  14.7500  15.0000 Du        
   7134 ****        20.0000  14.7500  15.2500 Du        
   7135 ****        20.0000  14.7500  15.5000 Du        
   7136 ****        20.0000  14.7500  15.7500 Du        
   7137 ****        20.0000  15.0000  15.0000 Du        
   7138 ****        20.0000  15.0000  15.2500 Du        
   7139 ****        20.0000  15.0000  15.5000 Du        
   7140 ****        20.0000  15.0000  15.7500 Du        
   7141 ****        20.0000  15.0000  16.0000 Du        
   7142 ****        20.0000  15.2500  15.0000 Du        
   7143 ****        20.0000  15.2500  15.2500 Du        
   7144 ****        20.0000  15.2500  15.5000 Du        
   7145 ****        20.0000  15.2500  15.7500 Du        
   7146 ****        20.0000  15.5000  15.0000 Du        
   7147 ****        20.0000  15.5000  15.2500 Du        
   7148 ****        20.0000  15.5000  15.5000 Du        
   7149 ****        20.0000  15.7500  14.7500 Du        
   7150 ****        20.0000  15.7500  15.0000 Du        
   7151 ****        20.0000  15.7500  15.2500 Du        
   7152 ****        20.0000  16.0000  14.7500 Du        
   7153 ****        20.0000  16.0000  15.0000 Du        
   7154 ****        20.0000  16.7500  14.2500 Du        
   7155 ****        20.0000  17.0000  14.0000 Du        
   7156 ****        20.0000  17.0000  14.2500 Du        
   7157 ****        20.0000  17.2500  13.7500 Du        
   7158 ****        20.0000  17.2500  14.0000 Du        
   7159 ****        20.0000  17.2500  14.2500 Du        
   7160 ****        20.0000  17.5000  13.7500 Du        
   7161 ****        20.0000  17.5000  14.0000 Du        
   7162 ****        20.0000  17.5000  14.2500 Du        
   7163 ****        20.0000  17.7500  13.2500 Du        
   7164 ****        20.0000  17.7500  13.5000 Du        
   7165 ****        20.0000  17.7500  13.7500 Du        
   7166 ****        20.0000  17.7500  14.0000 Du        
   7167 ****        20.0000  17.7500  14.2500 Du        
   7168 ****        20.0000  18.0000  13.0000 Du        
   7169 ****        20.0000  18.0000  13.2500 Du        
   7170 ****        20.0000  18.0000  13.5000 Du        
   7171 ****        20.0000  18.0000  13.7500 Du        
   7172 ****        20.0000  18.0000  14.0000 Du        
   7173 ****        20.0000  18.0000  14.2500 Du        
   7174 ****        20.0000  18.2500  12.7500 Du        
   7175 ****        20.0000  18.2500  13.0000 Du        
   7176 ****        20.0000  18.2500  13.2500 Du        
   7177 ****        20.0000  18.2500  13.5000 Du        
   7178 ****        20.0000  18.2500  13.7500 Du        
   7179 ****        20.0000  18.2500  14.0000 Du        
   7180 ****        20.0000  18.2500  14.2500 Du        
   7181 ****        20.0000  18.5000  12.5000 Du        
   7182 ****        20.0000  18.5000  12.7500 Du        
   7183 ****        20.0000  18.5000  13.0000 Du        
   7184 ****        20.0000  18.5000  13.2500 Du        
   7185 ****        20.0000  18.5000  13.5000 Du        
   7186 ****        20.0000  18.5000  13.7500 Du        
   7187 ****        20.0000  18.5000  14.0000 Du        
   7188 ****        20.0000  18.7500  12.2500 Du        
   7189 ****        20.0000  18.7500  12.5000 Du        
   7190 ****        20.0000  18.7500  12.7500 Du        
   7191 ****        20.0000  18.7500  13.0000 Du        
   7192 ****        20.0000  18.7500  13.2500 Du        
   7193 ****        20.0000  18.7500  13.5000 Du        
   7194 ****        20.0000  18.7500  13.7500 Du        
   7195 ****        20.0000  18.7500  14.0000 Du        
   7196 ****        20.0000  19.0000  12.2500 Du        
   7197 ****        20.0000  19.0000  12.5000 Du        
   7198 ****        20.0000  19.0000  12.7500 Du        
   7199 ****        20.0000  19.0000  13.0000 Du        
   7200 ****        20.0000  19.0000  13.2500 Du        
   7201 ****        20.0000  19.0000  13.5000 Du        
   7202 ****        20.0000  19.0000  13.7500 Du        
   7203 ****        20.0000  19.0000  14.0000 Du        
   7204 ****        20.0000  19.2500  12.5000 Du        
   7205 ****        20.0000  19.2500  12.7500 Du        
   7206 ****        20.0000  19.2500  13.0000 Du        
   7207 ****        20.0000  19.2500  13.2500 Du        
   7208 ****        20.0000  19.2500  13.5000 Du        
   7209 ****        20.0000  19.2500  13.7500 Du        
   7210 ****        20.0000  19.2500  14.0000 Du        
   7211 ****        20.0000  19.5000  12.5000 Du        
   7212 ****        20.0000  19.5000  12.7500 Du        
   7213 ****        20.0000  19.5000  13.0000 Du        
   7214 ****        20.2500  14.7500  15.5000 Du        
   7215 ****        20.2500  14.7500  15.7500 Du        
   7216 ****        20.2500  15.0000  15.0000 Du        
   7217 ****        20.2500  15.0000  15.2500 Du        
   7218 ****        20.2500  15.0000  15.5000 Du        
   7219 ****        20.2500  15.0000  15.7500 Du        
   7220 ****        20.2500  15.0000  16.0000 Du        
   7221 ****        20.2500  15.2500  15.0000 Du        
   7222 ****        20.2500  15.2500  15.2500 Du        
   7223 ****        20.2500  15.2500  15.5000 Du        
   7224 ****        20.2500  15.2500  15.7500 Du        
   7225 ****        20.2500  15.2500  16.0000 Du        
   7226 ****        20.2500  15.5000  15.0000 Du        
   7227 ****        20.2500  15.5000  15.2500 Du        
   7228 ****        20.2500  15.5000  15.5000 Du        
   7229 ****        20.2500  15.5000  15.7500 Du        
   7230 ****        20.2500  15.7500  14.7500 Du        
   7231 ****        20.2500  15.7500  15.0000 Du        
   7232 ****        20.2500  15.7500  15.2500 Du        
   7233 ****        20.2500  15.7500  15.5000 Du        
   7234 ****        20.2500  16.0000  14.7500 Du        
   7235 ****        20.2500  16.0000  15.0000 Du        
   7236 ****        20.2500  16.0000  15.2500 Du        
   7237 ****        20.2500  16.2500  14.7500 Du        
   7238 ****        20.2500  17.0000  14.2500 Du        
   7239 ****        20.2500  17.2500  14.2500 Du        
   7240 ****        20.2500  17.5000  14.0000 Du        
   7241 ****        20.2500  17.5000  14.2500 Du        
   7242 ****        20.2500  17.7500  13.7500 Du        
   7243 ****        20.2500  17.7500  14.0000 Du        
   7244 ****        20.2500  17.7500  14.2500 Du        
   7245 ****        20.2500  18.0000  13.7500 Du        
   7246 ****        20.2500  18.0000  14.0000 Du        
   7247 ****        20.2500  18.0000  14.2500 Du        
   7248 ****        20.2500  18.2500  13.5000 Du        
   7249 ****        20.2500  18.2500  13.7500 Du        
   7250 ****        20.2500  18.2500  14.0000 Du        
   7251 ****        20.2500  18.2500  14.2500 Du        
   7252 ****        20.2500  18.5000  13.2500 Du        
   7253 ****        20.2500  18.5000  13.5000 Du        
   7254 ****        20.2500  18.5000  13.7500 Du        
   7255 ****        20.2500  18.5000  14.0000 Du        
   7256 ****        20.2500  18.5000  14.2500 Du        
   7257 ****        20.2500  18.7500  13.0000 Du        
   7258 ****        20.2500  18.7500  13.2500 Du        
   7259 ****        20.2500  18.7500  13.5000 Du        
   7260 ****        20.2500  18.7500  13.7500 Du        
   7261 ****        20.2500  18.7500  14.0000 Du        
   7262 ****        20.2500  18.7500  14.2500 Du        
   7263 ****        20.2500  19.0000  12.7500 Du        
   7264 ****        20.2500  19.0000  13.0000 Du        
   7265 ****        20.2500  19.0000  13.2500 Du        
   7266 ****        20.2500  19.0000  13.5000 Du        
   7267 ****        20.2500  19.0000  13.7500 Du        
   7268 ****        20.2500  19.0000  14.0000 Du        
   7269 ****        20.2500  19.0000  14.2500 Du        
   7270 ****        20.2500  19.2500  12.7500 Du        
   7271 ****        20.2500  19.2500  13.0000 Du        
   7272 ****        20.2500  19.2500  13.2500 Du        
   7273 ****        20.2500  19.2500  13.5000 Du        
   7274 ****        20.2500  19.2500  13.7500 Du        
   7275 ****        20.2500  19.2500  14.0000 Du        
   7276 ****        20.2500  19.2500  14.2500 Du        
   7277 ****        20.2500  19.5000  12.7500 Du        
   7278 ****        20.2500  19.5000  13.0000 Du        
   7279 ****        20.2500  19.5000  13.2500 Du        
   7280 ****        20.2500  19.5000  13.7500 Du        
   7281 ****        20.5000  15.2500  15.0000 Du        
   7282 ****        20.5000  15.2500  15.2500 Du        
   7283 ****        20.5000  15.2500  15.5000 Du        
   7284 ****        20.5000  15.2500  15.7500 Du        
   7285 ****        20.5000  15.5000  15.0000 Du        
   7286 ****        20.5000  15.5000  15.2500 Du        
   7287 ****        20.5000  15.5000  15.5000 Du        
   7288 ****        20.5000  15.5000  15.7500 Du        
   7289 ****        20.5000  15.5000  16.0000 Du        
   7290 ****        20.5000  15.7500  14.7500 Du        
   7291 ****        20.5000  15.7500  15.0000 Du        
   7292 ****        20.5000  15.7500  15.2500 Du        
   7293 ****        20.5000  15.7500  15.5000 Du        
   7294 ****        20.5000  15.7500  15.7500 Du        
   7295 ****        20.5000  16.0000  14.7500 Du        
   7296 ****        20.5000  16.0000  15.0000 Du        
   7297 ****        20.5000  16.0000  15.2500 Du        
   7298 ****        20.5000  16.0000  15.5000 Du        
   7299 ****        20.5000  16.2500  14.7500 Du        
   7300 ****        20.5000  16.2500  15.0000 Du        
   7301 ****        20.5000  16.2500  15.2500 Du        
   7302 ****        20.5000  16.5000  14.7500 Du        
   7303 ****        20.5000  16.5000  15.0000 Du        
   7304 ****        20.5000  16.7500  14.7500 Du        
   7305 ****        20.5000  17.0000  14.5000 Du        
   7306 ****        20.5000  17.0000  14.7500 Du        
   7307 ****        20.5000  17.2500  14.5000 Du        
   7308 ****        20.5000  17.7500  14.2500 Du        
   7309 ****        20.5000  17.7500  14.5000 Du        
   7310 ****        20.5000  18.0000  14.0000 Du        
   7311 ****        20.5000  18.0000  14.2500 Du        
   7312 ****        20.5000  18.0000  14.5000 Du        
   7313 ****        20.5000  18.2500  13.7500 Du        
   7314 ****        20.5000  18.2500  14.0000 Du        
   7315 ****        20.5000  18.2500  14.2500 Du        
   7316 ****        20.5000  18.2500  14.5000 Du        
   7317 ****        20.5000  18.5000  13.7500 Du        
   7318 ****        20.5000  18.5000  14.0000 Du        
   7319 ****        20.5000  18.5000  14.2500 Du        
   7320 ****        20.5000  18.5000  14.5000 Du        
   7321 ****        20.5000  18.7500  13.5000 Du        
   7322 ****        20.5000  18.7500  13.7500 Du        
   7323 ****        20.5000  18.7500  14.0000 Du        
   7324 ****        20.5000  18.7500  14.2500 Du        
   7325 ****        20.5000  18.7500  14.5000 Du        
   7326 ****        20.5000  19.0000  13.2500 Du        
   7327 ****        20.5000  19.0000  13.5000 Du        
   7328 ****        20.5000  19.0000  13.7500 Du        
   7329 ****        20.5000  19.0000  14.0000 Du        
   7330 ****        20.5000  19.0000  14.2500 Du        
   7331 ****        20.5000  19.0000  14.5000 Du        
   7332 ****        20.5000  19.2500  13.0000 Du        
   7333 ****        20.5000  19.2500  13.2500 Du        
   7334 ****        20.5000  19.2500  13.5000 Du        
   7335 ****        20.5000  19.2500  13.7500 Du        
   7336 ****        20.5000  19.2500  14.0000 Du        
   7337 ****        20.5000  19.2500  14.2500 Du        
   7338 ****        20.5000  19.5000  13.0000 Du        
   7339 ****        20.5000  19.5000  13.2500 Du        
   7340 ****        20.5000  19.5000  13.5000 Du        
   7341 ****        20.5000  19.5000  13.7500 Du        
   7342 ****        20.5000  19.5000  14.0000 Du        
   7343 ****        20.7500  15.5000  15.0000 Du        
   7344 ****        20.7500  15.5000  15.2500 Du        
   7345 ****        20.7500  15.5000  15.5000 Du        
   7346 ****        20.7500  15.5000  15.7500 Du        
   7347 ****        20.7500  15.5000  16.0000 Du        
   7348 ****        20.7500  15.7500  15.0000 Du        
   7349 ****        20.7500  15.7500  15.2500 Du        
   7350 ****        20.7500  15.7500  15.5000 Du        
   7351 ****        20.7500  15.7500  15.7500 Du        
   7352 ****        20.7500  15.7500  16.0000 Du        
   7353 ****        20.7500  16.0000  14.7500 Du        
   7354 ****        20.7500  16.0000  15.0000 Du        
   7355 ****        20.7500  16.0000  15.2500 Du        
   7356 ****        20.7500  16.0000  15.5000 Du        
   7357 ****        20.7500  16.0000  15.7500 Du        
   7358 ****        20.7500  16.2500  14.7500 Du        
   7359 ****        20.7500  16.2500  15.0000 Du        
   7360 ****        20.7500  16.2500  15.2500 Du        
   7361 ****        20.7500  16.2500  15.5000 Du        
   7362 ****        20.7500  16.2500  15.7500 Du        
   7363 ****        20.7500  16.5000  14.7500 Du        
   7364 ****        20.7500  16.5000  15.0000 Du        
   7365 ****        20.7500  16.5000  15.2500 Du        
   7366 ****        20.7500  16.7500  14.7500 Du        
   7367 ****        20.7500  16.7500  15.0000 Du        
   7368 ****        20.7500  16.7500  15.2500 Du        
   7369 ****        20.7500  17.0000  14.7500 Du        
   7370 ****        20.7500  17.0000  15.0000 Du        
   7371 ****        20.7500  17.2500  14.7500 Du        
   7372 ****        20.7500  17.7500  14.5000 Du        
   7373 ****        20.7500  18.0000  14.2500 Du        
   7374 ****        20.7500  18.0000  14.5000 Du        
   7375 ****        20.7500  18.2500  14.2500 Du        
   7376 ****        20.7500  18.2500  14.5000 Du        
   7377 ****        20.7500  18.5000  14.0000 Du        
   7378 ****        20.7500  18.5000  14.2500 Du        
   7379 ****        20.7500  18.5000  14.5000 Du        
   7380 ****        20.7500  18.7500  13.7500 Du        
   7381 ****        20.7500  18.7500  14.0000 Du        
   7382 ****        20.7500  18.7500  14.2500 Du        
   7383 ****        20.7500  18.7500  14.5000 Du        
   7384 ****        20.7500  19.0000  13.7500 Du        
   7385 ****        20.7500  19.0000  14.0000 Du        
   7386 ****        20.7500  19.0000  14.2500 Du        
   7387 ****        20.7500  19.0000  14.5000 Du        
   7388 ****        20.7500  19.2500  13.5000 Du        
   7389 ****        20.7500  19.2500  13.7500 Du        
   7390 ****        20.7500  19.2500  14.0000 Du        
   7391 ****        20.7500  19.2500  14.2500 Du        
   7392 ****        20.7500  19.5000  13.7500 Du        
   7393 ****        21.0000  15.7500  15.0000 Du        
   7394 ****        21.0000  15.7500  15.2500 Du        
   7395 ****        21.0000  15.7500  15.5000 Du        
   7396 ****        21.0000  15.7500  15.7500 Du        
   7397 ****        21.0000  15.7500  16.0000 Du        
   7398 ****        21.0000  16.0000  15.0000 Du        
   7399 ****        21.0000  16.0000  15.2500 Du        
   7400 ****        21.0000  16.0000  15.5000 Du        
   7401 ****        21.0000  16.0000  15.7500 Du        
   7402 ****        21.0000  16.0000  16.0000 Du        
   7403 ****        21.0000  16.2500  15.0000 Du        
   7404 ****        21.0000  16.2500  15.2500 Du        
   7405 ****        21.0000  16.2500  15.5000 Du        
   7406 ****        21.0000  16.2500  15.7500 Du        
   7407 ****        21.0000  16.2500  16.0000 Du        
   7408 ****        21.0000  16.5000  15.0000 Du        
   7409 ****        21.0000  16.5000  15.2500 Du        
   7410 ****        21.0000  16.5000  15.5000 Du        
   7411 ****        21.0000  16.5000  15.7500 Du        
   7412 ****        21.0000  16.7500  15.0000 Du        
   7413 ****        21.0000  16.7500  15.2500 Du        
   7414 ****        21.0000  16.7500  15.5000 Du        
   7415 ****        21.0000  17.0000  15.0000 Du        
   7416 ****        21.0000  17.0000  15.2500 Du        
   7417 ****        21.0000  17.2500  15.0000 Du        
   7418 ****        21.0000  18.5000  14.5000 Du        
   7419 ****        21.0000  18.7500  14.2500 Du        
   7420 ****        21.0000  18.7500  14.5000 Du        
   7421 ****        21.0000  19.0000  14.0000 Du        
   7422 ****        21.0000  19.0000  14.2500 Du        
   7423 ****        21.2500  16.0000  15.2500 Du        
   7424 ****        21.2500  16.0000  15.5000 Du        
   7425 ****        21.2500  16.0000  15.7500 Du        
   7426 ****        21.2500  16.0000  16.0000 Du        
   7427 ****        21.2500  16.2500  15.2500 Du        
   7428 ****        21.2500  16.2500  15.5000 Du        
   7429 ****        21.2500  16.2500  15.7500 Du        
   7430 ****        21.2500  16.2500  16.0000 Du        
   7431 ****        21.2500  16.5000  15.2500 Du        
   7432 ****        21.2500  16.5000  15.5000 Du        
   7433 ****        21.2500  16.5000  15.7500 Du        
   7434 ****        21.2500  16.5000  16.0000 Du        
   7435 ****        21.2500  16.7500  15.2500 Du        
   7436 ****        21.2500  16.7500  15.5000 Du        
   7437 ****        21.2500  16.7500  15.7500 Du        
   7438 ****        21.2500  16.7500  16.0000 Du        
   7439 ****        21.2500  17.0000  15.2500 Du        
   7440 ****        21.2500  17.0000  15.5000 Du        
   7441 ****        21.5000  16.0000  15.7500 Du        
   7442 ****        21.5000  16.0000  16.0000 Du        
   7443 ****        21.5000  16.2500  15.5000 Du        
   7444 ****        21.5000  16.2500  15.7500 Du        
   7445 ****        21.5000  16.2500  16.0000 Du        
   7446 ****        21.5000  16.2500  16.2500 Du        
   7447 ****        21.5000  16.5000  15.5000 Du        
   7448 ****        21.5000  16.5000  15.7500 Du        
   7449 ****        21.5000  16.5000  16.0000 Du        
   7450 ****        21.5000  16.5000  16.2500 Du        
   7451 ****        21.5000  16.7500  15.5000 Du        
   7452 ****        21.5000  16.7500  15.7500 Du        
   7453 ****        21.5000  16.7500  16.0000 Du        
   7454 ****        21.5000  17.0000  15.5000 Du        
   7455 ****        21.7500  16.2500  15.7500 Du        
   7456 ****        21.7500  16.2500  16.0000 Du        
   7457 ****        21.7500  16.5000  15.7500 Du        
   7458 ****        21.7500  16.5000  16.0000 Du        
