#       Name:                CT1002167954
#       Creating user name   hitesit
#       Creation time:       Sun Apr 16 22:50:26 2023


#       File generated by GOLD software.
#

@<TRIPOS>MOLECULE
CT1002167954|ligand_prepared|mol2|1|dock6
    29    30     1
SMALL
NO_CHARGES


@<TRIPOS>ATOM
      1 C1          14.9283  13.4919  13.5714 C.3            1 RES1               0.0000
      2 C2          16.2130  13.6680  14.4065 C.ar           1 RES1               0.0000
      3 C3          14.3282  12.1517  13.9860 C.2            1 RES1               0.0000
      4 C4          14.0453  14.6937  13.8887 C.2            1 RES1               0.0000
      5 C5          15.1736  13.4691  12.0447 C.3            1 RES1               0.0000
      6 C6          17.2240  14.5237  13.9794 C.ar           1 RES1               0.0000
      7 C7          16.4001  12.9847  15.6051 C.ar           1 RES1               0.0000
      8 N8          13.2129  12.1744  14.7705 N.am           1 RES1               0.0000
      9 O9          14.8484  11.0911  13.6623 O.2            1 RES1               0.0000
     10 N10         12.8621  14.4666  14.5416 N.am           1 RES1               0.0000
     11 O11         14.3712  15.8370  13.5939 O.2            1 RES1               0.0000
     12 C12         13.9747  12.9958  11.2381 C.3            1 RES1               0.0000
     13 C13         18.3789  14.6926  14.7250 C.ar           1 RES1               0.0000
     14 C14         17.5560  13.1549  16.3491 C.ar           1 RES1               0.0000
     15 C15         12.4203  13.2649  15.0242 C.2            1 RES1               0.0000
     16 C16         18.5455  14.0088  15.9104 C.ar           1 RES1               0.0000
     17 O17         11.3702  13.1495  15.6496 O.2            1 RES1               0.0000
     18 H18         15.4441  14.4799  11.7154 H              1 RES1               0.0000
     19 H19         16.0240  12.8089  11.8336 H              1 RES1               0.0000
     20 H20         17.1117  15.0685  13.0479 H              1 RES1               0.0000
     21 H21         15.6355  12.3069  15.9691 H              1 RES1               0.0000
     22 H22         12.9433  11.2997  15.2093 H              1 RES1               0.0000
     23 H23         12.2544  15.2676  14.6807 H              1 RES1               0.0000
     24 H24         14.2003  12.9988  10.1738 H              1 RES1               0.0000
     25 H25         13.6938  11.9838  11.5221 H              1 RES1               0.0000
     26 H26         13.1174  13.6448  11.4046 H              1 RES1               0.0000
     27 H27         19.1553  15.3648  14.3748 H              1 RES1               0.0000
     28 H28         17.6831  12.6141  17.2811 H              1 RES1               0.0000
     29 H29         19.4502  14.1415  16.4945 H              1 RES1               0.0000
@<TRIPOS>BOND
    1    1    2 1     
    2    1    3 1     
    3    1    4 1     
    4    1    5 1     
    5    2    6 ar    
    6    2    7 ar    
    7    3    8 1     
    8    3    9 2     
    9    4   10 1     
   10    4   11 2     
   11    5   12 1     
   12    5   18 1     
   13    5   19 1     
   14    6   13 ar    
   15    6   20 1     
   16    7   14 ar    
   17    7   21 1     
   18    8   15 1     
   19    8   22 1     
   20   10   15 1     
   21   10   23 1     
   22   12   24 1     
   23   12   25 1     
   24   12   26 1     
   25   13   16 ar    
   26   13   27 1     
   27   14   16 ar    
   28   14   28 1     
   29   15   17 2     
   30   16   29 1     
@<TRIPOS>SUBSTRUCTURE
      1 RES1           1
@<TRIPOS>SET
DONOR_HYDROGENS      STATIC     ATOMS    <user>   **** ""
2 22 23
ATOM$RED        STATIC     ATOMS    COLORGROUP SYSTEM
2 22 23
@<TRIPOS>COMMENT
> <Gold.Version>
2022.3.0

> <Gold.Id.Protein>
unknown|3mvj_clean|pdb

> <Gold.Protein.RotatedTorsions>
[ 8490 8455 8453 8450 ] final  165.68 input   60.02 | X-H torsion
[ 15484 15454 15453 15451 ] final   89.46 input   59.98 | X-H torsion
[ 5453 5415 5414 5412 ] final  100.11 input   60.02 | X-H torsion
[ 7768 7713 7712 7711 ] final  -88.85 input   60.03 | X-H torsion
[ 7530 7488 7487 7485 ] final   53.70 input   60.03 | X-H torsion

> <Gold.Protein.ActiveResidues>
 THR48   LEU49   GLY50   THR51   GLY52   ARG56   VAL57   MET58   LEU59   TYR69  
 ALA70   MET71   LYS72   GLU91   LEU95   VAL104  LYS105  LEU106  MET118  VAL119 
 MET120  GLU121  TYR122  VAL123  PRO124  GLY125  GLY126  GLU127  PHE129  TYR164 
 LYS168  PRO169  GLU170  ASN171  LEU172  LEU173  ILE174  GLN181  VAL182  THR183 
 ASP184  PHE185  THR324  PHE327  ASP328  TYR330 

> <Gold.Protein.RotatedAtoms>
   26.6020   13.9857   18.9004 H   0  0  0  0  0  0  0  0  0  0  0  0  # atno 5453 bound_to 5415
   10.9233   21.6858   13.5412 H   0  0  0  0  0  0  0  0  0  0  0  0  # atno 7530 bound_to 7488
    7.7547   12.6599   15.2401 H   0  0  0  0  0  0  0  0  0  0  0  0  # atno 7768 bound_to 7713
    6.1803   13.1461   15.4168 H   0  0  0  0  0  0  0  0  0  0  0  0  # atno 7769 bound_to 7713
    6.9491   13.3390   13.9610 H   0  0  0  0  0  0  0  0  0  0  0  0  # atno 7770 bound_to 7713
   15.6105   18.1034   14.6301 H   0  0  0  0  0  0  0  0  0  0  0  0  # atno 8490 bound_to 8455
   15.5577    9.1150   17.2907 H   0  0  0  0  0  0  0  0  0  0  0  0  # atno 15484 bound_to 15454
   14.1811   18.6992   14.1304 LP  0  0  0  0  0  0  0  0  0  0  0  0  # atno 16480 bound_to 8455
   14.9054   19.3134   15.4589 LP  0  0  0  0  0  0  0  0  0  0  0  0  # atno 16481 bound_to 8455
   16.1841    8.6347   18.7134 LP  0  0  0  0  0  0  0  0  0  0  0  0  # atno 16486 bound_to 15454
   14.8230    7.9378   18.1402 LP  0  0  0  0  0  0  0  0  0  0  0  0  # atno 16487 bound_to 15454
   25.0741   14.4276   19.2460 LP  0  0  0  0  0  0  0  0  0  0  0  0  # atno 16508 bound_to 5415
   26.3244   15.1078   20.0464 LP  0  0  0  0  0  0  0  0  0  0  0  0  # atno 16509 bound_to 5415

> <Gold.Score>
     Fitness  S(hb_ext) S(vdw_ext)  S(hb_int)    S(int)      intcor
     32.26       2.00      22.72       0.00      -0.99      -0.77

> <Gold.Goldscore.Fitness>
32.2594

> <Gold.Goldscore.Internal.Vdw>
-1.1306

> <Gold.Goldscore.Internal.Torsion>
-0.6244

> <Gold.Goldscore.External.Vdw>
22.7242

> <Gold.Goldscore.Internal.HBond>
0.0000

> <Gold.Goldscore.External.HBond>
2.0000

> <Gold.Goldscore.Internal.Correction>
-0.7686

> <Gold.Goldscore.Hbonds>
donor molecule, donor type, donor heavy atom, donor atom, acceptor molecule, acceptor atom, score
      L1  H    10    23       P1  7865  1.00

> <Gold.Goldscore.Internal.Vdw.Weighted>
-1.1306

> <Gold.Goldscore.Internal.Torsion.Weighted>
-0.6244

> <Gold.Goldscore.External.Vdw.Weighted>
31.2458

> <Gold.Goldscore.Internal.HBond.Weighted>
0.0000

> <Gold.Goldscore.External.HBond.Weighted>
2.0000

> <Gold.Goldscore.Internal.Correction.Weighted>
-0.7686

> <Gold.Rescore>
     Score     S(PLP)   S(hbond)     S(cho)   S(metal)  DE(clash)   DE(tors)     intcor
     35.66     -35.14       1.03       0.00       0.00       1.38       0.60       ----

> <Gold.PLP.Fitness>
35.6624

> <Gold.PLP.PLP>
-35.1378

> <Gold.PLP.part.hbond>
-2.7554

> <Gold.PLP.part.metal>
0.0000

> <Gold.PLP.part.buried>
-1.8474

> <Gold.PLP.part.nonpolar>
-31.2653

> <Gold.PLP.part.repulsive>
0.6846

> <Gold.PLP.ligand.clash>
1.3817

> <Gold.PLP.ligand.torsion>
0.5992

> <Gold.PLP.Chemscore.Hbond>
1.0349

> <Gold.PLP.Chemscore.CHOScore>
0.0000

> <Gold.PLP.Chemscore.Metal>
0.0000

> <Gold.Chemscore.Hbonds>
donor molecule, donor type, donor heavy atom, donor atom, acceptor molecule, acceptor atom, score
      L1  H    10    23       P1  7865  1.00

> <Gold.PLP.Chemscore.Internal.Correction>
   9.000000E+99

