#       Name:                CT1002167954
#       Creating user name   hitesit
#       Creation time:       Sun Apr 16 22:50:21 2023


#       File generated by GOLD software.
#

@<TRIPOS>MOLECULE
CT1002167954|ligand_prepared|mol2|1|dock2
    29    30     1
SMALL
NO_CHARGES


@<TRIPOS>ATOM
      1 C1          15.6040  14.5683  13.9922 C.3            1 RES1               0.0000
      2 C2          17.0704  14.6200  14.4674 C.ar           1 RES1               0.0000
      3 C3          15.1705  16.0162  13.7821 C.2            1 RES1               0.0000
      4 C4          15.5969  13.7260  12.7214 C.2            1 RES1               0.0000
      5 C5          14.6411  13.9097  15.0074 C.3            1 RES1               0.0000
      6 C6          17.8480  15.7524  14.2446 C.ar           1 RES1               0.0000
      7 C7          17.6576  13.5461  15.1312 C.ar           1 RES1               0.0000
      8 N8          15.0434  16.4576  12.4980 N.am           1 RES1               0.0000
      9 O9          14.9814  16.7704  14.7284 O.2            1 RES1               0.0000
     10 N10         15.2647  14.3432  11.5439 N.am           1 RES1               0.0000
     11 O11         15.8921  12.5373  12.7264 O.2            1 RES1               0.0000
     12 C12         13.1778  13.9818  14.6002 C.3            1 RES1               0.0000
     13 C13         19.1641  15.8104  14.6724 C.ar           1 RES1               0.0000
     14 C14         18.9739  13.6061  15.5579 C.ar           1 RES1               0.0000
     15 C15         15.0175  15.6777  11.3698 C.2            1 RES1               0.0000
     16 C16         19.7278  14.7376  15.3296 C.ar           1 RES1               0.0000
     17 O17         14.7790  16.1677  10.2697 O.2            1 RES1               0.0000
     18 H18         14.9224  12.8564  15.1287 H              1 RES1               0.0000
     19 H19         14.7617  14.4030  15.9797 H              1 RES1               0.0000
     20 H20         17.4224  16.6055  13.7268 H              1 RES1               0.0000
     21 H21         17.0839  12.6452  15.3208 H              1 RES1               0.0000
     22 H22         14.9600  17.4603  12.3641 H              1 RES1               0.0000
     23 H23         15.1950  13.7531  10.7209 H              1 RES1               0.0000
     24 H24         12.5458  13.5053  15.3467 H              1 RES1               0.0000
     25 H25         12.8572  15.0161  14.4950 H              1 RES1               0.0000
     26 H26         13.0170  13.4786  13.6489 H              1 RES1               0.0000
     27 H27         19.7535  16.7027  14.4890 H              1 RES1               0.0000
     28 H28         19.4137  12.7592  16.0743 H              1 RES1               0.0000
     29 H29         20.7586  14.7834  15.6650 H              1 RES1               0.0000
@<TRIPOS>BOND
    1    1    2 1     
    2    1    3 1     
    3    1    4 1     
    4    1    5 1     
    5    2    6 ar    
    6    2    7 ar    
    7    3    8 1     
    8    3    9 2     
    9    4   10 1     
   10    4   11 2     
   11    5   12 1     
   12    5   18 1     
   13    5   19 1     
   14    6   13 ar    
   15    6   20 1     
   16    7   14 ar    
   17    7   21 1     
   18    8   15 1     
   19    8   22 1     
   20   10   15 1     
   21   10   23 1     
   22   12   24 1     
   23   12   25 1     
   24   12   26 1     
   25   13   16 ar    
   26   13   27 1     
   27   14   16 ar    
   28   14   28 1     
   29   15   17 2     
   30   16   29 1     
@<TRIPOS>SUBSTRUCTURE
      1 RES1           1
@<TRIPOS>SET
DONOR_HYDROGENS      STATIC     ATOMS    <user>   **** ""
2 22 23
ATOM$RED        STATIC     ATOMS    COLORGROUP SYSTEM
2 22 23
@<TRIPOS>COMMENT
> <Gold.Version>
2022.3.0

> <Gold.Id.Protein>
unknown|3mvj_clean|pdb

> <Gold.Protein.RotatedTorsions>
[ 8490 8455 8453 8450 ] final   -7.35 input   60.02 | X-H torsion
[ 15484 15454 15453 15451 ] final   73.60 input   59.98 | X-H torsion
[ 5453 5415 5414 5412 ] final  134.25 input   60.02 | X-H torsion
[ 7768 7713 7712 7711 ] final  126.62 input   60.03 | X-H torsion
[ 7530 7488 7487 7485 ] final  -16.49 input   60.03 | X-H torsion

> <Gold.Protein.ActiveResidues>
 THR48   LEU49   GLY50   THR51   GLY52   ARG56   VAL57   MET58   LEU59   TYR69  
 ALA70   MET71   LYS72   GLU91   LEU95   VAL104  LYS105  LEU106  MET118  VAL119 
 MET120  GLU121  TYR122  VAL123  PRO124  GLY125  GLY126  GLU127  PHE129  TYR164 
 LYS168  PRO169  GLU170  ASN171  LEU172  LEU173  ILE174  GLN181  VAL182  THR183 
 ASP184  PHE185  THR324  PHE327  ASP328  TYR330 

> <Gold.Protein.RotatedAtoms>
   26.9011   14.2945   19.2433 H   0  0  0  0  0  0  0  0  0  0  0  0  # atno 5453 bound_to 5415
   10.6375   21.1052   12.6817 H   0  0  0  0  0  0  0  0  0  0  0  0  # atno 7530 bound_to 7488
    6.5732   13.4293   14.0856 H   0  0  0  0  0  0  0  0  0  0  0  0  # atno 7768 bound_to 7713
    7.8681   12.7415   14.8582 H   0  0  0  0  0  0  0  0  0  0  0  0  # atno 7769 bound_to 7713
    6.4440   12.9739   15.6738 H   0  0  0  0  0  0  0  0  0  0  0  0  # atno 7770 bound_to 7713
   14.1470   19.2587   14.7544 H   0  0  0  0  0  0  0  0  0  0  0  0  # atno 8490 bound_to 8455
   15.7695    9.2031   17.4092 H   0  0  0  0  0  0  0  0  0  0  0  0  # atno 15484 bound_to 15454
   15.5648   18.7928   15.4029 LP  0  0  0  0  0  0  0  0  0  0  0  0  # atno 16480 bound_to 8455
   14.9959   18.0559   14.0612 LP  0  0  0  0  0  0  0  0  0  0  0  0  # atno 16481 bound_to 8455
   16.0432    8.4454   18.8227 LP  0  0  0  0  0  0  0  0  0  0  0  0  # atno 16486 bound_to 15454
   14.7506    8.0384   17.9115 LP  0  0  0  0  0  0  0  0  0  0  0  0  # atno 16487 bound_to 15454
   25.3251   14.0758   18.9002 LP  0  0  0  0  0  0  0  0  0  0  0  0  # atno 16508 bound_to 5415
   25.7725   15.1488   20.0470 LP  0  0  0  0  0  0  0  0  0  0  0  0  # atno 16509 bound_to 5415

> <Gold.Score>
     Fitness  S(hb_ext) S(vdw_ext)  S(hb_int)    S(int)      intcor
     41.10       5.99      26.48       0.00      -1.31      -0.77

> <Gold.Goldscore.Fitness>
41.0973

> <Gold.Goldscore.Internal.Vdw>
-1.6585

> <Gold.Goldscore.Internal.Torsion>
-0.4209

> <Gold.Goldscore.External.Vdw>
26.4846

> <Gold.Goldscore.Internal.HBond>
0.0000

> <Gold.Goldscore.External.HBond>
5.9918

> <Gold.Goldscore.Internal.Correction>
-0.7686

> <Gold.Goldscore.Hbonds>
donor molecule, donor type, donor heavy atom, donor atom, acceptor molecule, acceptor atom, score
      P1  H  2793  2837       L1    17  1.00

> <Gold.Goldscore.Internal.Vdw.Weighted>
-1.6585

> <Gold.Goldscore.Internal.Torsion.Weighted>
-0.4209

> <Gold.Goldscore.External.Vdw.Weighted>
36.4163

> <Gold.Goldscore.Internal.HBond.Weighted>
0.0000

> <Gold.Goldscore.External.HBond.Weighted>
5.9918

> <Gold.Goldscore.Internal.Correction.Weighted>
-0.7686

> <Gold.Rescore>
     Score     S(PLP)   S(hbond)     S(cho)   S(metal)  DE(clash)   DE(tors)     intcor
     35.38     -38.54       0.00       0.00       0.00       0.00       1.58       ----

> <Gold.PLP.Fitness>
35.3809

> <Gold.PLP.PLP>
-38.5396

> <Gold.PLP.part.hbond>
-1.3020

> <Gold.PLP.part.metal>
0.0000

> <Gold.PLP.part.buried>
-3.7458

> <Gold.PLP.part.nonpolar>
-34.3134

> <Gold.PLP.part.repulsive>
0.5876

> <Gold.PLP.ligand.clash>
0.0009

> <Gold.PLP.ligand.torsion>
1.5789

> <Gold.PLP.Chemscore.Hbond>
0.0000

> <Gold.PLP.Chemscore.CHOScore>
0.0000

> <Gold.PLP.Chemscore.Metal>
0.0000

> <Gold.Chemscore.Hbonds>
donor molecule, donor type, donor heavy atom, donor atom, acceptor molecule, acceptor atom, score
      P1  H  2793  2837       L1    17  1.00

> <Gold.PLP.Chemscore.Internal.Correction>
   9.000000E+99

