#       Name:                CT1002167954
#       Creating user name   hitesit
#       Creation time:       Sun Apr 16 22:50:22 2023


#       File generated by GOLD software.
#

@<TRIPOS>MOLECULE
CT1002167954|ligand_prepared|mol2|1|dock3
    29    30     1
SMALL
NO_CHARGES


@<TRIPOS>ATOM
      1 C1          16.0775  14.6662  14.1348 C.3            1 RES1               0.0000
      2 C2          15.7363  13.9361  12.8198 C.ar           1 RES1               0.0000
      3 C3          15.7425  13.6953  15.2633 C.2            1 RES1               0.0000
      4 C4          17.5548  15.0334  14.0480 C.2            1 RES1               0.0000
      5 C5          15.2734  15.9691  14.3529 C.3            1 RES1               0.0000
      6 C6          15.6365  14.6403  11.6236 C.ar           1 RES1               0.0000
      7 C7          15.5216  12.5608  12.7867 C.ar           1 RES1               0.0000
      8 N8          16.7826  13.0987  15.9131 N.am           1 RES1               0.0000
      9 O9          14.5828  13.4271  15.5523 O.2            1 RES1               0.0000
     10 N10         18.4179  14.4349  14.9281 N.am           1 RES1               0.0000
     11 O11         17.9815  15.8230  13.2146 O.2            1 RES1               0.0000
     12 C12         13.7956  15.8408  14.0184 C.3            1 RES1               0.0000
     13 C13         15.3360  13.9927  10.4367 C.ar           1 RES1               0.0000
     14 C14         15.2210  11.9152  11.5987 C.ar           1 RES1               0.0000
     15 C15         18.1033  13.4611  15.8364 C.2            1 RES1               0.0000
     16 C16         15.1285  12.6299  10.4233 C.ar           1 RES1               0.0000
     17 O17         18.9453  12.9317  16.5562 O.2            1 RES1               0.0000
     18 H18         15.3728  16.2740  15.4019 H              1 RES1               0.0000
     19 H19         15.7087  16.7610  13.7309 H              1 RES1               0.0000
     20 H20         15.7941  15.7137  11.6150 H              1 RES1               0.0000
     21 H21         15.5882  11.9784  13.6994 H              1 RES1               0.0000
     22 H22         16.5575  12.3101  16.5112 H              1 RES1               0.0000
     23 H23         19.3844  14.7440  14.9039 H              1 RES1               0.0000
     24 H24         13.2784  16.7827  14.1889 H              1 RES1               0.0000
     25 H25         13.6589  15.5631  12.9753 H              1 RES1               0.0000
     26 H26         13.3250  15.0790  14.6364 H              1 RES1               0.0000
     27 H27         15.2630  14.5599   9.5147 H              1 RES1               0.0000
     28 H28         15.0578  10.8426  11.5929 H              1 RES1               0.0000
     29 H29         14.8934  12.1228   9.4934 H              1 RES1               0.0000
@<TRIPOS>BOND
    1    1    2 1     
    2    1    3 1     
    3    1    4 1     
    4    1    5 1     
    5    2    6 ar    
    6    2    7 ar    
    7    3    8 1     
    8    3    9 2     
    9    4   10 1     
   10    4   11 2     
   11    5   12 1     
   12    5   18 1     
   13    5   19 1     
   14    6   13 ar    
   15    6   20 1     
   16    7   14 ar    
   17    7   21 1     
   18    8   15 1     
   19    8   22 1     
   20   10   15 1     
   21   10   23 1     
   22   12   24 1     
   23   12   25 1     
   24   12   26 1     
   25   13   16 ar    
   26   13   27 1     
   27   14   16 ar    
   28   14   28 1     
   29   15   17 2     
   30   16   29 1     
@<TRIPOS>SUBSTRUCTURE
      1 RES1           1
@<TRIPOS>SET
DONOR_HYDROGENS      STATIC     ATOMS    <user>   **** ""
2 22 23
ATOM$RED        STATIC     ATOMS    COLORGROUP SYSTEM
2 22 23
@<TRIPOS>COMMENT
> <Gold.Version>
2022.3.0

> <Gold.Id.Protein>
unknown|3mvj_clean|pdb

> <Gold.Protein.RotatedTorsions>
[ 8490 8455 8453 8450 ] final  -88.92 input   60.02 | X-H torsion
[ 15484 15454 15453 15451 ] final   10.43 input   59.98 | X-H torsion
[ 5453 5415 5414 5412 ] final -168.61 input   60.02 | X-H torsion
[ 7768 7713 7712 7711 ] final  -26.85 input   60.03 | X-H torsion
[ 7530 7488 7487 7485 ] final -102.73 input   60.03 | X-H torsion

> <Gold.Protein.ActiveResidues>
 THR48   LEU49   GLY50   THR51   GLY52   ARG56   VAL57   MET58   LEU59   TYR69  
 ALA70   MET71   LYS72   GLU91   LEU95   VAL104  LYS105  LEU106  MET118  VAL119 
 MET120  GLU121  TYR122  VAL123  PRO124  GLY125  GLY126  GLU127  PHE129  TYR164 
 LYS168  PRO169  GLU170  ASN171  LEU172  LEU173  ILE174  GLN181  VAL182  THR183 
 ASP184  PHE185  THR324  PHE327  ASP328  TYR330 

> <Gold.Protein.RotatedAtoms>
   26.7052   14.9088   19.8655 H   0  0  0  0  0  0  0  0  0  0  0  0  # atno 5453 bound_to 5415
    9.6916   20.3860   13.1550 H   0  0  0  0  0  0  0  0  0  0  0  0  # atno 7530 bound_to 7488
    6.9420   12.7673   15.7868 H   0  0  0  0  0  0  0  0  0  0  0  0  # atno 7768 bound_to 7713
    6.1838   13.4408   14.4759 H   0  0  0  0  0  0  0  0  0  0  0  0  # atno 7769 bound_to 7713
    7.7583   12.9370   14.3545 H   0  0  0  0  0  0  0  0  0  0  0  0  # atno 7770 bound_to 7713
   15.1133   19.2037   15.5019 H   0  0  0  0  0  0  0  0  0  0  0  0  # atno 8490 bound_to 8455
   16.2951    9.0599   18.2242 H   0  0  0  0  0  0  0  0  0  0  0  0  # atno 15484 bound_to 15454
   15.4862   18.0280   14.4405 LP  0  0  0  0  0  0  0  0  0  0  0  0  # atno 16480 bound_to 8455
   14.1011   18.8761   14.2706 LP  0  0  0  0  0  0  0  0  0  0  0  0  # atno 16481 bound_to 8455
   15.2317    7.9073   18.6575 LP  0  0  0  0  0  0  0  0  0  0  0  0  # atno 16486 bound_to 15454
   15.0326    8.7207   17.2557 LP  0  0  0  0  0  0  0  0  0  0  0  0  # atno 16487 bound_to 15454
   26.1846   13.8565   18.7381 LP  0  0  0  0  0  0  0  0  0  0  0  0  # atno 16508 bound_to 5415
   25.1101   14.7500   19.5830 LP  0  0  0  0  0  0  0  0  0  0  0  0  # atno 16509 bound_to 5415

> <Gold.Score>
     Fitness  S(hb_ext) S(vdw_ext)  S(hb_int)    S(int)      intcor
     35.62       0.00      28.09       0.00      -3.00      -0.77

> <Gold.Goldscore.Fitness>
35.6243

> <Gold.Goldscore.Internal.Vdw>
-2.9852

> <Gold.Goldscore.Internal.Torsion>
-0.7791

> <Gold.Goldscore.External.Vdw>
28.0873

> <Gold.Goldscore.Internal.HBond>
0.0000

> <Gold.Goldscore.External.HBond>
0.0000

> <Gold.Goldscore.Internal.Correction>
-0.7686

> <Gold.Goldscore.Internal.Vdw.Weighted>
-2.9852

> <Gold.Goldscore.Internal.Torsion.Weighted>
-0.7791

> <Gold.Goldscore.External.Vdw.Weighted>
38.6200

> <Gold.Goldscore.Internal.HBond.Weighted>
0.0000

> <Gold.Goldscore.External.HBond.Weighted>
0.0000

> <Gold.Goldscore.Internal.Correction.Weighted>
-0.7686

> <Gold.Rescore>
     Score     S(PLP)   S(hbond)     S(cho)   S(metal)  DE(clash)   DE(tors)     intcor
     34.23     -33.88       0.83       0.00       0.00       1.32       0.41       ----

> <Gold.PLP.Fitness>
34.2346

> <Gold.PLP.PLP>
-33.8822

> <Gold.PLP.part.hbond>
-0.9796

> <Gold.PLP.part.metal>
0.0000

> <Gold.PLP.part.buried>
-3.6950

> <Gold.PLP.part.nonpolar>
-32.1277

> <Gold.PLP.part.repulsive>
2.8245

> <Gold.PLP.ligand.clash>
1.3197

> <Gold.PLP.ligand.torsion>
0.4144

> <Gold.PLP.Chemscore.Hbond>
0.8336

> <Gold.PLP.Chemscore.CHOScore>
0.0000

> <Gold.PLP.Chemscore.Metal>
0.0000

> <Gold.Chemscore.Hbonds>
donor molecule, donor type, donor heavy atom, donor atom, acceptor molecule, acceptor atom, score
      L1  H     8    22       P1  5607  0.23

> <Gold.PLP.Chemscore.Internal.Correction>
   9.000000E+99

