#       Name:                CT1002167954
#       Creating user name   hitesit
#       Creation time:       Sun Apr 16 22:50:29 2023


#       File generated by GOLD software.
#

@<TRIPOS>MOLECULE
CT1002167954|ligand_prepared|mol2|1|dock9
    29    30     1
SMALL
NO_CHARGES


@<TRIPOS>ATOM
      1 C1          13.1704  13.2951  14.0311 C.3            1 RES1               0.0000
      2 C2          13.7837  12.7467  12.7266 C.ar           1 RES1               0.0000
      3 C3          11.8960  14.0315  13.6290 C.2            1 RES1               0.0000
      4 C4          12.9334  12.0877  14.9316 C.2            1 RES1               0.0000
      5 C5          14.0901  14.2819  14.7874 C.3            1 RES1               0.0000
      6 C6          15.0585  12.1883  12.7228 C.ar           1 RES1               0.0000
      7 C7          13.0872  12.7898  11.5218 C.ar           1 RES1               0.0000
      8 N8          10.7040  13.4331  13.9132 N.am           1 RES1               0.0000
      9 O9          11.9370  15.1025  13.0360 O.2            1 RES1               0.0000
     10 N10         11.6387  11.7600  15.2386 N.am           1 RES1               0.0000
     11 O11         13.8553  11.4073  15.3644 O.2            1 RES1               0.0000
     12 C12         14.8090  15.2680  13.8803 C.3            1 RES1               0.0000
     13 C13         15.6156  11.6883  11.5575 C.ar           1 RES1               0.0000
     14 C14         13.6463  12.2894  10.3575 C.ar           1 RES1               0.0000
     15 C15         10.5121  12.3595  14.7452 C.2            1 RES1               0.0000
     16 C16         14.9098  11.7381  10.3743 C.ar           1 RES1               0.0000
     17 O17          9.3810  11.9730  15.0253 O.2            1 RES1               0.0000
     18 H18         13.4864  14.8432  15.5111 H              1 RES1               0.0000
     19 H19         14.8382  13.7081  15.3483 H              1 RES1               0.0000
     20 H20         15.6299  12.1427  13.6439 H              1 RES1               0.0000
     21 H21         12.0921  13.2199  11.4846 H              1 RES1               0.0000
     22 H22          9.8789  13.8195  13.4656 H              1 RES1               0.0000
     23 H23         11.5023  10.9986  15.8958 H              1 RES1               0.0000
     24 H24         15.4406  15.9368  14.4613 H              1 RES1               0.0000
     25 H25         15.4386  14.7446  13.1637 H              1 RES1               0.0000
     26 H26         14.0948  15.8730  13.3255 H              1 RES1               0.0000
     27 H27         16.6109  11.2567  11.5758 H              1 RES1               0.0000
     28 H28         13.0875  12.3312   9.4284 H              1 RES1               0.0000
     29 H29         15.3463  11.3460   9.4616 H              1 RES1               0.0000
@<TRIPOS>BOND
    1    1    2 1     
    2    1    3 1     
    3    1    4 1     
    4    1    5 1     
    5    2    6 ar    
    6    2    7 ar    
    7    3    8 1     
    8    3    9 2     
    9    4   10 1     
   10    4   11 2     
   11    5   12 1     
   12    5   18 1     
   13    5   19 1     
   14    6   13 ar    
   15    6   20 1     
   16    7   14 ar    
   17    7   21 1     
   18    8   15 1     
   19    8   22 1     
   20   10   15 1     
   21   10   23 1     
   22   12   24 1     
   23   12   25 1     
   24   12   26 1     
   25   13   16 ar    
   26   13   27 1     
   27   14   16 ar    
   28   14   28 1     
   29   15   17 2     
   30   16   29 1     
@<TRIPOS>SUBSTRUCTURE
      1 RES1           1
@<TRIPOS>SET
DONOR_HYDROGENS      STATIC     ATOMS    <user>   **** ""
2 22 23
ATOM$RED        STATIC     ATOMS    COLORGROUP SYSTEM
2 22 23
@<TRIPOS>COMMENT
> <Gold.Version>
2022.3.0

> <Gold.Id.Protein>
unknown|3mvj_clean|pdb

> <Gold.Protein.RotatedTorsions>
[ 8490 8455 8453 8450 ] final   46.51 input   60.02 | X-H torsion
[ 15484 15454 15453 15451 ] final -101.37 input   59.98 | X-H torsion
[ 5453 5415 5414 5412 ] final  -26.24 input   60.02 | X-H torsion
[ 7768 7713 7712 7711 ] final -101.65 input   60.03 | X-H torsion
[ 7530 7488 7487 7485 ] final -130.27 input   60.03 | X-H torsion

> <Gold.Protein.ActiveResidues>
 THR48   LEU49   GLY50   THR51   GLY52   ARG56   VAL57   MET58   LEU59   TYR69  
 ALA70   MET71   LYS72   GLU91   LEU95   VAL104  LYS105  LEU106  MET118  VAL119 
 MET120  GLU121  TYR122  VAL123  PRO124  GLY125  GLY126  GLU127  PHE129  TYR164 
 LYS168  PRO169  GLU170  ASN171  LEU172  LEU173  ILE174  GLN181  VAL182  THR183 
 ASP184  PHE185  THR324  PHE327  ASP328  TYR330 

> <Gold.Protein.RotatedAtoms>
   25.0680   14.5020   19.3190 H   0  0  0  0  0  0  0  0  0  0  0  0  # atno 5453 bound_to 5415
    9.5553   20.4111   13.5783 H   0  0  0  0  0  0  0  0  0  0  0  0  # atno 7530 bound_to 7488
    7.8334   12.6942   15.0449 H   0  0  0  0  0  0  0  0  0  0  0  0  # atno 7768 bound_to 7713
    6.3028   13.0568   15.5669 H   0  0  0  0  0  0  0  0  0  0  0  0  # atno 7769 bound_to 7713
    6.7479   13.3940   14.0063 H   0  0  0  0  0  0  0  0  0  0  0  0  # atno 7770 bound_to 7713
   14.1931   18.6903   14.1269 H   0  0  0  0  0  0  0  0  0  0  0  0  # atno 8490 bound_to 8455
   15.3417    7.9451   18.7250 H   0  0  0  0  0  0  0  0  0  0  0  0  # atno 15484 bound_to 15454
   14.8935   19.3183   15.4547 LP  0  0  0  0  0  0  0  0  0  0  0  0  # atno 16480 bound_to 8455
   15.6208   18.1031   14.6416 LP  0  0  0  0  0  0  0  0  0  0  0  0  # atno 16481 bound_to 8455
   14.9497    8.6238   17.2992 LP  0  0  0  0  0  0  0  0  0  0  0  0  # atno 16486 bound_to 15454
   16.2750    9.1272   18.1096 LP  0  0  0  0  0  0  0  0  0  0  0  0  # atno 16487 bound_to 15454
   26.4203   15.0755   20.0202 LP  0  0  0  0  0  0  0  0  0  0  0  0  # atno 16508 bound_to 5415
   26.5222   13.9403   18.8508 LP  0  0  0  0  0  0  0  0  0  0  0  0  # atno 16509 bound_to 5415

> <Gold.Score>
     Fitness  S(hb_ext) S(vdw_ext)  S(hb_int)    S(int)      intcor
     37.32       6.00      25.15       0.00      -3.25      -0.77

> <Gold.Goldscore.Fitness>
37.3245

> <Gold.Goldscore.Internal.Vdw>
-3.1468

> <Gold.Goldscore.Internal.Torsion>
-0.8753

> <Gold.Goldscore.External.Vdw>
25.1476

> <Gold.Goldscore.Internal.HBond>
0.0000

> <Gold.Goldscore.External.HBond>
6.0000

> <Gold.Goldscore.Internal.Correction>
-0.7686

> <Gold.Goldscore.Hbonds>
donor molecule, donor type, donor heavy atom, donor atom, acceptor molecule, acceptor atom, score
      P1  H  7713  7768       L1    17  1.00

> <Gold.Goldscore.Internal.Vdw.Weighted>
-3.1468

> <Gold.Goldscore.Internal.Torsion.Weighted>
-0.8753

> <Gold.Goldscore.External.Vdw.Weighted>
34.5780

> <Gold.Goldscore.Internal.HBond.Weighted>
0.0000

> <Gold.Goldscore.External.HBond.Weighted>
6.0000

> <Gold.Goldscore.Internal.Correction.Weighted>
-0.7686

> <Gold.Rescore>
     Score     S(PLP)   S(hbond)     S(cho)   S(metal)  DE(clash)   DE(tors)     intcor
     21.66     -21.57       0.63       0.00       0.00       0.86       0.47       ----

> <Gold.PLP.Fitness>
21.6581

> <Gold.PLP.PLP>
-21.5654

> <Gold.PLP.part.hbond>
-0.6031

> <Gold.PLP.part.metal>
0.0000

> <Gold.PLP.part.buried>
-2.9036

> <Gold.PLP.part.nonpolar>
-26.8592

> <Gold.PLP.part.repulsive>
8.6219

> <Gold.PLP.ligand.clash>
0.8624

> <Gold.PLP.ligand.torsion>
0.4731

> <Gold.PLP.Chemscore.Hbond>
0.6338

> <Gold.PLP.Chemscore.CHOScore>
0.0000

> <Gold.PLP.Chemscore.Metal>
0.0000

> <Gold.Chemscore.Hbonds>
donor molecule, donor type, donor heavy atom, donor atom, acceptor molecule, acceptor atom, score
      P1  H  7713  7768       L1    17  1.00

> <Gold.PLP.Chemscore.Internal.Correction>
   9.000000E+99

