#       Name:                CT1002167954
#       Creating user name   hitesit
#       Creation time:       Sun Apr 16 22:50:27 2023


#       File generated by GOLD software.
#

@<TRIPOS>MOLECULE
CT1002167954|ligand_prepared|mol2|1|dock7
    29    30     1
SMALL
NO_CHARGES


@<TRIPOS>ATOM
      1 C1          15.6625  15.1953  13.9405 C.3            1 RES1               0.0000
      2 C2          16.0750  16.1143  12.7726 C.ar           1 RES1               0.0000
      3 C3          14.4878  15.8816  14.6314 C.2            1 RES1               0.0000
      4 C4          15.3175  13.8459  13.3201 C.2            1 RES1               0.0000
      5 C5          16.7819  14.9695  14.9833 C.3            1 RES1               0.0000
      6 C6          15.1998  16.3562  11.7180 C.ar           1 RES1               0.0000
      7 C7          17.3242  16.7284  12.7372 C.ar           1 RES1               0.0000
      8 N8          13.2453  15.3531  14.4391 N.am           1 RES1               0.0000
      9 O9          14.6440  16.8942  15.3024 O.2            1 RES1               0.0000
     10 N10         14.0175  13.4189  13.3939 N.am           1 RES1               0.0000
     11 O11         16.1563  13.1562  12.7536 O.2            1 RES1               0.0000
     12 C12         16.3774  14.0547  16.1286 C.3            1 RES1               0.0000
     13 C13         15.5591  17.1843  10.6675 C.ar           1 RES1               0.0000
     14 C14         17.6815  17.5559  11.6856 C.ar           1 RES1               0.0000
     15 C15         12.9597  14.1253  13.8982 C.2            1 RES1               0.0000
     16 C16         16.7999  17.7850  10.6508 C.ar           1 RES1               0.0000
     17 O17         11.8095  13.6964  13.8798 O.2            1 RES1               0.0000
     18 H18         17.6540  14.5373  14.4773 H              1 RES1               0.0000
     19 H19         17.0811  15.9408  15.3961 H              1 RES1               0.0000
     20 H20         14.2201  15.8903  11.7126 H              1 RES1               0.0000
     21 H21         18.0344  16.5618  13.5400 H              1 RES1               0.0000
     22 H22         12.4555  15.9236  14.7238 H              1 RES1               0.0000
     23 H23         13.8201  12.4882  13.0401 H              1 RES1               0.0000
     24 H24         17.1987  13.9300  16.8312 H              1 RES1               0.0000
     25 H25         15.5281  14.4666  16.6698 H              1 RES1               0.0000
     26 H26         16.0976  13.0713  15.7564 H              1 RES1               0.0000
     27 H27         14.8621  17.3602   9.8548 H              1 RES1               0.0000
     28 H28         18.6593  18.0261  11.6763 H              1 RES1               0.0000
     29 H29         17.0809  18.4339   9.8279 H              1 RES1               0.0000
@<TRIPOS>BOND
    1    1    2 1     
    2    1    3 1     
    3    1    4 1     
    4    1    5 1     
    5    2    6 ar    
    6    2    7 ar    
    7    3    8 1     
    8    3    9 2     
    9    4   10 1     
   10    4   11 2     
   11    5   12 1     
   12    5   18 1     
   13    5   19 1     
   14    6   13 ar    
   15    6   20 1     
   16    7   14 ar    
   17    7   21 1     
   18    8   15 1     
   19    8   22 1     
   20   10   15 1     
   21   10   23 1     
   22   12   24 1     
   23   12   25 1     
   24   12   26 1     
   25   13   16 ar    
   26   13   27 1     
   27   14   16 ar    
   28   14   28 1     
   29   15   17 2     
   30   16   29 1     
@<TRIPOS>SUBSTRUCTURE
      1 RES1           1
@<TRIPOS>SET
DONOR_HYDROGENS      STATIC     ATOMS    <user>   **** ""
2 22 23
ATOM$RED        STATIC     ATOMS    COLORGROUP SYSTEM
2 22 23
@<TRIPOS>COMMENT
> <Gold.Version>
2022.3.0

> <Gold.Id.Protein>
unknown|3mvj_clean|pdb

> <Gold.Protein.RotatedTorsions>
[ 8490 8455 8453 8450 ] final    9.53 input   60.02 | X-H torsion
[ 15484 15454 15453 15451 ] final   70.87 input   59.98 | X-H torsion
[ 5453 5415 5414 5412 ] final  142.17 input   60.02 | X-H torsion
[ 7768 7713 7712 7711 ] final   54.21 input   60.03 | X-H torsion
[ 7530 7488 7487 7485 ] final  -39.77 input   60.03 | X-H torsion

> <Gold.Protein.ActiveResidues>
 THR48   LEU49   GLY50   THR51   GLY52   ARG56   VAL57   MET58   LEU59   TYR69  
 ALA70   MET71   LYS72   GLU91   LEU95   VAL104  LYS105  LEU106  MET118  VAL119 
 MET120  GLU121  TYR122  VAL123  PRO124  GLY125  GLY126  GLU127  PHE129  TYR164 
 LYS168  PRO169  GLU170  ASN171  LEU172  LEU173  ILE174  GLN181  VAL182  THR183 
 ASP184  PHE185  THR324  PHE327  ASP328  TYR330 

> <Gold.Protein.RotatedAtoms>
   26.9279   14.3814   19.3355 H   0  0  0  0  0  0  0  0  0  0  0  0  # atno 5453 bound_to 5415
   10.3764   20.8387   12.6247 H   0  0  0  0  0  0  0  0  0  0  0  0  # atno 7530 bound_to 7488
    6.0607   13.2916   15.0835 H   0  0  0  0  0  0  0  0  0  0  0  0  # atno 7768 bound_to 7713
    7.3065   13.2065   13.9938 H   0  0  0  0  0  0  0  0  0  0  0  0  # atno 7769 bound_to 7713
    7.5177   12.6469   15.5397 H   0  0  0  0  0  0  0  0  0  0  0  0  # atno 7770 bound_to 7713
   14.0848   19.1122   14.5305 H   0  0  0  0  0  0  0  0  0  0  0  0  # atno 8490 bound_to 8455
   15.8045    9.2135   17.4347 H   0  0  0  0  0  0  0  0  0  0  0  0  # atno 15484 bound_to 15454
   15.3929   18.9910   15.4907 LP  0  0  0  0  0  0  0  0  0  0  0  0  # atno 16480 bound_to 8455
   15.2305   18.0053   14.1990 LP  0  0  0  0  0  0  0  0  0  0  0  0  # atno 16481 bound_to 8455
   16.0146    8.4133   18.8357 LP  0  0  0  0  0  0  0  0  0  0  0  0  # atno 16486 bound_to 15454
   14.7440    8.0600   17.8728 LP  0  0  0  0  0  0  0  0  0  0  0  0  # atno 16487 bound_to 15454
   25.4218   14.0117   18.8411 LP  0  0  0  0  0  0  0  0  0  0  0  0  # atno 16508 bound_to 5415
   25.6488   15.1255   20.0134 LP  0  0  0  0  0  0  0  0  0  0  0  0  # atno 16509 bound_to 5415

> <Gold.Score>
     Fitness  S(hb_ext) S(vdw_ext)  S(hb_int)    S(int)      intcor
     37.32       1.69      25.96       0.00      -0.06      -0.77

> <Gold.Goldscore.Fitness>
37.3217

> <Gold.Goldscore.Internal.Vdw>
-0.4618

> <Gold.Goldscore.Internal.Torsion>
-0.3675

> <Gold.Goldscore.External.Vdw>
25.9569

> <Gold.Goldscore.Internal.HBond>
0.0000

> <Gold.Goldscore.External.HBond>
1.6917

> <Gold.Goldscore.Internal.Correction>
-0.7686

> <Gold.Goldscore.Hbonds>
donor molecule, donor type, donor heavy atom, donor atom, acceptor molecule, acceptor atom, score
      L1  H     8    22       P1  7865  0.85

> <Gold.Goldscore.Internal.Vdw.Weighted>
-0.4618

> <Gold.Goldscore.Internal.Torsion.Weighted>
-0.3675

> <Gold.Goldscore.External.Vdw.Weighted>
35.6907

> <Gold.Goldscore.Internal.HBond.Weighted>
0.0000

> <Gold.Goldscore.External.HBond.Weighted>
1.6917

> <Gold.Goldscore.Internal.Correction.Weighted>
-0.7686

> <Gold.Rescore>
     Score     S(PLP)   S(hbond)     S(cho)   S(metal)  DE(clash)   DE(tors)     intcor
     42.82     -41.04       0.94       0.00       0.00       0.00       0.52       ----

> <Gold.PLP.Fitness>
42.8182

> <Gold.PLP.PLP>
-41.0409

> <Gold.PLP.part.hbond>
-2.5010

> <Gold.PLP.part.metal>
0.0000

> <Gold.PLP.part.buried>
-5.2063

> <Gold.PLP.part.nonpolar>
-35.0578

> <Gold.PLP.part.repulsive>
0.5893

> <Gold.PLP.ligand.clash>
0.0000

> <Gold.PLP.ligand.torsion>
0.5154

> <Gold.PLP.Chemscore.Hbond>
0.9360

> <Gold.PLP.Chemscore.CHOScore>
0.0000

> <Gold.PLP.Chemscore.Metal>
0.0000

> <Gold.Chemscore.Hbonds>
donor molecule, donor type, donor heavy atom, donor atom, acceptor molecule, acceptor atom, score
      L1  H     8    22       P1  7865  0.63

> <Gold.PLP.Chemscore.Internal.Correction>
   9.000000E+99

