#       Name:                CT1002167954
#       Creating user name   hitesit
#       Creation time:       Sun Apr 16 22:50:28 2023


#       File generated by GOLD software.
#

@<TRIPOS>MOLECULE
CT1002167954|ligand_prepared|mol2|1|dock8
    29    30     1
SMALL
NO_CHARGES


@<TRIPOS>ATOM
      1 C1          14.6069  13.9594  13.7584 C.3            1 RES1               0.0000
      2 C2          13.2040  13.5487  14.2505 C.ar           1 RES1               0.0000
      3 C3          14.7523  13.3863  12.3518 C.2            1 RES1               0.0000
      4 C4          14.6506  15.4824  13.8173 C.2            1 RES1               0.0000
      5 C5          15.7601  13.4142  14.6326 C.3            1 RES1               0.0000
      6 C6          13.0515  12.5302  15.1865 C.ar           1 RES1               0.0000
      7 C7          12.0553  14.1797  13.7806 C.ar           1 RES1               0.0000
      8 N8          14.6815  14.2569  11.3044 N.am           1 RES1               0.0000
      9 O9          14.8873  12.1838  12.1626 O.2            1 RES1               0.0000
     10 N10         14.7589  16.1678  12.6357 N.am           1 RES1               0.0000
     11 O11         14.5757  16.0955  14.8750 O.2            1 RES1               0.0000
     12 C12         17.1197  14.0032  14.2910 C.3            1 RES1               0.0000
     13 C13         11.7964  12.1579  15.6386 C.ar           1 RES1               0.0000
     14 C14         10.8011  13.8058  14.2338 C.ar           1 RES1               0.0000
     15 C15         14.7453  15.6251  11.3797 C.2            1 RES1               0.0000
     16 C16         10.6705  12.7956  15.1629 C.ar           1 RES1               0.0000
     17 O17         14.7916  16.3112  10.3627 O.2            1 RES1               0.0000
     18 H18         15.5369  13.6282  15.6851 H              1 RES1               0.0000
     19 H19         15.8077  12.3245  14.5148 H              1 RES1               0.0000
     20 H20         13.9259  12.0152  15.5704 H              1 RES1               0.0000
     21 H21         12.1339  14.9764  13.0485 H              1 RES1               0.0000
     22 H22         14.5708  13.8533  10.3796 H              1 RES1               0.0000
     23 H23         14.8589  17.1760  12.6982 H              1 RES1               0.0000
     24 H24         17.8928  13.5869  14.9335 H              1 RES1               0.0000
     25 H25         17.3851  13.7875  13.2581 H              1 RES1               0.0000
     26 H26         17.1159  15.0834  14.4215 H              1 RES1               0.0000
     27 H27         11.6989  11.3614  16.3688 H              1 RES1               0.0000
     28 H28          9.9176  14.3100  13.8562 H              1 RES1               0.0000
     29 H29          9.6873  12.5041  15.5175 H              1 RES1               0.0000
@<TRIPOS>BOND
    1    1    2 1     
    2    1    3 1     
    3    1    4 1     
    4    1    5 1     
    5    2    6 ar    
    6    2    7 ar    
    7    3    8 1     
    8    3    9 2     
    9    4   10 1     
   10    4   11 2     
   11    5   12 1     
   12    5   18 1     
   13    5   19 1     
   14    6   13 ar    
   15    6   20 1     
   16    7   14 ar    
   17    7   21 1     
   18    8   15 1     
   19    8   22 1     
   20   10   15 1     
   21   10   23 1     
   22   12   24 1     
   23   12   25 1     
   24   12   26 1     
   25   13   16 ar    
   26   13   27 1     
   27   14   16 ar    
   28   14   28 1     
   29   15   17 2     
   30   16   29 1     
@<TRIPOS>SUBSTRUCTURE
      1 RES1           1
@<TRIPOS>SET
DONOR_HYDROGENS      STATIC     ATOMS    <user>   **** ""
2 22 23
ATOM$RED        STATIC     ATOMS    COLORGROUP SYSTEM
2 22 23
@<TRIPOS>COMMENT
> <Gold.Version>
2022.3.0

> <Gold.Id.Protein>
unknown|3mvj_clean|pdb

> <Gold.Protein.RotatedTorsions>
[ 8490 8455 8453 8450 ] final  -25.52 input   60.02 | X-H torsion
[ 15484 15454 15453 15451 ] final  173.65 input   59.98 | X-H torsion
[ 5453 5415 5414 5412 ] final  -90.64 input   60.02 | X-H torsion
[ 7768 7713 7712 7711 ] final   58.38 input   60.03 | X-H torsion
[ 7530 7488 7487 7485 ] final  116.00 input   60.03 | X-H torsion

> <Gold.Protein.ActiveResidues>
 THR48   LEU49   GLY50   THR51   GLY52   ARG56   VAL57   MET58   LEU59   TYR69  
 ALA70   MET71   LYS72   GLU91   LEU95   VAL104  LYS105  LEU106  MET118  VAL119 
 MET120  GLU121  TYR122  VAL123  PRO124  GLY125  GLY126  GLU127  PHE129  TYR164 
 LYS168  PRO169  GLU170  ASN171  LEU172  LEU173  ILE174  GLN181  VAL182  THR183 
 ASP184  PHE185  THR324  PHE327  ASP328  TYR330 

> <Gold.Protein.RotatedAtoms>
   25.5454   15.0921   19.9673 H   0  0  0  0  0  0  0  0  0  0  0  0  # atno 5453 bound_to 5415
   10.4066   21.4870   14.3354 H   0  0  0  0  0  0  0  0  0  0  0  0  # atno 7530 bound_to 7488
    6.0542   13.3144   15.0181 H   0  0  0  0  0  0  0  0  0  0  0  0  # atno 7768 bound_to 7713
    7.3668   13.1790   14.0153 H   0  0  0  0  0  0  0  0  0  0  0  0  # atno 7769 bound_to 7713
    7.4640   12.6516   15.5837 H   0  0  0  0  0  0  0  0  0  0  0  0  # atno 7770 bound_to 7713
   14.2863   19.3628   14.9935 H   0  0  0  0  0  0  0  0  0  0  0  0  # atno 8490 bound_to 8455
   14.7502    8.2212   17.6422 H   0  0  0  0  0  0  0  0  0  0  0  0  # atno 15484 bound_to 15454
   15.6857   18.5712   15.2447 LP  0  0  0  0  0  0  0  0  0  0  0  0  # atno 16480 bound_to 8455
   14.7347   18.1726   13.9785 LP  0  0  0  0  0  0  0  0  0  0  0  0  # atno 16481 bound_to 8455
   16.0096    9.2511   17.6237 LP  0  0  0  0  0  0  0  0  0  0  0  0  # atno 16486 bound_to 15454
   15.8110    8.2217   18.8758 LP  0  0  0  0  0  0  0  0  0  0  0  0  # atno 16487 bound_to 15454
   26.9428   14.4603   19.4220 LP  0  0  0  0  0  0  0  0  0  0  0  0  # atno 16508 bound_to 5415
   25.5191   13.9616   18.7966 LP  0  0  0  0  0  0  0  0  0  0  0  0  # atno 16509 bound_to 5415

> <Gold.Score>
     Fitness  S(hb_ext) S(vdw_ext)  S(hb_int)    S(int)      intcor
     35.84       6.06      22.12       0.00      -0.63      -0.77

> <Gold.Goldscore.Fitness>
35.8357

> <Gold.Goldscore.Internal.Vdw>
-0.8930

> <Gold.Goldscore.Internal.Torsion>
-0.5103

> <Gold.Goldscore.External.Vdw>
22.1151

> <Gold.Goldscore.Internal.HBond>
0.0000

> <Gold.Goldscore.External.HBond>
6.0621

> <Gold.Goldscore.Internal.Correction>
-0.7686

> <Gold.Goldscore.Hbonds>
donor molecule, donor type, donor heavy atom, donor atom, acceptor molecule, acceptor atom, score
      P1  H  2793  2837       L1    17  1.00
      L1  H    10    23       P1  8455  0.03

> <Gold.Goldscore.Internal.Vdw.Weighted>
-0.8930

> <Gold.Goldscore.Internal.Torsion.Weighted>
-0.5103

> <Gold.Goldscore.External.Vdw.Weighted>
30.4082

> <Gold.Goldscore.Internal.HBond.Weighted>
0.0000

> <Gold.Goldscore.External.HBond.Weighted>
6.0621

> <Gold.Goldscore.Internal.Correction.Weighted>
-0.7686

> <Gold.Rescore>
     Score     S(PLP)   S(hbond)     S(cho)   S(metal)  DE(clash)   DE(tors)     intcor
     32.00     -29.63       1.00       0.00       0.00       0.00       0.32       ----

> <Gold.PLP.Fitness>
31.9987

> <Gold.PLP.PLP>
-29.6294

> <Gold.PLP.part.hbond>
-1.6624

> <Gold.PLP.part.metal>
0.0000

> <Gold.PLP.part.buried>
-6.5364

> <Gold.PLP.part.nonpolar>
-23.7844

> <Gold.PLP.part.repulsive>
0.5311

> <Gold.PLP.ligand.clash>
0.0000

> <Gold.PLP.ligand.torsion>
0.3153

> <Gold.PLP.Chemscore.Hbond>
1.0000

> <Gold.PLP.Chemscore.CHOScore>
0.0000

> <Gold.PLP.Chemscore.Metal>
0.0000

> <Gold.Chemscore.Hbonds>
donor molecule, donor type, donor heavy atom, donor atom, acceptor molecule, acceptor atom, score
      P1  H  2793  2837       L1    17  1.00

> <Gold.PLP.Chemscore.Internal.Correction>
   9.000000E+99

