#       Name:                CT1002167954
#       Creating user name   hitesit
#       Creation time:       Sun Apr 16 22:50:30 2023


#       File generated by GOLD software.
#

@<TRIPOS>MOLECULE
CT1002167954|ligand_prepared|mol2|1|dock10
    29    30     1
SMALL
NO_CHARGES


@<TRIPOS>ATOM
      1 C1          15.9114  14.6918  14.2079 C.3            1 RES1               0.0000
      2 C2          17.3523  14.6765  14.7578 C.ar           1 RES1               0.0000
      3 C3          15.6071  13.2641  13.7637 C.2            1 RES1               0.0000
      4 C4          15.0264  15.1917  15.3444 C.2            1 RES1               0.0000
      5 C5          15.7142  15.6352  12.9985 C.3            1 RES1               0.0000
      6 C6          18.2654  15.6563  14.3800 C.ar           1 RES1               0.0000
      7 C7          17.7814  13.6922  15.6442 C.ar           1 RES1               0.0000
      8 N8          14.7651  12.5261  14.5423 N.am           1 RES1               0.0000
      9 O9          16.1290  12.7801  12.7669 O.2            1 RES1               0.0000
     10 N10         14.1102  14.3218  15.8751 N.am           1 RES1               0.0000
     11 O11         15.1255  16.3259  15.7962 O.2            1 RES1               0.0000
     12 C12         14.3754  15.4629  12.2984 C.3            1 RES1               0.0000
     13 C13         19.5599  15.6541  14.8726 C.ar           1 RES1               0.0000
     14 C14         19.0765  13.6917  16.1355 C.ar           1 RES1               0.0000
     15 C15         13.9606  13.0020  15.5462 C.2            1 RES1               0.0000
     16 C16         19.9661  14.6722  15.7509 C.ar           1 RES1               0.0000
     17 O17         13.1509  12.2689  16.1066 O.2            1 RES1               0.0000
     18 H18         15.8019  16.6732  13.3423 H              1 RES1               0.0000
     19 H19         16.5175  15.4529  12.2739 H              1 RES1               0.0000
     20 H20         17.9645  16.4356  13.6877 H              1 RES1               0.0000
     21 H21         17.0991  12.9103  15.9598 H              1 RES1               0.0000
     22 H22         14.7305  11.5279  14.3614 H              1 RES1               0.0000
     23 H23         13.4815  14.6923  16.5806 H              1 RES1               0.0000
     24 H24         14.2888  16.1481  11.4578 H              1 RES1               0.0000
     25 H25         14.2650  14.4483  11.9214 H              1 RES1               0.0000
     26 H26         13.5537  15.6613  12.9834 H              1 RES1               0.0000
     27 H27         20.2566  16.4272  14.5658 H              1 RES1               0.0000
     28 H28         19.3921  12.9167  16.8261 H              1 RES1               0.0000
     29 H29         20.9801  14.6709  16.1370 H              1 RES1               0.0000
@<TRIPOS>BOND
    1    1    2 1     
    2    1    3 1     
    3    1    4 1     
    4    1    5 1     
    5    2    6 ar    
    6    2    7 ar    
    7    3    8 1     
    8    3    9 2     
    9    4   10 1     
   10    4   11 2     
   11    5   12 1     
   12    5   18 1     
   13    5   19 1     
   14    6   13 ar    
   15    6   20 1     
   16    7   14 ar    
   17    7   21 1     
   18    8   15 1     
   19    8   22 1     
   20   10   15 1     
   21   10   23 1     
   22   12   24 1     
   23   12   25 1     
   24   12   26 1     
   25   13   16 ar    
   26   13   27 1     
   27   14   16 ar    
   28   14   28 1     
   29   15   17 2     
   30   16   29 1     
@<TRIPOS>SUBSTRUCTURE
      1 RES1           1
@<TRIPOS>SET
DONOR_HYDROGENS      STATIC     ATOMS    <user>   **** ""
2 22 23
ATOM$RED        STATIC     ATOMS    COLORGROUP SYSTEM
2 22 23
@<TRIPOS>COMMENT
> <Gold.Version>
2022.3.0

> <Gold.Id.Protein>
unknown|3mvj_clean|pdb

> <Gold.Protein.RotatedTorsions>
[ 8490 8455 8453 8450 ] final -131.19 input   60.02 | X-H torsion
[ 15484 15454 15453 15451 ] final   65.57 input   59.98 | X-H torsion
[ 5453 5415 5414 5412 ] final  -25.45 input   60.02 | X-H torsion
[ 7768 7713 7712 7711 ] final  145.08 input   60.03 | X-H torsion
[ 7530 7488 7487 7485 ] final  -40.33 input   60.03 | X-H torsion

> <Gold.Protein.ActiveResidues>
 THR48   LEU49   GLY50   THR51   GLY52   ARG56   VAL57   MET58   LEU59   TYR69  
 ALA70   MET71   LYS72   GLU91   LEU95   VAL104  LYS105  LEU106  MET118  VAL119 
 MET120  GLU121  TYR122  VAL123  PRO124  GLY125  GLY126  GLU127  PHE129  TYR164 
 LYS168  PRO169  GLU170  ASN171  LEU172  LEU173  ILE174  GLN181  VAL182  THR183 
 ASP184  PHE185  THR324  PHE327  ASP328  TYR330 

> <Gold.Protein.RotatedAtoms>
   25.0689   14.4930   19.3098 H   0  0  0  0  0  0  0  0  0  0  0  0  # atno 5453 bound_to 5415
   10.3696   20.8325   12.6252 H   0  0  0  0  0  0  0  0  0  0  0  0  # atno 7530 bound_to 7488
    6.8533   13.3671   13.9771 H   0  0  0  0  0  0  0  0  0  0  0  0  # atno 7768 bound_to 7713
    7.7979   12.6741   15.1493 H   0  0  0  0  0  0  0  0  0  0  0  0  # atno 7769 bound_to 7713
    6.2340   13.1035   15.4915 H   0  0  0  0  0  0  0  0  0  0  0  0  # atno 7770 bound_to 7713
   15.5922   18.7469   15.3690 H   0  0  0  0  0  0  0  0  0  0  0  0  # atno 8490 bound_to 8455
   15.8707    9.2294   17.4884 H   0  0  0  0  0  0  0  0  0  0  0  0  # atno 15484 bound_to 15454
   14.9405   18.0756   14.0377 LP  0  0  0  0  0  0  0  0  0  0  0  0  # atno 16480 bound_to 8455
   14.1643   19.2887   14.8073 LP  0  0  0  0  0  0  0  0  0  0  0  0  # atno 16481 bound_to 8455
   15.9558    8.3520   18.8559 LP  0  0  0  0  0  0  0  0  0  0  0  0  # atno 16486 bound_to 15454
   14.7361    8.1052   17.7985 LP  0  0  0  0  0  0  0  0  0  0  0  0  # atno 16487 bound_to 15454
   26.4086   15.0799   20.0239 LP  0  0  0  0  0  0  0  0  0  0  0  0  # atno 16508 bound_to 5415
   26.5330   13.9450   18.8564 LP  0  0  0  0  0  0  0  0  0  0  0  0  # atno 16509 bound_to 5415

> <Gold.Score>
     Fitness  S(hb_ext) S(vdw_ext)  S(hb_int)    S(int)      intcor
     37.75       1.08      27.21       0.00      -0.75      -0.77

> <Gold.Goldscore.Fitness>
37.7469

> <Gold.Goldscore.Internal.Vdw>
-0.9686

> <Gold.Goldscore.Internal.Torsion>
-0.5511

> <Gold.Goldscore.External.Vdw>
27.2112

> <Gold.Goldscore.Internal.HBond>
0.0000

> <Gold.Goldscore.External.HBond>
1.0825

> <Gold.Goldscore.Internal.Correction>
-0.7686

> <Gold.Goldscore.Hbonds>
donor molecule, donor type, donor heavy atom, donor atom, acceptor molecule, acceptor atom, score
      L1  H    10    23       P1  7816  0.54

> <Gold.Goldscore.Internal.Vdw.Weighted>
-0.9686

> <Gold.Goldscore.Internal.Torsion.Weighted>
-0.5511

> <Gold.Goldscore.External.Vdw.Weighted>
37.4154

> <Gold.Goldscore.Internal.HBond.Weighted>
0.0000

> <Gold.Goldscore.External.HBond.Weighted>
1.0825

> <Gold.Goldscore.Internal.Correction.Weighted>
-0.7686

> <Gold.Rescore>
     Score     S(PLP)   S(hbond)     S(cho)   S(metal)  DE(clash)   DE(tors)     intcor
     36.53     -36.50       0.75       0.00       0.00       0.00       1.11       ----

> <Gold.PLP.Fitness>
36.5316

> <Gold.PLP.PLP>
-36.5009

> <Gold.PLP.part.hbond>
-2.0940

> <Gold.PLP.part.metal>
0.0000

> <Gold.PLP.part.buried>
-1.4318

> <Gold.PLP.part.nonpolar>
-34.1773

> <Gold.PLP.part.repulsive>
0.6384

> <Gold.PLP.ligand.clash>
0.0000

> <Gold.PLP.ligand.torsion>
1.1126

> <Gold.PLP.Chemscore.Hbond>
0.7520

> <Gold.PLP.Chemscore.CHOScore>
0.0000

> <Gold.PLP.Chemscore.Metal>
0.0000

> <Gold.Chemscore.Hbonds>
donor molecule, donor type, donor heavy atom, donor atom, acceptor molecule, acceptor atom, score
      L1  H    10    23       P1  7816  1.00

> <Gold.PLP.Chemscore.Internal.Correction>
   9.000000E+99

