#       Name:                CT1002167954
#       Creating user name   hitesit
#       Creation time:       Sun Apr 16 22:50:23 2023


#       File generated by GOLD software.
#

@<TRIPOS>MOLECULE
CT1002167954|ligand_prepared|mol2|1|dock4
    29    30     1
SMALL
NO_CHARGES


@<TRIPOS>ATOM
      1 C1          16.8475  14.1708  14.2409 C.3            1 RES1               0.0000
      2 C2          16.1754  13.6331  12.9611 C.ar           1 RES1               0.0000
      3 C3          16.8671  15.6908  14.1084 C.2            1 RES1               0.0000
      4 C4          16.0119  13.6589  15.4090 C.2            1 RES1               0.0000
      5 C5          18.2993  13.6763  14.4392 C.3            1 RES1               0.0000
      6 C6          16.4386  12.3428  12.5111 C.ar           1 RES1               0.0000
      7 C7          15.2895  14.4132  12.2228 C.ar           1 RES1               0.0000
      8 N8          15.9913  16.4031  14.8736 N.am           1 RES1               0.0000
      9 O9          17.6120  16.2535  13.3156 O.2            1 RES1               0.0000
     10 N10         15.3386  14.5792  16.1688 N.am           1 RES1               0.0000
     11 O11         15.9171  12.4655  15.6680 O.2            1 RES1               0.0000
     12 C12         19.0561  14.4179  15.5298 C.3            1 RES1               0.0000
     13 C13         15.8357  11.8491  11.3660 C.ar           1 RES1               0.0000
     14 C14         14.6879  13.9176  11.0778 C.ar           1 RES1               0.0000
     15 C15         15.2658  15.9255  15.9354 C.2            1 RES1               0.0000
     16 C16         14.9597  12.6359  10.6489 C.ar           1 RES1               0.0000
     17 O17         14.5950  16.6818  16.6319 O.2            1 RES1               0.0000
     18 H18         18.2776  12.6082  14.6883 H              1 RES1               0.0000
     19 H19         18.8430  13.7890  13.4931 H              1 RES1               0.0000
     20 H20         17.1270  11.7098  13.0610 H              1 RES1               0.0000
     21 H21         15.0615  15.4249  12.5407 H              1 RES1               0.0000
     22 H22         15.8640  17.3812  14.6343 H              1 RES1               0.0000
     23 H23         14.8462  14.2283  16.9841 H              1 RES1               0.0000
     24 H24         20.0686  14.0320  15.6275 H              1 RES1               0.0000
     25 H25         19.1188  15.4800  15.3020 H              1 RES1               0.0000
     26 H26         18.5567  14.3062  16.4900 H              1 RES1               0.0000
     27 H27         16.0540  10.8402  11.0320 H              1 RES1               0.0000
     28 H28         13.9996  14.5406  10.5162 H              1 RES1               0.0000
     29 H29         14.4873  12.2488   9.7522 H              1 RES1               0.0000
@<TRIPOS>BOND
    1    1    2 1     
    2    1    3 1     
    3    1    4 1     
    4    1    5 1     
    5    2    6 ar    
    6    2    7 ar    
    7    3    8 1     
    8    3    9 2     
    9    4   10 1     
   10    4   11 2     
   11    5   12 1     
   12    5   18 1     
   13    5   19 1     
   14    6   13 ar    
   15    6   20 1     
   16    7   14 ar    
   17    7   21 1     
   18    8   15 1     
   19    8   22 1     
   20   10   15 1     
   21   10   23 1     
   22   12   24 1     
   23   12   25 1     
   24   12   26 1     
   25   13   16 ar    
   26   13   27 1     
   27   14   16 ar    
   28   14   28 1     
   29   15   17 2     
   30   16   29 1     
@<TRIPOS>SUBSTRUCTURE
      1 RES1           1
@<TRIPOS>SET
DONOR_HYDROGENS      STATIC     ATOMS    <user>   **** ""
2 22 23
ATOM$RED        STATIC     ATOMS    COLORGROUP SYSTEM
2 22 23
@<TRIPOS>COMMENT
> <Gold.Version>
2022.3.0

> <Gold.Id.Protein>
unknown|3mvj_clean|pdb

> <Gold.Protein.RotatedTorsions>
[ 8490 8455 8453 8450 ] final  -66.04 input   60.02 | X-H torsion
[ 15484 15454 15453 15451 ] final  -82.68 input   59.98 | X-H torsion
[ 5453 5415 5414 5412 ] final   89.18 input   60.02 | X-H torsion
[ 7768 7713 7712 7711 ] final -149.55 input   60.03 | X-H torsion
[ 7530 7488 7487 7485 ] final  147.60 input   60.03 | X-H torsion

> <Gold.Protein.ActiveResidues>
 THR48   LEU49   GLY50   THR51   GLY52   ARG56   VAL57   MET58   LEU59   TYR69  
 ALA70   MET71   LYS72   GLU91   LEU95   VAL104  LYS105  LEU106  MET118  VAL119 
 MET120  GLU121  TYR122  VAL123  PRO124  GLY125  GLY126  GLU127  PHE129  TYR164 
 LYS168  PRO169  GLU170  ASN171  LEU172  LEU173  ILE174  GLN181  VAL182  THR183 
 ASP184  PHE185  THR324  PHE327  ASP328  TYR330 

> <Gold.Protein.RotatedAtoms>
   26.4552   13.9212   18.8223 H   0  0  0  0  0  0  0  0  0  0  0  0  # atno 5453 bound_to 5415
   10.0254   21.1624   14.4301 H   0  0  0  0  0  0  0  0  0  0  0  0  # atno 7530 bound_to 7488
    7.7369   12.9555   14.3199 H   0  0  0  0  0  0  0  0  0  0  0  0  # atno 7768 bound_to 7713
    6.9851   12.7542   15.7831 H   0  0  0  0  0  0  0  0  0  0  0  0  # atno 7769 bound_to 7713
    6.1626   13.4351   14.5153 H   0  0  0  0  0  0  0  0  0  0  0  0  # atno 7770 bound_to 7713
   14.7879   19.3535   15.4040 H   0  0  0  0  0  0  0  0  0  0  0  0  # atno 8490 bound_to 8455
   15.5947    8.0701   18.8380 H   0  0  0  0  0  0  0  0  0  0  0  0  # atno 15484 bound_to 15454
   15.6675   18.1552   14.7419 LP  0  0  0  0  0  0  0  0  0  0  0  0  # atno 16480 bound_to 8455
   14.2476   18.5981   14.0678 LP  0  0  0  0  0  0  0  0  0  0  0  0  # atno 16481 bound_to 8455
   14.8066    8.4015   17.4537 LP  0  0  0  0  0  0  0  0  0  0  0  0  # atno 16486 bound_to 15454
   16.1633    9.2236   17.8413 LP  0  0  0  0  0  0  0  0  0  0  0  0  # atno 16487 bound_to 15454
   25.0601   14.5524   19.3743 LP  0  0  0  0  0  0  0  0  0  0  0  0  # atno 16508 bound_to 5415
   26.4862   15.0479   19.9966 LP  0  0  0  0  0  0  0  0  0  0  0  0  # atno 16509 bound_to 5415

> <Gold.Score>
     Fitness  S(hb_ext) S(vdw_ext)  S(hb_int)    S(int)      intcor
     38.97       1.91      27.60       0.00      -0.89      -0.77

> <Gold.Goldscore.Fitness>
38.9721

> <Gold.Goldscore.Internal.Vdw>
-1.0638

> <Gold.Goldscore.Internal.Torsion>
-0.5939

> <Gold.Goldscore.External.Vdw>
27.5990

> <Gold.Goldscore.Internal.HBond>
0.0000

> <Gold.Goldscore.External.HBond>
1.9125

> <Gold.Goldscore.Internal.Correction>
-0.7686

> <Gold.Goldscore.Hbonds>
donor molecule, donor type, donor heavy atom, donor atom, acceptor molecule, acceptor atom, score
      L1  H     8    22       P1  8455  0.69
      L1  H    10    23       P1  5607  0.09

> <Gold.Goldscore.Internal.Vdw.Weighted>
-1.0638

> <Gold.Goldscore.Internal.Torsion.Weighted>
-0.5939

> <Gold.Goldscore.External.Vdw.Weighted>
37.9486

> <Gold.Goldscore.Internal.HBond.Weighted>
0.0000

> <Gold.Goldscore.External.HBond.Weighted>
1.9125

> <Gold.Goldscore.Internal.Correction.Weighted>
-0.7686

> <Gold.Rescore>
     Score     S(PLP)   S(hbond)     S(cho)   S(metal)  DE(clash)   DE(tors)     intcor
     32.13     -29.50       1.38       0.00       0.00       1.27       0.12       ----

> <Gold.PLP.Fitness>
32.1323

> <Gold.PLP.PLP>
-29.4963

> <Gold.PLP.part.hbond>
-3.5850

> <Gold.PLP.part.metal>
0.0000

> <Gold.PLP.part.buried>
-2.2262

> <Gold.PLP.part.nonpolar>
-30.7260

> <Gold.PLP.part.repulsive>
5.8915

> <Gold.PLP.ligand.clash>
1.2687

> <Gold.PLP.ligand.torsion>
0.1153

> <Gold.PLP.Chemscore.Hbond>
1.3784

> <Gold.PLP.Chemscore.CHOScore>
0.0000

> <Gold.PLP.Chemscore.Metal>
0.0000

> <Gold.Chemscore.Hbonds>
donor molecule, donor type, donor heavy atom, donor atom, acceptor molecule, acceptor atom, score
      L1  H     8    22       P1  8455  1.00
      L1  H    10    23       P1  5607  0.67

> <Gold.PLP.Chemscore.Internal.Correction>
   9.000000E+99

