#       Name:                CT1002167954
#       Creating user name   hitesit
#       Creation time:       Sun Apr 16 22:50:25 2023


#       File generated by GOLD software.
#

@<TRIPOS>MOLECULE
CT1002167954|ligand_prepared|mol2|1|dock5
    29    30     1
SMALL
NO_CHARGES


@<TRIPOS>ATOM
      1 C1          15.9901  14.6934  14.1083 C.3            1 RES1               0.0000
      2 C2          15.6000  13.9580  12.8100 C.ar           1 RES1               0.0000
      3 C3          15.9265  13.6550  15.2246 C.2            1 RES1               0.0000
      4 C4          17.3824  15.2678  13.8715 C.2            1 RES1               0.0000
      5 C5          15.0461  15.8633  14.4715 C.3            1 RES1               0.0000
      6 C6          15.9042  12.6106  12.6400 C.ar           1 RES1               0.0000
      7 C7          14.9346  14.6116  11.7763 C.ar           1 RES1               0.0000
      8 N8          17.1077  13.1941  15.7267 N.am           1 RES1               0.0000
      9 O9          14.8567  13.2180  15.6306 O.2            1 RES1               0.0000
     10 N10         18.4170  14.7738  14.6221 N.am           1 RES1               0.0000
     11 O11         17.5958  16.1318  13.0300 O.2            1 RES1               0.0000
     12 C12         15.3096  16.4601  15.8450 C.3            1 RES1               0.0000
     13 C13         15.5532  11.9402  11.4800 C.ar           1 RES1               0.0000
     14 C14         14.5847  13.9393  10.6169 C.ar           1 RES1               0.0000
     15 C15         18.3480  13.7413  15.5174 C.2            1 RES1               0.0000
     16 C16         14.8930  12.6038  10.4679 C.ar           1 RES1               0.0000
     17 O17         19.3334  13.3171  16.1142 O.2            1 RES1               0.0000
     18 H18         15.1549  16.6521  13.7169 H              1 RES1               0.0000
     19 H19         14.0098  15.5052  14.4351 H              1 RES1               0.0000
     20 H20         16.4256  12.0724  13.4245 H              1 RES1               0.0000
     21 H21         14.6828  15.6625  11.8711 H              1 RES1               0.0000
     22 H22         17.0649  12.3658  16.3120 H              1 RES1               0.0000
     23 H23         19.3224  15.2169  14.5025 H              1 RES1               0.0000
     24 H24         14.6202  17.2765  16.0495 H              1 RES1               0.0000
     25 H25         15.1855  15.7089  16.6222 H              1 RES1               0.0000
     26 H26         16.3238  16.8490  15.9083 H              1 RES1               0.0000
     27 H27         15.7993  10.8895  11.3671 H              1 RES1               0.0000
     28 H28         14.0657  14.4658   9.8227 H              1 RES1               0.0000
     29 H29         14.6178  12.0783   9.5595 H              1 RES1               0.0000
@<TRIPOS>BOND
    1    1    2 1     
    2    1    3 1     
    3    1    4 1     
    4    1    5 1     
    5    2    6 ar    
    6    2    7 ar    
    7    3    8 1     
    8    3    9 2     
    9    4   10 1     
   10    4   11 2     
   11    5   12 1     
   12    5   18 1     
   13    5   19 1     
   14    6   13 ar    
   15    6   20 1     
   16    7   14 ar    
   17    7   21 1     
   18    8   15 1     
   19    8   22 1     
   20   10   15 1     
   21   10   23 1     
   22   12   24 1     
   23   12   25 1     
   24   12   26 1     
   25   13   16 ar    
   26   13   27 1     
   27   14   16 ar    
   28   14   28 1     
   29   15   17 2     
   30   16   29 1     
@<TRIPOS>SUBSTRUCTURE
      1 RES1           1
@<TRIPOS>SET
DONOR_HYDROGENS      STATIC     ATOMS    <user>   **** ""
2 22 23
ATOM$RED        STATIC     ATOMS    COLORGROUP SYSTEM
2 22 23
@<TRIPOS>COMMENT
> <Gold.Version>
2022.3.0

> <Gold.Id.Protein>
unknown|3mvj_clean|pdb

> <Gold.Protein.RotatedTorsions>
[ 8490 8455 8453 8450 ] final   -2.94 input   60.02 | X-H torsion
[ 15484 15454 15453 15451 ] final   57.94 input   59.98 | X-H torsion
[ 5453 5415 5414 5412 ] final   30.20 input   60.02 | X-H torsion
[ 7768 7713 7712 7711 ] final -145.09 input   60.03 | X-H torsion
[ 7530 7488 7487 7485 ] final  -33.04 input   60.03 | X-H torsion

> <Gold.Protein.ActiveResidues>
 THR48   LEU49   GLY50   THR51   GLY52   ARG56   VAL57   MET58   LEU59   TYR69  
 ALA70   MET71   LYS72   GLU91   LEU95   VAL104  LYS105  LEU106  MET118  VAL119 
 MET120  GLU121  TYR122  VAL123  PRO124  GLY125  GLY126  GLU127  PHE129  TYR164 
 LYS168  PRO169  GLU170  ASN171  LEU172  LEU173  ILE174  GLN181  VAL182  THR183 
 ASP184  PHE185  THR324  PHE327  ASP328  TYR330 

> <Gold.Protein.RotatedAtoms>
   25.5342   13.9616   18.7941 H   0  0  0  0  0  0  0  0  0  0  0  0  # atno 5453 bound_to 5415
   10.4560   20.9142   12.6260 H   0  0  0  0  0  0  0  0  0  0  0  0  # atno 7530 bound_to 7488
    7.7715   12.9252   14.3785 H   0  0  0  0  0  0  0  0  0  0  0  0  # atno 7768 bound_to 7713
    6.9143   12.7766   15.7891 H   0  0  0  0  0  0  0  0  0  0  0  0  # atno 7769 bound_to 7713
    6.1988   13.4430   14.4506 H   0  0  0  0  0  0  0  0  0  0  0  0  # atno 7770 bound_to 7713
   14.1241   19.2247   14.6953 H   0  0  0  0  0  0  0  0  0  0  0  0  # atno 8490 bound_to 8455
   15.9603    9.2423   17.5737 H   0  0  0  0  0  0  0  0  0  0  0  0  # atno 15484 bound_to 15454
   15.5250   18.8460   15.4317 LP  0  0  0  0  0  0  0  0  0  0  0  0  # atno 16480 bound_to 8455
   15.0588   18.0371   14.0919 LP  0  0  0  0  0  0  0  0  0  0  0  0  # atno 16481 bound_to 8455
   15.8650    8.2673   18.8727 LP  0  0  0  0  0  0  0  0  0  0  0  0  # atno 16486 bound_to 15454
   14.7366    8.1770   17.6957 LP  0  0  0  0  0  0  0  0  0  0  0  0  # atno 16487 bound_to 15454
   25.5303   15.0898   19.9674 LP  0  0  0  0  0  0  0  0  0  0  0  0  # atno 16508 bound_to 5415
   26.9429   14.4699   19.4319 LP  0  0  0  0  0  0  0  0  0  0  0  0  # atno 16509 bound_to 5415

> <Gold.Score>
     Fitness  S(hb_ext) S(vdw_ext)  S(hb_int)    S(int)      intcor
     39.64       0.00      29.28       0.00      -0.63      -0.77

> <Gold.Goldscore.Fitness>
39.6363

> <Gold.Goldscore.Internal.Vdw>
-0.9214

> <Gold.Goldscore.Internal.Torsion>
-0.4771

> <Gold.Goldscore.External.Vdw>
29.2844

> <Gold.Goldscore.Internal.HBond>
0.0000

> <Gold.Goldscore.External.HBond>
0.0000

> <Gold.Goldscore.Internal.Correction>
-0.7686

> <Gold.Goldscore.Internal.Vdw.Weighted>
-0.9214

> <Gold.Goldscore.Internal.Torsion.Weighted>
-0.4771

> <Gold.Goldscore.External.Vdw.Weighted>
40.2661

> <Gold.Goldscore.Internal.HBond.Weighted>
0.0000

> <Gold.Goldscore.External.HBond.Weighted>
0.0000

> <Gold.Goldscore.Internal.Correction.Weighted>
-0.7686

> <Gold.Rescore>
     Score     S(PLP)   S(hbond)     S(cho)   S(metal)  DE(clash)   DE(tors)     intcor
     32.36     -34.41       0.00       0.00       0.00       0.02       1.02       ----

> <Gold.PLP.Fitness>
32.3610

> <Gold.PLP.PLP>
-34.4131

> <Gold.PLP.part.hbond>
-0.4907

> <Gold.PLP.part.metal>
0.0000

> <Gold.PLP.part.buried>
-1.0587

> <Gold.PLP.part.nonpolar>
-35.6617

> <Gold.PLP.part.repulsive>
0.3575

> <Gold.PLP.ligand.clash>
0.0186

> <Gold.PLP.ligand.torsion>
1.0168

> <Gold.PLP.Chemscore.Hbond>
0.0000

> <Gold.PLP.Chemscore.CHOScore>
0.0000

> <Gold.PLP.Chemscore.Metal>
0.0000

> <Gold.PLP.Chemscore.Internal.Correction>
   9.000000E+99

