#       Name:                CT1002167954
#       Creating user name   hitesit
#       Creation time:       Sun Apr 16 22:50:19 2023


#       File generated by GOLD software.
#

@<TRIPOS>MOLECULE
CT1002167954|ligand_prepared|mol2|1|dock1
    29    30     1
SMALL
NO_CHARGES


@<TRIPOS>ATOM
      1 C1          15.4575  14.2764  14.2206 C.3            1 RES1               0.0000
      2 C2          16.9066  14.2665  14.7488 C.ar           1 RES1               0.0000
      3 C3          14.9905  15.7279  14.2781 C.2            1 RES1               0.0000
      4 C4          15.5130  13.6961  12.8118 C.2            1 RES1               0.0000
      5 C5          14.4825  13.4133  15.0549 C.3            1 RES1               0.0000
      6 C6          17.8603  15.1297  14.2176 C.ar           1 RES1               0.0000
      7 C7          17.3032  13.4034  15.7667 C.ar           1 RES1               0.0000
      8 N8          14.8907  16.4067  13.0995 N.am           1 RES1               0.0000
      9 O9          14.7513  16.2805  15.3448 O.2            1 RES1               0.0000
     10 N10         15.2001  14.5222  11.7643 N.am           1 RES1               0.0000
     11 O11         15.8409  12.5354  12.5982 O.2            1 RES1               0.0000
     12 C12         13.0377  13.4957  14.5882 C.3            1 RES1               0.0000
     13 C13         19.1626  15.1320  14.6890 C.ar           1 RES1               0.0000
     14 C14         18.6062  13.4072  16.2365 C.ar           1 RES1               0.0000
     15 C15         14.9213  15.8596  11.8420 C.2            1 RES1               0.0000
     16 C16         19.5364  14.2712  15.6989 C.ar           1 RES1               0.0000
     17 O17         14.7031  16.5480  10.8492 O.2            1 RES1               0.0000
     18 H18         14.8093  12.3671  15.0089 H              1 RES1               0.0000
     19 H19         14.5340  13.7349  16.1024 H              1 RES1               0.0000
     20 H20         17.5853  15.8125  13.4206 H              1 RES1               0.0000
     21 H21         16.5887  12.7142  16.2039 H              1 RES1               0.0000
     22 H22         14.7836  17.4144  13.1586 H              1 RES1               0.0000
     23 H23         15.1723  14.1013  10.8411 H              1 RES1               0.0000
     24 H24         12.3963  12.8719  15.2071 H              1 RES1               0.0000
     25 H25         12.6719  14.5188  14.6446 H              1 RES1               0.0000
     26 H26         12.9455  13.1591  13.5576 H              1 RES1               0.0000
     27 H27         19.8912  15.8130  14.2615 H              1 RES1               0.0000
     28 H28         18.8961  12.7276  17.0311 H              1 RES1               0.0000
     29 H29         20.5566  14.2735  16.0682 H              1 RES1               0.0000
@<TRIPOS>BOND
    1    1    2 1     
    2    1    3 1     
    3    1    4 1     
    4    1    5 1     
    5    2    6 ar    
    6    2    7 ar    
    7    3    8 1     
    8    3    9 2     
    9    4   10 1     
   10    4   11 2     
   11    5   12 1     
   12    5   18 1     
   13    5   19 1     
   14    6   13 ar    
   15    6   20 1     
   16    7   14 ar    
   17    7   21 1     
   18    8   15 1     
   19    8   22 1     
   20   10   15 1     
   21   10   23 1     
   22   12   24 1     
   23   12   25 1     
   24   12   26 1     
   25   13   16 ar    
   26   13   27 1     
   27   14   16 ar    
   28   14   28 1     
   29   15   17 2     
   30   16   29 1     
@<TRIPOS>SUBSTRUCTURE
      1 RES1           1
@<TRIPOS>SET
DONOR_HYDROGENS      STATIC     ATOMS    <user>   **** ""
2 22 23
ATOM$RED        STATIC     ATOMS    COLORGROUP SYSTEM
2 22 23
@<TRIPOS>COMMENT
> <Gold.Version>
2022.3.0

> <Gold.Id.Protein>
unknown|3mvj_clean|pdb

> <Gold.Protein.RotatedTorsions>
[ 8490 8455 8453 8450 ] final  -94.17 input   60.02 | X-H torsion
[ 15484 15454 15453 15451 ] final   50.43 input   59.98 | X-H torsion
[ 5453 5415 5414 5412 ] final -133.23 input   60.02 | X-H torsion
[ 7768 7713 7712 7711 ] final   24.79 input   60.03 | X-H torsion
[ 7530 7488 7487 7485 ] final   14.61 input   60.03 | X-H torsion

> <Gold.Protein.ActiveResidues>
 THR48   LEU49   GLY50   THR51   GLY52   ARG56   VAL57   MET58   LEU59   TYR69  
 ALA70   MET71   LYS72   GLU91   LEU95   VAL104  LYS105  LEU106  MET118  VAL119 
 MET120  GLU121  TYR122  VAL123  PRO124  GLY125  GLY126  GLU127  PHE129  TYR164 
 LYS168  PRO169  GLU170  ASN171  LEU172  LEU173  ILE174  GLN181  VAL182  THR183 
 ASP184  PHE185  THR324  PHE327  ASP328  TYR330 

> <Gold.Protein.RotatedAtoms>
   26.2183   15.1314   20.0593 H   0  0  0  0  0  0  0  0  0  0  0  0  # atno 5453 bound_to 5415
   10.8806   21.4378   12.9680 H   0  0  0  0  0  0  0  0  0  0  0  0  # atno 7530 bound_to 7488
    6.2367   13.1017   15.4946 H   0  0  0  0  0  0  0  0  0  0  0  0  # atno 7768 bound_to 7713
    6.8486   13.3690   13.9778 H   0  0  0  0  0  0  0  0  0  0  0  0  # atno 7769 bound_to 7713
    7.7993   12.6744   15.1446 H   0  0  0  0  0  0  0  0  0  0  0  0  # atno 7770 bound_to 7713
   15.1851   19.1571   15.5076 H   0  0  0  0  0  0  0  0  0  0  0  0  # atno 8490 bound_to 8455
   16.0411    9.2432   17.6659 H   0  0  0  0  0  0  0  0  0  0  0  0  # atno 15484 bound_to 15454
   15.4302   18.0134   14.3763 LP  0  0  0  0  0  0  0  0  0  0  0  0  # atno 16480 bound_to 8455
   14.0848   18.9377   14.3290 LP  0  0  0  0  0  0  0  0  0  0  0  0  # atno 16481 bound_to 8455
   15.7695    8.1889   18.8750 LP  0  0  0  0  0  0  0  0  0  0  0  0  # atno 16486 bound_to 15454
   14.7507    8.2544   17.6006 LP  0  0  0  0  0  0  0  0  0  0  0  0  # atno 16487 bound_to 15454
   26.6855   14.0297   18.9559 LP  0  0  0  0  0  0  0  0  0  0  0  0  # atno 16508 bound_to 5415
   25.0992   14.3527   19.1702 LP  0  0  0  0  0  0  0  0  0  0  0  0  # atno 16509 bound_to 5415

> <Gold.Score>
     Fitness  S(hb_ext) S(vdw_ext)  S(hb_int)    S(int)      intcor
     41.18       4.41      26.80       0.00      -0.08      -0.77

> <Gold.Goldscore.Fitness>
41.1787

> <Gold.Goldscore.Internal.Vdw>
-0.4593

> <Gold.Goldscore.Internal.Torsion>
-0.3914

> <Gold.Goldscore.External.Vdw>
26.8032

> <Gold.Goldscore.Internal.HBond>
0.0000

> <Gold.Goldscore.External.HBond>
4.4065

> <Gold.Goldscore.Internal.Correction>
-0.7686

> <Gold.Goldscore.Hbonds>
donor molecule, donor type, donor heavy atom, donor atom, acceptor molecule, acceptor atom, score
      P1  H  2793  2837       L1    17  0.68
      L1  H     8    22       P1  8455  0.17

> <Gold.Goldscore.Internal.Vdw.Weighted>
-0.4593

> <Gold.Goldscore.Internal.Torsion.Weighted>
-0.3914

> <Gold.Goldscore.External.Vdw.Weighted>
36.8543

> <Gold.Goldscore.Internal.HBond.Weighted>
0.0000

> <Gold.Goldscore.External.HBond.Weighted>
4.4065

> <Gold.Goldscore.Internal.Correction.Weighted>
-0.7686

> <Gold.Rescore>
     Score     S(PLP)   S(hbond)     S(cho)   S(metal)  DE(clash)   DE(tors)     intcor
     32.10     -29.57       1.00       0.00       0.00       0.00       0.23       ----

> <Gold.PLP.Fitness>
32.1014

> <Gold.PLP.PLP>
-29.5690

> <Gold.PLP.part.hbond>
-2.2439

> <Gold.PLP.part.metal>
0.0000

> <Gold.PLP.part.buried>
0.8145

> <Gold.PLP.part.nonpolar>
-31.0299

> <Gold.PLP.part.repulsive>
1.7908

> <Gold.PLP.ligand.clash>
0.0000

> <Gold.PLP.ligand.torsion>
0.2338

> <Gold.PLP.Chemscore.Hbond>
1.0000

> <Gold.PLP.Chemscore.CHOScore>
0.0000

> <Gold.PLP.Chemscore.Metal>
0.0000

> <Gold.Chemscore.Hbonds>
donor molecule, donor type, donor heavy atom, donor atom, acceptor molecule, acceptor atom, score
      L1  H     8    22       P1  8455  0.77

> <Gold.PLP.Chemscore.Internal.Correction>
   9.000000E+99

