@<TRIPOS>MOLECULE
A:3SB2001
    39    40     1     0     1
SMALL
NO_CHARGES
****
Generated from the CSD

@<TRIPOS>ATOM
     1 C1      24.5580 -10.7550   0.4120   C.ar      1 3SB2001   0.0000
     2 N1      24.3810  -8.3210   0.4730   N.3       1 3SB2001   0.0000
     3 O1      26.9680  -8.9360  -0.2220   O.2       1 3SB2001   0.0000
     4 C2      25.0190  -9.4600   1.0570   C.3       1 3SB2001   0.0000
     5 N2      27.4170  -9.6100   1.9590   N.am      1 3SB2001   0.0000
     6 O2      35.1480  -9.8310   3.4690   O.3       1 3SB2001   0.0000
     7 C3      26.5160  -9.3020   0.8590   C.2       1 3SB2001   0.0000
     8 N3      28.7930  -9.5100   1.8760   N.2       1 3SB2001   0.0000
     9 O3      31.2540  -9.6820   0.6890   O.3       1 3SB2001   0.0000
    10 C4      29.4780  -9.8890   2.9590   C.2       1 3SB2001   0.0000
    11 C5      30.9890  -9.8620   3.0590   C.ar      1 3SB2001   0.0000
    12 C6      24.1340 -10.7520  -0.9130   C.ar      1 3SB2001   0.0000
    13 C7      23.7110 -11.9360  -1.5210   C.ar      1 3SB2001   0.0000
    14 C8      23.7200 -13.1280  -0.7950   C.ar      1 3SB2001   0.0000
    15 C9      24.1540 -13.1330   0.5220   C.ar      1 3SB2001   0.0000
    16 C10     24.5720 -11.9530   1.1340   C.ar      1 3SB2001   0.0000
    17 C11     31.5550  -9.9590   4.3280   C.ar      1 3SB2001   0.0000
    18 C12     30.6110 -10.0670   5.5130   C.3       1 3SB2001   0.0000
    19 C13     32.9510  -9.9410   4.4810   C.ar      1 3SB2001   0.0000
    20 C14     33.7650  -9.8420   3.3560   C.ar      1 3SB2001   0.0000
    21 C15     33.1940  -9.7460   2.0910   C.ar      1 3SB2001   0.0000
    22 C16     31.8050  -9.7590   1.9480   C.ar      1 3SB2001   0.0000
    23 H1      28.9150 -10.2389   3.8230   H         1 3SB2001   0.0000
    24 H2      33.8307  -9.6607   1.2117   H         1 3SB2001   0.0000
    25 H3      24.1683 -14.0666   1.0825   H         1 3SB2001   0.0000
    26 H4      23.3865 -14.0533  -1.2624   H         1 3SB2001   0.0000
    27 H5      23.3761  -8.3974   0.5933   H         1 3SB2001   0.0000
    28 H6      24.7130  -7.4768   0.9282   H         1 3SB2001   0.0000
    29 H7      24.7978  -9.4897   2.1229   H         1 3SB2001   0.0000
    30 H8      27.0118  -9.9159   2.8379   H         1 3SB2001   0.0000
    31 H9      30.6710  -8.8803   0.6313   H         1 3SB2001   0.0000
    32 H10     33.3941 -10.0041   5.4738   H         1 3SB2001   0.0000
    33 H11     35.4517 -10.6733   3.8983   H         1 3SB2001   0.0000
    34 H12     24.9081 -11.9634   2.1698   H         1 3SB2001   0.0000
    35 H13     29.9938 -10.9577   5.4054   H         1 3SB2001   0.0000
    36 H14     31.1896 -10.1353   6.4330   H         1 3SB2001   0.0000
    37 H15     29.9728  -9.1854   5.5502   H         1 3SB2001   0.0000
    38 H16     24.1319  -9.8216  -1.4790   H         1 3SB2001   0.0000
    39 H17     23.3756 -11.9292  -2.5570   H         1 3SB2001   0.0000
@<TRIPOS>BOND
     1     1     4    1
     2     2     4    1
     3     3     7    2
     4     4     7    1
     5     5     7   am
     6     5     8    1
     7     8    10    2
     8    10    11    1
     9     1    12   ar
    10    12    13   ar
    11    13    14   ar
    12    14    15   ar
    13     1    16   ar
    14    15    16   ar
    15    11    17   ar
    16    17    18    1
    17    17    19   ar
    18     6    20    1
    19    19    20   ar
    20    20    21   ar
    21     9    22    1
    22    11    22   ar
    23    21    22   ar
    24    10    23    1
    25    21    24    1
    26    15    25    1
    27    14    26    1
    28     2    27    1
    29     2    28    1
    30     4    29    1
    31     5    30    1
    32     9    31    1
    33    19    32    1
    34     6    33    1
    35    16    34    1
    36    18    35    1
    37    18    36    1
    38    18    37    1
    39    12    38    1
    40    13    39    1
@<TRIPOS>SUBSTRUCTURE
     1 3SB2001     1 GROUP             0 A     3SB     0  
@<TRIPOS>SET
CCDC_LIGAND STATIC ATOMS
39 1 2 3 4 5 6 7 8 9 \
10 11 12 13 14 15 16 17 18 19 \
20 21 22 23 24 25 26 27 28 29 \
30 31 32 33 34 35 36 37 38 39 
