#       Name:                CT1002167954
#       Creating user name   hitesit
#       Creation time:       Sun Apr 16 22:59:46 2023


#       File generated by GOLD software.
#

@<TRIPOS>MOLECULE
CT1002167954|ligand_prepared|mol2|1|dock9
    29    30     1
SMALL
NO_CHARGES


@<TRIPOS>ATOM
      1 C1         228.0973  29.1942  12.5568 C.3            1 RES1               0.0000
      2 C2         228.7951  30.5409  12.8365 C.ar           1 RES1               0.0000
      3 C3         227.3857  29.3507  11.2161 C.2            1 RES1               0.0000
      4 C4         229.1952  28.1363  12.5588 C.2            1 RES1               0.0000
      5 C5         227.0511  28.7990  13.6249 C.3            1 RES1               0.0000
      6 C6         228.3176  31.3943  13.8267 C.ar           1 RES1               0.0000
      7 C7         229.9169  30.9416  12.1157 C.ar           1 RES1               0.0000
      8 N8         227.9280  28.7195  10.1356 N.am           1 RES1               0.0000
      9 O9         226.3864  30.0494  11.1007 O.2            1 RES1               0.0000
     10 N10        229.4640  27.4878  11.3820 N.am           1 RES1               0.0000
     11 O11        229.8412  27.8702  13.5648 O.2            1 RES1               0.0000
     12 C12        226.4944  27.3951  13.4479 C.3            1 RES1               0.0000
     13 C13        228.9407  32.6031  14.0889 C.ar           1 RES1               0.0000
     14 C14        230.5384  32.1510  12.3794 C.ar           1 RES1               0.0000
     15 C15        228.9012  27.7531  10.1633 C.2            1 RES1               0.0000
     16 C16        230.0516  32.9821  13.3658 C.ar           1 RES1               0.0000
     17 O17        229.2344  27.1641   9.1390 O.2            1 RES1               0.0000
     18 H18        227.5138  28.8729  14.6168 H              1 RES1               0.0000
     19 H19        226.2209  29.5151  13.5881 H              1 RES1               0.0000
     20 H20        227.4430  31.1140  14.4043 H              1 RES1               0.0000
     21 H21        230.3168  30.3044  11.3343 H              1 RES1               0.0000
     22 H22        227.5776  28.9912   9.2225 H              1 RES1               0.0000
     23 H23        230.1469  26.7376  11.4177 H              1 RES1               0.0000
     24 H24        225.7652  27.1687  14.2230 H              1 RES1               0.0000
     25 H25        226.0046  27.2933  12.4817 H              1 RES1               0.0000
     26 H26        227.2899  26.6548  13.5044 H              1 RES1               0.0000
     27 H27        228.5529  33.2542  14.8653 H              1 RES1               0.0000
     28 H28        231.4121  32.4456  11.8074 H              1 RES1               0.0000
     29 H29        230.5398  33.9290  13.5717 H              1 RES1               0.0000
@<TRIPOS>BOND
    1    1    2 1     
    2    1    3 1     
    3    1    4 1     
    4    1    5 1     
    5    2    6 ar    
    6    2    7 ar    
    7    3    8 1     
    8    3    9 2     
    9    4   10 1     
   10    4   11 2     
   11    5   12 1     
   12    5   18 1     
   13    5   19 1     
   14    6   13 ar    
   15    6   20 1     
   16    7   14 ar    
   17    7   21 1     
   18    8   15 1     
   19    8   22 1     
   20   10   15 1     
   21   10   23 1     
   22   12   24 1     
   23   12   25 1     
   24   12   26 1     
   25   13   16 ar    
   26   13   27 1     
   27   14   16 ar    
   28   14   28 1     
   29   15   17 2     
   30   16   29 1     
@<TRIPOS>SUBSTRUCTURE
      1 RES1           1
@<TRIPOS>SET
DONOR_HYDROGENS      STATIC     ATOMS    <user>   **** ""
2 22 23
ATOM$RED        STATIC     ATOMS    COLORGROUP SYSTEM
2 22 23
@<TRIPOS>COMMENT
> <Gold.Version>
2022.3.0

> <Gold.Id.Protein>
unknown|4d1n_clean|pdb

> <Gold.Protein.RotatedTorsions>
[ 16995 16956 16955 16953 ] final  -46.65 input   60.02 | X-H torsion
[ 18503 18464 18463 18461 ] final  -29.27 input   59.99 | X-H torsion
[ 18563 18529 18530 18531 ] final -164.44 input   85.91 | X-H torsion
[ 18713 18683 18684 18685 ] final  114.05 input  120.10 | X-H torsion
[ 18779 18741 18742 18743 ] final   25.06 input   94.66 | X-H torsion
[ 18963 18915 18916 18917 ] final -116.00 input   99.61 | X-H torsion
[ 19029 19005 19006 19007 ] final -147.93 input  120.28 | X-H torsion
[ 17195 17175 17176 17177 ] final  -84.83 input   50.47 | X-H torsion
[ 17251 17219 17220 17221 ] final   44.96 input  121.85 | X-H torsion
[ 18823 18809 18810 18811 ] final   45.01 input  109.66 | X-H torsion
[ 19103 19061 19062 19063 ] final   72.89 input   93.64 | X-H torsion
[ 18495 18453 18454 18455 ] final   23.93 input  105.49 | X-H torsion
[ 18295 18273 18274 18275 ] final -167.93 input   34.55 | X-H torsion
[ 18327 18313 18314 18315 ] final  162.12 input   52.32 | X-H torsion
[ 18409 18361 18362 18363 ] final   59.44 input   29.77 | X-H torsion
[ 7524 7513 7514 7515 ] final   31.73 input   82.77 | X-H torsion
[ 7477 7455 7456 7457 ] final  124.81 input   99.19 | X-H torsion
[ 18603 18589 18590 18591 ] final  -70.93 input  124.64 | X-H torsion
[ 10105 10094 10093 10090 ] final -160.80 input   59.99 | X-H torsion
[ 18299 18278 18277 18274 ] final  -78.66 input   60.00 | X-H torsion
[ 11477 11459 11460 11461 ] final  -76.73 input   48.11 | X-H torsion
[ 18657 18629 18627 18624 ] final -122.72 input   60.03 | X-H torsion
[ 11425 11414 11413 11410 ] final   68.38 input   60.02 | X-H torsion
[ 18875 18843 18844 18845 ] final  -84.89 input   86.72 | X-H torsion
[ 17303 17281 17282 17283 ] final  -50.17 input   51.85 | X-H torsion
[ 22447 22415 22416 22417 ] final  -47.91 input   56.20 | X-H torsion
[ 18243 18203 18204 18205 ] final  122.12 input   41.90 | X-H torsion
[ 11805 11781 11782 11783 ] final -124.93 input   87.31 | X-H torsion
[ 16987 16945 16946 16947 ] final  146.46 input   84.34 | X-H torsion
[ 27198 18532 18531 18530 ] final  -63.75 input   -0.00 | X-H torsion
[ 27200 18626 18625 18624 ] final -161.20 input    0.00 | X-H torsion
[ 27203 18686 18685 18684 ] final   25.87 input   -0.00 | X-H torsion
[ 27223 17126 17125 17124 ] final -123.29 input    0.00 | X-H torsion
[ 27227 11604 11603 11602 ] final  173.79 input    0.00 | X-H torsion
[ 27231 17052 17051 17050 ] final -122.19 input   -0.00 | X-H torsion
[ 27233 18744 18743 18742 ] final  157.69 input   -0.00 | X-H torsion
[ 27235 18592 18591 18590 ] final -106.78 input   -0.00 | X-H torsion
[ 27238 18918 18917 18916 ] final -176.46 input    0.00 | X-H torsion
[ 27240 19008 19007 19006 ] final   77.62 input    0.00 | X-H torsion
[ 27243 17178 17177 17176 ] final -132.13 input    0.00 | X-H torsion
[ 27245 18364 18363 18362 ] final   83.57 input    0.00 | X-H torsion
[ 27248 11412 11411 11410 ] final -179.30 input   -0.00 | X-H torsion
[ 27250 18206 18205 18204 ] final  -66.55 input   -0.00 | X-H torsion
[ 27254 17222 17221 17220 ] final   46.16 input   -0.00 | X-H torsion
[ 27259 18316 18315 18314 ] final -157.07 input   -0.00 | X-H torsion
[ 27261 18456 18455 18454 ] final  126.33 input    0.00 | X-H torsion
[ 27264 18276 18275 18274 ] final -129.71 input    0.00 | X-H torsion
[ 27267 17016 17015 17014 ] final  134.81 input    0.00 | X-H torsion
[ 27275 16948 16947 16946 ] final   -5.10 input   -0.00 | X-H torsion

> <Gold.Protein.ActiveResidues>
 TRP414  CYS420  VAL421  GLY422  LEU460  SER462  SER482  GLN483  ILE485  ARG486 
 TYR487  ASP500  ASN503  TRP566  TYR567  GLY568  LEU569  PRO570  ALA571  VAL572 
 SER573  ASN574  PHE589  SER590  GLY591  TRP592  TYR593  MET594  GLY595  THR596 
 GLU597  ILE598  GLY599  VAL600  ARG601  ASP602  TYR603  ARG608  ILE653  VAL654 
 TRP683  PRO687  HEM750  H4B760 

> <Gold.Protein.RotatedAtoms>
  232.6834   32.7078   20.0091 H   0  0  0  0  0  0  0  0  0  0  0  0  # atno 7477 bound_to 7455
  232.6287   35.8296   19.7076 H   0  0  0  0  0  0  0  0  0  0  0  0  # atno 7524 bound_to 7513
  229.8401   41.3660   13.2892 H   0  0  0  0  0  0  0  0  0  0  0  0  # atno 10105 bound_to 10094
  221.7598   25.3654    9.3909 H   0  0  0  0  0  0  0  0  0  0  0  0  # atno 11425 bound_to 11414
  220.0878   28.0504    8.8288 H   0  0  0  0  0  0  0  0  0  0  0  0  # atno 11477 bound_to 11459
  224.7171   24.8990    1.9051 H   0  0  0  0  0  0  0  0  0  0  0  0  # atno 11805 bound_to 11781
  230.8007   27.7192    1.3344 H   0  0  0  0  0  0  0  0  0  0  0  0  # atno 16987 bound_to 16945
  228.0064   27.4133    6.8132 H   0  0  0  0  0  0  0  0  0  0  0  0  # atno 16995 bound_to 16956
  226.3954   32.3907    8.8155 H   0  0  0  0  0  0  0  0  0  0  0  0  # atno 17195 bound_to 17175
  223.5146   33.3104   10.6660 H   0  0  0  0  0  0  0  0  0  0  0  0  # atno 17251 bound_to 17219
  220.6173   31.1270   12.0400 H   0  0  0  0  0  0  0  0  0  0  0  0  # atno 17303 bound_to 17281
  220.7798   35.8544   12.2043 H   0  0  0  0  0  0  0  0  0  0  0  0  # atno 18243 bound_to 18203
  223.8083   36.9104   10.8302 H   0  0  0  0  0  0  0  0  0  0  0  0  # atno 18295 bound_to 18273
  224.5391   38.4985    8.3843 H   0  0  0  0  0  0  0  0  0  0  0  0  # atno 18299 bound_to 18278
  227.5849   37.1872   11.5743 H   0  0  0  0  0  0  0  0  0  0  0  0  # atno 18327 bound_to 18313
  231.8671   37.1484   11.2187 H   0  0  0  0  0  0  0  0  0  0  0  0  # atno 18409 bound_to 18361
  234.2594   34.8693    9.1358 H   0  0  0  0  0  0  0  0  0  0  0  0  # atno 18495 bound_to 18453
  230.0733   27.6995    7.8104 H   0  0  0  0  0  0  0  0  0  0  0  0  # atno 18503 bound_to 18464
  235.1884   33.0147   11.8367 H   0  0  0  0  0  0  0  0  0  0  0  0  # atno 18563 bound_to 18529
  237.4304   30.5114   11.1051 H   0  0  0  0  0  0  0  0  0  0  0  0  # atno 18603 bound_to 18589
  238.7619   27.7499   15.0592 H   0  0  0  0  0  0  0  0  0  0  0  0  # atno 18657 bound_to 18629
  236.2824   27.7055   12.0167 H   0  0  0  0  0  0  0  0  0  0  0  0  # atno 18713 bound_to 18683
  236.0892   25.9148   10.1609 H   0  0  0  0  0  0  0  0  0  0  0  0  # atno 18779 bound_to 18741
  237.2978   24.7451    9.4888 H   0  0  0  0  0  0  0  0  0  0  0  0  # atno 18823 bound_to 18809
  238.3885   22.2861    9.6173 H   0  0  0  0  0  0  0  0  0  0  0  0  # atno 18875 bound_to 18843
  236.4981   21.1525   12.1508 H   0  0  0  0  0  0  0  0  0  0  0  0  # atno 18963 bound_to 18915
  232.9318   21.8395   10.7563 H   0  0  0  0  0  0  0  0  0  0  0  0  # atno 19029 bound_to 19005
  235.1617   20.9083    8.4272 H   0  0  0  0  0  0  0  0  0  0  0  0  # atno 19103 bound_to 19061
  239.3165   34.4610    9.3616 H   0  0  0  0  0  0  0  0  0  0  0  0  # atno 22447 bound_to 22415
  227.5446   26.1133    5.9507 LP  0  0  0  0  0  0  0  0  0  0  0  0  # atno 27193 bound_to 16956
  226.4936   27.3339    6.2194 LP  0  0  0  0  0  0  0  0  0  0  0  0  # atno 27194 bound_to 16956
  229.9760   28.4109    6.3505 LP  0  0  0  0  0  0  0  0  0  0  0  0  # atno 27195 bound_to 18464
  229.1320   29.0117    7.6127 LP  0  0  0  0  0  0  0  0  0  0  0  0  # atno 27196 bound_to 18464
  234.9688   31.4399   11.1035 LP  0  0  0  0  0  0  0  0  0  0  0  0  # atno 27197 bound_to 18529
  236.0129   28.9951   12.0656 LP  0  0  0  0  0  0  0  0  0  0  0  0  # atno 27198 bound_to 18532
  236.0283   29.2508   10.3526 LP  0  0  0  0  0  0  0  0  0  0  0  0  # atno 27199 bound_to 18532
  235.8258   24.2637   11.7915 LP  0  0  0  0  0  0  0  0  0  0  0  0  # atno 27200 bound_to 18626
  237.3545   23.9172   12.5283 LP  0  0  0  0  0  0  0  0  0  0  0  0  # atno 27201 bound_to 18626
  236.7166   26.0343   12.2562 LP  0  0  0  0  0  0  0  0  0  0  0  0  # atno 27202 bound_to 18683
  233.0465   24.3964   11.2141 LP  0  0  0  0  0  0  0  0  0  0  0  0  # atno 27203 bound_to 18686
  234.0390   23.7499    9.9504 LP  0  0  0  0  0  0  0  0  0  0  0  0  # atno 27204 bound_to 18686
  234.4416   26.4361    9.9020 LP  0  0  0  0  0  0  0  0  0  0  0  0  # atno 27209 bound_to 18741
  235.7061   22.4709   11.3308 LP  0  0  0  0  0  0  0  0  0  0  0  0  # atno 27210 bound_to 18915
  234.4260   21.5113    9.9145 LP  0  0  0  0  0  0  0  0  0  0  0  0  # atno 27211 bound_to 19005
  226.5839   34.0677   10.1090 LP  0  0  0  0  0  0  0  0  0  0  0  0  # atno 27223 bound_to 17126
  227.4712   34.8273    8.8300 LP  0  0  0  0  0  0  0  0  0  0  0  0  # atno 27224 bound_to 17126
  225.6692   32.1703    7.2474 LP  0  0  0  0  0  0  0  0  0  0  0  0  # atno 27225 bound_to 17175
  224.2659   31.8559   10.0422 LP  0  0  0  0  0  0  0  0  0  0  0  0  # atno 27226 bound_to 17219
  225.2650   27.6083    4.9653 LP  0  0  0  0  0  0  0  0  0  0  0  0  # atno 27227 bound_to 11604
  225.3081   29.3356    4.8435 LP  0  0  0  0  0  0  0  0  0  0  0  0  # atno 27228 bound_to 11604
  226.3957   32.4834    5.7683 LP  0  0  0  0  0  0  0  0  0  0  0  0  # atno 27231 bound_to 17052
  227.4122   31.8223    4.5316 LP  0  0  0  0  0  0  0  0  0  0  0  0  # atno 27232 bound_to 17052
  236.5530   22.2781    7.6667 LP  0  0  0  0  0  0  0  0  0  0  0  0  # atno 27233 bound_to 18744
  234.9214   22.6805    8.0864 LP  0  0  0  0  0  0  0  0  0  0  0  0  # atno 27234 bound_to 18744
  237.3222   26.5609    9.6340 LP  0  0  0  0  0  0  0  0  0  0  0  0  # atno 27235 bound_to 18592
  238.9857   26.5359    9.1521 LP  0  0  0  0  0  0  0  0  0  0  0  0  # atno 27236 bound_to 18592
  236.9852   24.7383    7.7700 LP  0  0  0  0  0  0  0  0  0  0  0  0  # atno 27237 bound_to 18809
  232.9541   19.1706    9.6323 LP  0  0  0  0  0  0  0  0  0  0  0  0  # atno 27238 bound_to 18918
  233.5051   18.7050   11.2069 LP  0  0  0  0  0  0  0  0  0  0  0  0  # atno 27239 bound_to 18918
  232.1733   19.6251    6.4123 LP  0  0  0  0  0  0  0  0  0  0  0  0  # atno 27240 bound_to 19008
  232.6779   18.4856    7.6151 LP  0  0  0  0  0  0  0  0  0  0  0  0  # atno 27241 bound_to 19008
  233.7069   20.5265    7.5390 LP  0  0  0  0  0  0  0  0  0  0  0  0  # atno 27242 bound_to 19061
  221.5437   32.0080    9.0755 LP  0  0  0  0  0  0  0  0  0  0  0  0  # atno 27243 bound_to 17178
  222.6452   31.4254    7.8724 LP  0  0  0  0  0  0  0  0  0  0  0  0  # atno 27244 bound_to 17178
  232.0561   34.5218   11.6661 LP  0  0  0  0  0  0  0  0  0  0  0  0  # atno 27245 bound_to 18364
  233.6426   35.1763   11.8995 LP  0  0  0  0  0  0  0  0  0  0  0  0  # atno 27246 bound_to 18364
  232.6441   34.2042    9.0861 LP  0  0  0  0  0  0  0  0  0  0  0  0  # atno 27247 bound_to 18453
  221.4521   29.1787   10.5462 LP  0  0  0  0  0  0  0  0  0  0  0  0  # atno 27248 bound_to 11412
  220.3494   28.2769   11.5315 LP  0  0  0  0  0  0  0  0  0  0  0  0  # atno 27249 bound_to 11412
  223.9310   34.8317   11.9460 LP  0  0  0  0  0  0  0  0  0  0  0  0  # atno 27250 bound_to 18206
  223.9109   34.9695   10.2196 LP  0  0  0  0  0  0  0  0  0  0  0  0  # atno 27251 bound_to 18206
  221.6035   33.9440   11.1492 LP  0  0  0  0  0  0  0  0  0  0  0  0  # atno 27254 bound_to 17222
  220.2702   33.5171   12.1690 LP  0  0  0  0  0  0  0  0  0  0  0  0  # atno 27255 bound_to 17222
  224.6078   38.3836   11.3132 LP  0  0  0  0  0  0  0  0  0  0  0  0  # atno 27256 bound_to 18273
  228.0422   36.7924    9.9330 LP  0  0  0  0  0  0  0  0  0  0  0  0  # atno 27257 bound_to 18313
  230.5685   36.9566   10.0608 LP  0  0  0  0  0  0  0  0  0  0  0  0  # atno 27258 bound_to 18361
  230.6474   37.2108    7.9935 LP  0  0  0  0  0  0  0  0  0  0  0  0  # atno 27259 bound_to 18316
  229.6331   38.5343    8.4622 LP  0  0  0  0  0  0  0  0  0  0  0  0  # atno 27260 bound_to 18316
  236.6312   34.4080   11.0485 LP  0  0  0  0  0  0  0  0  0  0  0  0  # atno 27261 bound_to 18456
  236.6535   33.7835    9.4331 LP  0  0  0  0  0  0  0  0  0  0  0  0  # atno 27262 bound_to 18456
  234.1251   35.1649   19.0952 LP  0  0  0  0  0  0  0  0  0  0  0  0  # atno 27263 bound_to 7513
  227.5415   39.7284   10.5187 LP  0  0  0  0  0  0  0  0  0  0  0  0  # atno 27264 bound_to 18276
  226.2012   39.3808   11.5592 LP  0  0  0  0  0  0  0  0  0  0  0  0  # atno 27265 bound_to 18276
  232.0388   34.2057   20.6379 LP  0  0  0  0  0  0  0  0  0  0  0  0  # atno 27266 bound_to 7455
  231.2720   34.8434    5.3228 LP  0  0  0  0  0  0  0  0  0  0  0  0  # atno 27267 bound_to 17016
  232.4034   33.5330    5.2728 LP  0  0  0  0  0  0  0  0  0  0  0  0  # atno 27268 bound_to 17016
  239.1238   30.8371   11.3782 LP  0  0  0  0  0  0  0  0  0  0  0  0  # atno 27269 bound_to 18589
  230.4178   42.1817   12.0058 LP  0  0  0  0  0  0  0  0  0  0  0  0  # atno 27270 bound_to 10094
  229.7338   40.7128   11.8032 LP  0  0  0  0  0  0  0  0  0  0  0  0  # atno 27271 bound_to 10094
  225.7360   38.3217    7.2957 LP  0  0  0  0  0  0  0  0  0  0  0  0  # atno 27272 bound_to 18278
  226.0507   38.9696    8.7613 LP  0  0  0  0  0  0  0  0  0  0  0  0  # atno 27273 bound_to 18278
  221.4231   26.9894    8.4092 LP  0  0  0  0  0  0  0  0  0  0  0  0  # atno 27274 bound_to 11459
  231.6191   29.5331    3.6103 LP  0  0  0  0  0  0  0  0  0  0  0  0  # atno 27275 bound_to 16948
  232.1973   31.1339    3.9312 LP  0  0  0  0  0  0  0  0  0  0  0  0  # atno 27276 bound_to 16948

> <Gold.Score>
     Fitness  S(hb_ext) S(vdw_ext)  S(hb_int)    S(int)      intcor
     42.29       2.81      29.20       0.00      -0.67      -0.76

> <Gold.Goldscore.Fitness>
42.2874

> <Gold.Goldscore.Internal.Vdw>
-0.9753

> <Gold.Goldscore.Internal.Torsion>
-0.4523

> <Gold.Goldscore.External.Vdw>
29.1993

> <Gold.Goldscore.Internal.HBond>
0.0000

> <Gold.Goldscore.External.HBond>
2.8106

> <Gold.Goldscore.Internal.Correction>
-0.7554

> <Gold.Goldscore.Hbonds>
donor molecule, donor type, donor heavy atom, donor atom, acceptor molecule, acceptor atom, score
      P1  H 11466 11483       L1    17  0.31
      P1  H 16956 16995       L1    17  0.29
      P1  H 18464 18503       L1    17  0.03
      L1  H     8    22       P1 11467  0.26

> <Gold.Goldscore.Internal.Vdw.Weighted>
-0.9753

> <Gold.Goldscore.Internal.Torsion.Weighted>
-0.4523

> <Gold.Goldscore.External.Vdw.Weighted>
40.1490

> <Gold.Goldscore.Internal.HBond.Weighted>
0.0000

> <Gold.Goldscore.External.HBond.Weighted>
2.8106

> <Gold.Goldscore.Internal.Correction.Weighted>
-0.7554

> <Gold.Rescore>
     Score     S(PLP)   S(hbond)     S(cho)   S(metal)  DE(clash)   DE(tors)     intcor
     12.15      -9.03       1.09       0.00       0.00       0.00       0.08       ----

> <Gold.PLP.Fitness>
12.1468

> <Gold.PLP.PLP>
-9.0276

> <Gold.PLP.part.hbond>
-3.2464

> <Gold.PLP.part.metal>
0.0000

> <Gold.PLP.part.buried>
23.8093

> <Gold.PLP.part.nonpolar>
-41.6200

> <Gold.PLP.part.repulsive>
12.8479

> <Gold.PLP.ligand.clash>
0.0000

> <Gold.PLP.ligand.torsion>
0.0771

> <Gold.PLP.Chemscore.Hbond>
1.0912

> <Gold.PLP.Chemscore.CHOScore>
0.0000

> <Gold.PLP.Chemscore.Metal>
0.0000

> <Gold.Chemscore.Hbonds>
donor molecule, donor type, donor heavy atom, donor atom, acceptor molecule, acceptor atom, score
      L1  H     8    22       P1 11467  0.60
      P1  H 18464 18503       L1    17  0.56

> <Gold.PLP.Chemscore.Internal.Correction>
   9.000000E+99

#       Name:                CT1002167954
#       Creating user name   hitesit
#       Creation time:       Sun Apr 16 22:59:45 2023


#       File generated by GOLD software.
#

@<TRIPOS>MOLECULE
CT1002167954|ligand_prepared|mol2|1|dock8
    29    30     1
SMALL
NO_CHARGES


@<TRIPOS>ATOM
      1 C1         228.8658  32.1148  13.0131 C.3            1 RES1               0.0000
      2 C2         228.3019  30.7161  13.3364 C.ar           1 RES1               0.0000
      3 C3         227.7686  32.8538  12.2528 C.2            1 RES1               0.0000
      4 C4         229.2298  32.7478  14.3516 C.2            1 RES1               0.0000
      5 C5         230.1389  32.0877  12.1355 C.3            1 RES1               0.0000
      6 C6         227.3498  30.5500  14.3376 C.ar           1 RES1               0.0000
      7 C7         228.7215  29.5849  12.6413 C.ar           1 RES1               0.0000
      8 N8         227.0904  33.8337  12.9159 N.am           1 RES1               0.0000
      9 O9         227.4761  32.5546  11.1016 O.2            1 RES1               0.0000
     10 N10        228.5233  33.8510  14.7534 N.am           1 RES1               0.0000
     11 O11        230.1109  32.2912  15.0696 O.2            1 RES1               0.0000
     12 C12        230.8415  33.4323  12.0329 C.3            1 RES1               0.0000
     13 C13        226.8335  29.2988  14.6315 C.ar           1 RES1               0.0000
     14 C14        228.2040  28.3346  12.9370 C.ar           1 RES1               0.0000
     15 C15        227.4496  34.4043  14.1106 C.2            1 RES1               0.0000
     16 C16        227.2598  28.1905  13.9312 C.ar           1 RES1               0.0000
     17 O17        226.8312  35.3637  14.5624 O.2            1 RES1               0.0000
     18 H18        230.8396  31.3539  12.5524 H              1 RES1               0.0000
     19 H19        229.8653  31.7545  11.1267 H              1 RES1               0.0000
     20 H20        227.0040  31.4102  14.9010 H              1 RES1               0.0000
     21 H21        229.4642  29.6743  11.8558 H              1 RES1               0.0000
     22 H22        226.2372  34.1736  12.4837 H              1 RES1               0.0000
     23 H23        228.8259  34.3016  15.6111 H              1 RES1               0.0000
     24 H24        231.7278  33.3575  11.4062 H              1 RES1               0.0000
     25 H25        230.1815  34.1803  11.5986 H              1 RES1               0.0000
     26 H26        231.1501  33.7822  13.0159 H              1 RES1               0.0000
     27 H27        226.0916  29.1905  15.4158 H              1 RES1               0.0000
     28 H28        228.5429  27.4650  12.3837 H              1 RES1               0.0000
     29 H29        226.8549  27.2105  14.1614 H              1 RES1               0.0000
@<TRIPOS>BOND
    1    1    2 1     
    2    1    3 1     
    3    1    4 1     
    4    1    5 1     
    5    2    6 ar    
    6    2    7 ar    
    7    3    8 1     
    8    3    9 2     
    9    4   10 1     
   10    4   11 2     
   11    5   12 1     
   12    5   18 1     
   13    5   19 1     
   14    6   13 ar    
   15    6   20 1     
   16    7   14 ar    
   17    7   21 1     
   18    8   15 1     
   19    8   22 1     
   20   10   15 1     
   21   10   23 1     
   22   12   24 1     
   23   12   25 1     
   24   12   26 1     
   25   13   16 ar    
   26   13   27 1     
   27   14   16 ar    
   28   14   28 1     
   29   15   17 2     
   30   16   29 1     
@<TRIPOS>SUBSTRUCTURE
      1 RES1           1
@<TRIPOS>SET
DONOR_HYDROGENS      STATIC     ATOMS    <user>   **** ""
2 22 23
ATOM$RED        STATIC     ATOMS    COLORGROUP SYSTEM
2 22 23
@<TRIPOS>COMMENT
> <Gold.Version>
2022.3.0

> <Gold.Id.Protein>
unknown|4d1n_clean|pdb

> <Gold.Protein.RotatedTorsions>
[ 16995 16956 16955 16953 ] final  101.36 input   60.02 | X-H torsion
[ 18503 18464 18463 18461 ] final   76.73 input   59.99 | X-H torsion
[ 18563 18529 18530 18531 ] final  -51.77 input   85.91 | X-H torsion
[ 18713 18683 18684 18685 ] final  165.26 input  120.10 | X-H torsion
[ 18779 18741 18742 18743 ] final   37.58 input   94.66 | X-H torsion
[ 18963 18915 18916 18917 ] final  111.15 input   99.61 | X-H torsion
[ 19029 19005 19006 19007 ] final   46.11 input  120.28 | X-H torsion
[ 17195 17175 17176 17177 ] final  -94.82 input   50.47 | X-H torsion
[ 17251 17219 17220 17221 ] final  -80.21 input  121.85 | X-H torsion
[ 18823 18809 18810 18811 ] final -166.17 input  109.66 | X-H torsion
[ 19103 19061 19062 19063 ] final -114.85 input   93.64 | X-H torsion
[ 18495 18453 18454 18455 ] final -126.90 input  105.49 | X-H torsion
[ 18295 18273 18274 18275 ] final  -70.26 input   34.55 | X-H torsion
[ 18327 18313 18314 18315 ] final  137.77 input   52.32 | X-H torsion
[ 18409 18361 18362 18363 ] final  -93.32 input   29.77 | X-H torsion
[ 7524 7513 7514 7515 ] final   34.66 input   82.77 | X-H torsion
[ 7477 7455 7456 7457 ] final -109.78 input   99.19 | X-H torsion
[ 18603 18589 18590 18591 ] final  -93.98 input  124.64 | X-H torsion
[ 10105 10094 10093 10090 ] final   41.42 input   59.99 | X-H torsion
[ 18299 18278 18277 18274 ] final  115.16 input   60.00 | X-H torsion
[ 11477 11459 11460 11461 ] final -168.03 input   48.11 | X-H torsion
[ 18657 18629 18627 18624 ] final   93.51 input   60.03 | X-H torsion
[ 11425 11414 11413 11410 ] final  -97.85 input   60.02 | X-H torsion
[ 18875 18843 18844 18845 ] final -129.33 input   86.72 | X-H torsion
[ 17303 17281 17282 17283 ] final  -87.02 input   51.85 | X-H torsion
[ 22447 22415 22416 22417 ] final  -81.88 input   56.20 | X-H torsion
[ 18243 18203 18204 18205 ] final   54.63 input   41.90 | X-H torsion
[ 11805 11781 11782 11783 ] final -106.80 input   87.31 | X-H torsion
[ 16987 16945 16946 16947 ] final    0.80 input   84.34 | X-H torsion
[ 27198 18532 18531 18530 ] final -157.77 input   -0.00 | X-H torsion
[ 27200 18626 18625 18624 ] final  128.87 input    0.00 | X-H torsion
[ 27203 18686 18685 18684 ] final   19.05 input   -0.00 | X-H torsion
[ 27223 17126 17125 17124 ] final  -15.98 input    0.00 | X-H torsion
[ 27227 11604 11603 11602 ] final -136.91 input    0.00 | X-H torsion
[ 27231 17052 17051 17050 ] final -146.72 input   -0.00 | X-H torsion
[ 27233 18744 18743 18742 ] final  -84.90 input   -0.00 | X-H torsion
[ 27235 18592 18591 18590 ] final  172.39 input   -0.00 | X-H torsion
[ 27238 18918 18917 18916 ] final  -11.67 input    0.00 | X-H torsion
[ 27240 19008 19007 19006 ] final    5.14 input    0.00 | X-H torsion
[ 27243 17178 17177 17176 ] final   38.30 input    0.00 | X-H torsion
[ 27245 18364 18363 18362 ] final -118.94 input    0.00 | X-H torsion
[ 27248 11412 11411 11410 ] final  -51.46 input   -0.00 | X-H torsion
[ 27250 18206 18205 18204 ] final -108.01 input   -0.00 | X-H torsion
[ 27254 17222 17221 17220 ] final  -99.49 input   -0.00 | X-H torsion
[ 27259 18316 18315 18314 ] final   92.96 input   -0.00 | X-H torsion
[ 27261 18456 18455 18454 ] final   68.94 input    0.00 | X-H torsion
[ 27264 18276 18275 18274 ] final  -66.97 input    0.00 | X-H torsion
[ 27267 17016 17015 17014 ] final   89.13 input    0.00 | X-H torsion
[ 27275 16948 16947 16946 ] final -146.13 input   -0.00 | X-H torsion

> <Gold.Protein.ActiveResidues>
 TRP414  CYS420  VAL421  GLY422  LEU460  SER462  SER482  GLN483  ILE485  ARG486 
 TYR487  ASP500  ASN503  TRP566  TYR567  GLY568  LEU569  PRO570  ALA571  VAL572 
 SER573  ASN574  PHE589  SER590  GLY591  TRP592  TYR593  MET594  GLY595  THR596 
 GLU597  ILE598  GLY599  VAL600  ARG601  ASP602  TYR603  ARG608  ILE653  VAL654 
 TRP683  PRO687  HEM750  H4B760 

> <Gold.Protein.RotatedAtoms>
  232.1705   33.6268   21.1767 H   0  0  0  0  0  0  0  0  0  0  0  0  # atno 7477 bound_to 7455
  232.6069   35.8085   19.6738 H   0  0  0  0  0  0  0  0  0  0  0  0  # atno 7524 bound_to 7513
  230.2874   41.7897   11.5597 H   0  0  0  0  0  0  0  0  0  0  0  0  # atno 10105 bound_to 10094
  220.5194   24.0880    8.8557 H   0  0  0  0  0  0  0  0  0  0  0  0  # atno 11425 bound_to 11414
  221.1378   27.6095    9.4309 H   0  0  0  0  0  0  0  0  0  0  0  0  # atno 11477 bound_to 11459
  224.4547   24.8182    1.9695 H   0  0  0  0  0  0  0  0  0  0  0  0  # atno 11805 bound_to 11781
  232.0340   28.4731    2.2058 H   0  0  0  0  0  0  0  0  0  0  0  0  # atno 16987 bound_to 16945
  226.4747   26.9373    5.9976 H   0  0  0  0  0  0  0  0  0  0  0  0  # atno 16995 bound_to 16956
  226.4547   32.5172    8.7556 H   0  0  0  0  0  0  0  0  0  0  0  0  # atno 17195 bound_to 17175
  223.6106   32.1054    9.6417 H   0  0  0  0  0  0  0  0  0  0  0  0  # atno 17251 bound_to 17219
  220.8248   31.6035   11.8399 H   0  0  0  0  0  0  0  0  0  0  0  0  # atno 17303 bound_to 17281
  221.4103   35.2856   11.7106 H   0  0  0  0  0  0  0  0  0  0  0  0  # atno 18243 bound_to 18203
  224.4659   37.3899   11.8709 H   0  0  0  0  0  0  0  0  0  0  0  0  # atno 18295 bound_to 18273
  226.2721   38.6001    7.7181 H   0  0  0  0  0  0  0  0  0  0  0  0  # atno 18299 bound_to 18278
  227.7677   36.8640   11.6190 H   0  0  0  0  0  0  0  0  0  0  0  0  # atno 18327 bound_to 18313
  230.5487   36.5894   10.2502 H   0  0  0  0  0  0  0  0  0  0  0  0  # atno 18409 bound_to 18361
  232.6571   34.3831    9.4884 H   0  0  0  0  0  0  0  0  0  0  0  0  # atno 18495 bound_to 18453
  229.1695   28.8901    7.8031 H   0  0  0  0  0  0  0  0  0  0  0  0  # atno 18503 bound_to 18464
  235.4154   32.1681   10.6421 H   0  0  0  0  0  0  0  0  0  0  0  0  # atno 18563 bound_to 18529
  237.4978   30.7485   10.8540 H   0  0  0  0  0  0  0  0  0  0  0  0  # atno 18603 bound_to 18589
  237.2795   26.7685   14.9680 H   0  0  0  0  0  0  0  0  0  0  0  0  # atno 18657 bound_to 18629
  236.2582   27.4607   12.7321 H   0  0  0  0  0  0  0  0  0  0  0  0  # atno 18713 bound_to 18683
  236.1331   26.0790   10.0702 H   0  0  0  0  0  0  0  0  0  0  0  0  # atno 18779 bound_to 18741
  237.3047   25.0790    7.8210 H   0  0  0  0  0  0  0  0  0  0  0  0  # atno 18823 bound_to 18809
  238.9369   22.5261    9.9175 H   0  0  0  0  0  0  0  0  0  0  0  0  # atno 18875 bound_to 18843
  235.8020   22.5903   12.0110 H   0  0  0  0  0  0  0  0  0  0  0  0  # atno 18963 bound_to 18915
  234.4353   21.7210    9.8723 H   0  0  0  0  0  0  0  0  0  0  0  0  # atno 19029 bound_to 19005
  233.7233   20.6103    7.4555 H   0  0  0  0  0  0  0  0  0  0  0  0  # atno 19103 bound_to 19061
  239.4356   34.9423    9.2165 H   0  0  0  0  0  0  0  0  0  0  0  0  # atno 22447 bound_to 22415
  227.6481   27.6927    6.8342 LP  0  0  0  0  0  0  0  0  0  0  0  0  # atno 27193 bound_to 16956
  227.9332   26.2340    6.1577 LP  0  0  0  0  0  0  0  0  0  0  0  0  # atno 27194 bound_to 16956
  230.1814   27.6293    7.6211 LP  0  0  0  0  0  0  0  0  0  0  0  0  # atno 27195 bound_to 18464
  229.8371   28.5939    6.3493 LP  0  0  0  0  0  0  0  0  0  0  0  0  # atno 27196 bound_to 18464
  234.7493   32.2586   12.2588 LP  0  0  0  0  0  0  0  0  0  0  0  0  # atno 27197 bound_to 18529
  236.6649   28.5613   11.0696 LP  0  0  0  0  0  0  0  0  0  0  0  0  # atno 27198 bound_to 18532
  235.3763   29.6845   11.3485 LP  0  0  0  0  0  0  0  0  0  0  0  0  # atno 27199 bound_to 18532
  235.9864   24.2087   12.7695 LP  0  0  0  0  0  0  0  0  0  0  0  0  # atno 27200 bound_to 18626
  237.1938   23.9722   11.5503 LP  0  0  0  0  0  0  0  0  0  0  0  0  # atno 27201 bound_to 18626
  236.7406   26.2770   11.5469 LP  0  0  0  0  0  0  0  0  0  0  0  0  # atno 27202 bound_to 18683
  233.1109   24.3502   11.2799 LP  0  0  0  0  0  0  0  0  0  0  0  0  # atno 27203 bound_to 18686
  233.9747   23.7960    9.8846 LP  0  0  0  0  0  0  0  0  0  0  0  0  # atno 27204 bound_to 18686
  234.3986   26.2756    9.9907 LP  0  0  0  0  0  0  0  0  0  0  0  0  # atno 27209 bound_to 18741
  236.3969   21.0440   11.4695 LP  0  0  0  0  0  0  0  0  0  0  0  0  # atno 27210 bound_to 18915
  232.9485   21.6278   10.7831 LP  0  0  0  0  0  0  0  0  0  0  0  0  # atno 27211 bound_to 19005
  227.8632   34.2509    9.5835 LP  0  0  0  0  0  0  0  0  0  0  0  0  # atno 27223 bound_to 17126
  226.1919   34.6441    9.3555 LP  0  0  0  0  0  0  0  0  0  0  0  0  # atno 27224 bound_to 17126
  225.6101   32.0443    7.3072 LP  0  0  0  0  0  0  0  0  0  0  0  0  # atno 27225 bound_to 17175
  224.1735   33.0160   11.0284 LP  0  0  0  0  0  0  0  0  0  0  0  0  # atno 27226 bound_to 17219
  225.7750   27.8666    4.5237 LP  0  0  0  0  0  0  0  0  0  0  0  0  # atno 27227 bound_to 11604
  224.7981   29.0773    5.2852 LP  0  0  0  0  0  0  0  0  0  0  0  0  # atno 27228 bound_to 11604
  226.5511   32.1972    5.9396 LP  0  0  0  0  0  0  0  0  0  0  0  0  # atno 27231 bound_to 17052
  227.2568   32.1085    4.3603 LP  0  0  0  0  0  0  0  0  0  0  0  0  # atno 27232 bound_to 17052
  235.4920   22.3464    8.6965 LP  0  0  0  0  0  0  0  0  0  0  0  0  # atno 27233 bound_to 18744
  235.9823   22.6122    7.0566 LP  0  0  0  0  0  0  0  0  0  0  0  0  # atno 27234 bound_to 18744
  238.1888   25.9729   10.0392 LP  0  0  0  0  0  0  0  0  0  0  0  0  # atno 27235 bound_to 18592
  238.1191   27.1239    8.7468 LP  0  0  0  0  0  0  0  0  0  0  0  0  # atno 27236 bound_to 18592
  236.9785   24.4115    9.4021 LP  0  0  0  0  0  0  0  0  0  0  0  0  # atno 27237 bound_to 18809
  233.7038   18.6776   11.0960 LP  0  0  0  0  0  0  0  0  0  0  0  0  # atno 27238 bound_to 18918
  232.7554   19.1980    9.7432 LP  0  0  0  0  0  0  0  0  0  0  0  0  # atno 27239 bound_to 18918
  231.6957   19.4263    7.2960 LP  0  0  0  0  0  0  0  0  0  0  0  0  # atno 27240 bound_to 19008
  233.1555   18.6844    6.7314 LP  0  0  0  0  0  0  0  0  0  0  0  0  # atno 27241 bound_to 19008
  235.1151   20.8184    8.4904 LP  0  0  0  0  0  0  0  0  0  0  0  0  # atno 27242 bound_to 19061
  222.6191   31.5505    7.8053 LP  0  0  0  0  0  0  0  0  0  0  0  0  # atno 27243 bound_to 17178
  221.5698   31.8828    9.1426 LP  0  0  0  0  0  0  0  0  0  0  0  0  # atno 27244 bound_to 17178
  233.7106   34.8461   11.8741 LP  0  0  0  0  0  0  0  0  0  0  0  0  # atno 27245 bound_to 18364
  231.9882   34.8520   11.6915 LP  0  0  0  0  0  0  0  0  0  0  0  0  # atno 27246 bound_to 18364
  234.2092   34.6791    8.7417 LP  0  0  0  0  0  0  0  0  0  0  0  0  # atno 27247 bound_to 18453
  220.0612   28.8873   11.1792 LP  0  0  0  0  0  0  0  0  0  0  0  0  # atno 27248 bound_to 11412
  221.7403   28.5683   10.8985 LP  0  0  0  0  0  0  0  0  0  0  0  0  # atno 27249 bound_to 11412
  224.4972   34.9214   11.7289 LP  0  0  0  0  0  0  0  0  0  0  0  0  # atno 27250 bound_to 18206
  223.3446   34.8798   10.4367 LP  0  0  0  0  0  0  0  0  0  0  0  0  # atno 27251 bound_to 18206
  220.6838   33.5517   12.4678 LP  0  0  0  0  0  0  0  0  0  0  0  0  # atno 27254 bound_to 17222
  221.1898   33.9095   10.8504 LP  0  0  0  0  0  0  0  0  0  0  0  0  # atno 27255 bound_to 17222
  223.9582   37.9099   10.2851 LP  0  0  0  0  0  0  0  0  0  0  0  0  # atno 27256 bound_to 18273
  227.8644   37.1066    9.8896 LP  0  0  0  0  0  0  0  0  0  0  0  0  # atno 27257 bound_to 18313
  231.8446   37.4977   10.9983 LP  0  0  0  0  0  0  0  0  0  0  0  0  # atno 27258 bound_to 18361
  230.6090   38.5985    8.2853 LP  0  0  0  0  0  0  0  0  0  0  0  0  # atno 27259 bound_to 18316
  229.6716   37.1466    8.1704 LP  0  0  0  0  0  0  0  0  0  0  0  0  # atno 27260 bound_to 18316
  236.1247   34.7467   10.4824 LP  0  0  0  0  0  0  0  0  0  0  0  0  # atno 27261 bound_to 18456
  237.1600   33.4449    9.9993 LP  0  0  0  0  0  0  0  0  0  0  0  0  # atno 27262 bound_to 18456
  234.1464   35.1855   19.1281 LP  0  0  0  0  0  0  0  0  0  0  0  0  # atno 27263 bound_to 7513
  226.6988   39.6869   10.2007 LP  0  0  0  0  0  0  0  0  0  0  0  0  # atno 27264 bound_to 18276
  227.0439   39.4224   11.8772 LP  0  0  0  0  0  0  0  0  0  0  0  0  # atno 27265 bound_to 18276
  232.5396   33.3086   19.4982 LP  0  0  0  0  0  0  0  0  0  0  0  0  # atno 27266 bound_to 7455
  231.8272   34.9911    4.9735 LP  0  0  0  0  0  0  0  0  0  0  0  0  # atno 27267 bound_to 17016
  231.8483   33.3853    5.6221 LP  0  0  0  0  0  0  0  0  0  0  0  0  # atno 27268 bound_to 17016
  239.0576   30.6041   11.6250 LP  0  0  0  0  0  0  0  0  0  0  0  0  # atno 27269 bound_to 18589
  229.5851   40.5720   12.3783 LP  0  0  0  0  0  0  0  0  0  0  0  0  # atno 27270 bound_to 10094
  230.1158   41.8956   13.1739 LP  0  0  0  0  0  0  0  0  0  0  0  0  # atno 27271 bound_to 10094
  225.3615   38.9292    9.0263 LP  0  0  0  0  0  0  0  0  0  0  0  0  # atno 27272 bound_to 18278
  224.6806   38.2598    7.7015 LP  0  0  0  0  0  0  0  0  0  0  0  0  # atno 27273 bound_to 18278
  220.4266   27.4079    7.8377 LP  0  0  0  0  0  0  0  0  0  0  0  0  # atno 27274 bound_to 11459
  231.6539   31.0838    4.1206 LP  0  0  0  0  0  0  0  0  0  0  0  0  # atno 27275 bound_to 16948
  232.1625   29.5832    3.4210 LP  0  0  0  0  0  0  0  0  0  0  0  0  # atno 27276 bound_to 16948

> <Gold.Score>
     Fitness  S(hb_ext) S(vdw_ext)  S(hb_int)    S(int)      intcor
     38.78       0.97      27.62       0.00      -0.17      -0.76

> <Gold.Goldscore.Fitness>
38.7776

> <Gold.Goldscore.Internal.Vdw>
-0.3748

> <Gold.Goldscore.Internal.Torsion>
-0.5492

> <Gold.Goldscore.External.Vdw>
27.6211

> <Gold.Goldscore.Internal.HBond>
0.0000

> <Gold.Goldscore.External.HBond>
0.9671

> <Gold.Goldscore.Internal.Correction>
-0.7554

> <Gold.Goldscore.Hbonds>
donor molecule, donor type, donor heavy atom, donor atom, acceptor molecule, acceptor atom, score
      P1  H 17175 17195       L1     9  0.17
      L1  H     8    22       P1 18206  0.32

> <Gold.Goldscore.Internal.Vdw.Weighted>
-0.3748

> <Gold.Goldscore.Internal.Torsion.Weighted>
-0.5492

> <Gold.Goldscore.External.Vdw.Weighted>
37.9791

> <Gold.Goldscore.Internal.HBond.Weighted>
0.0000

> <Gold.Goldscore.External.HBond.Weighted>
0.9671

> <Gold.Goldscore.Internal.Correction.Weighted>
-0.7554

> <Gold.Rescore>
     Score     S(PLP)   S(hbond)     S(cho)   S(metal)  DE(clash)   DE(tors)     intcor
     31.68     -23.26       1.08       0.00       1.00       0.00       0.41       ----

> <Gold.PLP.Fitness>
31.6793

> <Gold.PLP.PLP>
-23.2575

> <Gold.PLP.part.hbond>
-2.8279

> <Gold.PLP.part.metal>
-1.0000

> <Gold.PLP.part.buried>
23.2535

> <Gold.PLP.part.nonpolar>
-45.5341

> <Gold.PLP.part.repulsive>
0.4939

> <Gold.PLP.ligand.clash>
0.0000

> <Gold.PLP.ligand.torsion>
0.4130

> <Gold.PLP.Chemscore.Hbond>
1.0826

> <Gold.PLP.Chemscore.CHOScore>
0.0000

> <Gold.PLP.Chemscore.Metal>
1.0000

> <Gold.Chemscore.Hbonds>
donor molecule, donor type, donor heavy atom, donor atom, acceptor molecule, acceptor atom, score
      P1  M 26885 26885       L1    11  0.23

> <Gold.PLP.Chemscore.Internal.Correction>
   9.000000E+99

#       Name:                CT1002167954
#       Creating user name   hitesit
#       Creation time:       Sun Apr 16 22:59:43 2023


#       File generated by GOLD software.
#

@<TRIPOS>MOLECULE
CT1002167954|ligand_prepared|mol2|1|dock5
    29    30     1
SMALL
NO_CHARGES


@<TRIPOS>ATOM
      1 C1         228.3836  32.4499  13.6994 C.3            1 RES1               0.0000
      2 C2         228.1774  31.1154  12.9542 C.ar           1 RES1               0.0000
      3 C3         229.8922  32.6452  13.8188 C.2            1 RES1               0.0000
      4 C4         227.6822  33.5167  12.8660 C.2            1 RES1               0.0000
      5 C5         227.7714  32.4738  15.1193 C.3            1 RES1               0.0000
      6 C6         227.5853  31.0911  11.6950 C.ar           1 RES1               0.0000
      7 C7         228.5757  29.9030  13.5110 C.ar           1 RES1               0.0000
      8 N8         230.4733  33.5830  13.0169 N.am           1 RES1               0.0000
      9 O9         230.5674  31.9594  14.5764 O.2            1 RES1               0.0000
     10 N10        228.4550  34.4848  12.2801 N.am           1 RES1               0.0000
     11 O11        226.4690  33.5181  12.6977 O.2            1 RES1               0.0000
     12 C12        226.4253  31.7735  15.2184 C.3            1 RES1               0.0000
     13 C13        227.4007  29.8983  11.0157 C.ar           1 RES1               0.0000
     14 C14        228.3900  28.7112  12.8300 C.ar           1 RES1               0.0000
     15 C15        229.8218  34.5486  12.2925 C.2            1 RES1               0.0000
     16 C16        227.8033  28.7077  11.5824 C.ar           1 RES1               0.0000
     17 O17        230.4483  35.4197  11.6960 O.2            1 RES1               0.0000
     18 H18        228.4714  31.9932  15.8138 H              1 RES1               0.0000
     19 H19        227.6502  33.5177  15.4341 H              1 RES1               0.0000
     20 H20        227.2599  32.0178  11.2342 H              1 RES1               0.0000
     21 H21        229.0384  29.8815  14.4918 H              1 RES1               0.0000
     22 H22        231.4860  33.5645  12.9496 H              1 RES1               0.0000
     23 H23        227.9661  35.2268  11.7894 H              1 RES1               0.0000
     24 H24        226.0405  31.8195  16.2351 H              1 RES1               0.0000
     25 H25        225.6974  32.2417  14.5591 H              1 RES1               0.0000
     26 H26        226.5137  30.7263  14.9366 H              1 RES1               0.0000
     27 H27        226.9373  29.9008  10.0346 H              1 RES1               0.0000
     28 H28        228.7078  27.7765  13.2801 H              1 RES1               0.0000
     29 H29        227.6590  27.7735  11.0498 H              1 RES1               0.0000
@<TRIPOS>BOND
    1    1    2 1     
    2    1    3 1     
    3    1    4 1     
    4    1    5 1     
    5    2    6 ar    
    6    2    7 ar    
    7    3    8 1     
    8    3    9 2     
    9    4   10 1     
   10    4   11 2     
   11    5   12 1     
   12    5   18 1     
   13    5   19 1     
   14    6   13 ar    
   15    6   20 1     
   16    7   14 ar    
   17    7   21 1     
   18    8   15 1     
   19    8   22 1     
   20   10   15 1     
   21   10   23 1     
   22   12   24 1     
   23   12   25 1     
   24   12   26 1     
   25   13   16 ar    
   26   13   27 1     
   27   14   16 ar    
   28   14   28 1     
   29   15   17 2     
   30   16   29 1     
@<TRIPOS>SUBSTRUCTURE
      1 RES1           1
@<TRIPOS>SET
DONOR_HYDROGENS      STATIC     ATOMS    <user>   **** ""
2 22 23
ATOM$RED        STATIC     ATOMS    COLORGROUP SYSTEM
2 22 23
@<TRIPOS>COMMENT
> <Gold.Version>
2022.3.0

> <Gold.Id.Protein>
unknown|4d1n_clean|pdb

> <Gold.Protein.RotatedTorsions>
[ 16995 16956 16955 16953 ] final -135.60 input   60.02 | X-H torsion
[ 18503 18464 18463 18461 ] final   -3.30 input   59.99 | X-H torsion
[ 18563 18529 18530 18531 ] final  169.10 input   85.91 | X-H torsion
[ 18713 18683 18684 18685 ] final   84.73 input  120.10 | X-H torsion
[ 18779 18741 18742 18743 ] final   71.59 input   94.66 | X-H torsion
[ 18963 18915 18916 18917 ] final  172.46 input   99.61 | X-H torsion
[ 19029 19005 19006 19007 ] final  -43.32 input  120.28 | X-H torsion
[ 17195 17175 17176 17177 ] final   21.67 input   50.47 | X-H torsion
[ 17251 17219 17220 17221 ] final   55.81 input  121.85 | X-H torsion
[ 18823 18809 18810 18811 ] final  140.39 input  109.66 | X-H torsion
[ 19103 19061 19062 19063 ] final -144.27 input   93.64 | X-H torsion
[ 18495 18453 18454 18455 ] final  -40.92 input  105.49 | X-H torsion
[ 18295 18273 18274 18275 ] final  115.24 input   34.55 | X-H torsion
[ 18327 18313 18314 18315 ] final   67.77 input   52.32 | X-H torsion
[ 18409 18361 18362 18363 ] final  -32.93 input   29.77 | X-H torsion
[ 7524 7513 7514 7515 ] final   37.39 input   82.77 | X-H torsion
[ 7477 7455 7456 7457 ] final   43.95 input   99.19 | X-H torsion
[ 18603 18589 18590 18591 ] final  -28.86 input  124.64 | X-H torsion
[ 10105 10094 10093 10090 ] final -107.71 input   59.99 | X-H torsion
[ 18299 18278 18277 18274 ] final -152.61 input   60.00 | X-H torsion
[ 11477 11459 11460 11461 ] final -157.47 input   48.11 | X-H torsion
[ 18657 18629 18627 18624 ] final   86.29 input   60.03 | X-H torsion
[ 11425 11414 11413 11410 ] final -136.26 input   60.02 | X-H torsion
[ 18875 18843 18844 18845 ] final -133.39 input   86.72 | X-H torsion
[ 17303 17281 17282 17283 ] final   61.10 input   51.85 | X-H torsion
[ 22447 22415 22416 22417 ] final -116.06 input   56.20 | X-H torsion
[ 18243 18203 18204 18205 ] final  135.27 input   41.90 | X-H torsion
[ 11805 11781 11782 11783 ] final  -47.81 input   87.31 | X-H torsion
[ 16987 16945 16946 16947 ] final   61.00 input   84.34 | X-H torsion
[ 27198 18532 18531 18530 ] final  -59.79 input   -0.00 | X-H torsion
[ 27200 18626 18625 18624 ] final  -64.07 input    0.00 | X-H torsion
[ 27203 18686 18685 18684 ] final  -28.96 input   -0.00 | X-H torsion
[ 27223 17126 17125 17124 ] final   45.61 input    0.00 | X-H torsion
[ 27227 11604 11603 11602 ] final  -82.21 input    0.00 | X-H torsion
[ 27231 17052 17051 17050 ] final  132.67 input   -0.00 | X-H torsion
[ 27233 18744 18743 18742 ] final  -47.25 input   -0.00 | X-H torsion
[ 27235 18592 18591 18590 ] final    5.17 input   -0.00 | X-H torsion
[ 27238 18918 18917 18916 ] final -123.27 input    0.00 | X-H torsion
[ 27240 19008 19007 19006 ] final    3.67 input    0.00 | X-H torsion
[ 27243 17178 17177 17176 ] final  124.19 input    0.00 | X-H torsion
[ 27245 18364 18363 18362 ] final  179.12 input    0.00 | X-H torsion
[ 27248 11412 11411 11410 ] final  -50.33 input   -0.00 | X-H torsion
[ 27250 18206 18205 18204 ] final   34.78 input   -0.00 | X-H torsion
[ 27254 17222 17221 17220 ] final   44.01 input   -0.00 | X-H torsion
[ 27259 18316 18315 18314 ] final  104.53 input   -0.00 | X-H torsion
[ 27261 18456 18455 18454 ] final   75.07 input    0.00 | X-H torsion
[ 27264 18276 18275 18274 ] final  -72.89 input    0.00 | X-H torsion
[ 27267 17016 17015 17014 ] final  171.90 input    0.00 | X-H torsion
[ 27275 16948 16947 16946 ] final  -30.53 input   -0.00 | X-H torsion

> <Gold.Protein.ActiveResidues>
 TRP414  CYS420  VAL421  GLY422  LEU460  SER462  SER482  GLN483  ILE485  ARG486 
 TYR487  ASP500  ASN503  TRP566  TYR567  GLY568  LEU569  PRO570  ALA571  VAL572 
 SER573  ASN574  PHE589  SER590  GLY591  TRP592  TYR593  MET594  GLY595  THR596 
 GLU597  ILE598  GLY599  VAL600  ARG601  ASP602  TYR603  ARG608  ILE653  VAL654 
 TRP683  PRO687  HEM750  H4B760 

> <Gold.Protein.RotatedAtoms>
  232.4147   33.6854   19.4725 H   0  0  0  0  0  0  0  0  0  0  0  0  # atno 7477 bound_to 7455
  232.5885   35.7881   19.6419 H   0  0  0  0  0  0  0  0  0  0  0  0  # atno 7524 bound_to 7513
  229.5888   40.7150   12.8284 H   0  0  0  0  0  0  0  0  0  0  0  0  # atno 10105 bound_to 10094
  220.8107   23.8029    9.3175 H   0  0  0  0  0  0  0  0  0  0  0  0  # atno 11425 bound_to 11414
  221.0053   27.7044    9.4612 H   0  0  0  0  0  0  0  0  0  0  0  0  # atno 11477 bound_to 11459
  224.0141   24.2521    2.4818 H   0  0  0  0  0  0  0  0  0  0  0  0  # atno 11805 bound_to 11781
  231.2392   28.1202    2.3754 H   0  0  0  0  0  0  0  0  0  0  0  0  # atno 16987 bound_to 16945
  227.9647   26.2643    6.1828 H   0  0  0  0  0  0  0  0  0  0  0  0  # atno 16995 bound_to 16956
  225.5838   31.5321    8.0674 H   0  0  0  0  0  0  0  0  0  0  0  0  # atno 17195 bound_to 17175
  223.6350   33.3027   10.7840 H   0  0  0  0  0  0  0  0  0  0  0  0  # atno 17251 bound_to 17219
  220.5764   30.2057   10.9152 H   0  0  0  0  0  0  0  0  0  0  0  0  # atno 17303 bound_to 17281
  220.6574   36.0125   12.1728 H   0  0  0  0  0  0  0  0  0  0  0  0  # atno 18243 bound_to 18203
  223.9109   37.8405   10.2704 H   0  0  0  0  0  0  0  0  0  0  0  0  # atno 18295 bound_to 18273
  225.0175   38.2113    7.4058 H   0  0  0  0  0  0  0  0  0  0  0  0  # atno 18299 bound_to 18278
  228.2316   36.2361   10.9668 H   0  0  0  0  0  0  0  0  0  0  0  0  # atno 18327 bound_to 18313
  231.0039   36.2412   10.9371 H   0  0  0  0  0  0  0  0  0  0  0  0  # atno 18409 bound_to 18361
  233.6537   34.9502    9.8608 H   0  0  0  0  0  0  0  0  0  0  0  0  # atno 18495 bound_to 18453
  229.8267   27.9183    8.0715 H   0  0  0  0  0  0  0  0  0  0  0  0  # atno 18503 bound_to 18464
  234.9993   32.8019   12.1280 H   0  0  0  0  0  0  0  0  0  0  0  0  # atno 18563 bound_to 18529
  237.6517   30.1709   11.5896 H   0  0  0  0  0  0  0  0  0  0  0  0  # atno 18603 bound_to 18589
  237.2258   26.8053   14.8697 H   0  0  0  0  0  0  0  0  0  0  0  0  # atno 18657 bound_to 18629
  236.3797   27.5556   11.6111 H   0  0  0  0  0  0  0  0  0  0  0  0  # atno 18713 bound_to 18683
  236.0426   26.5256    9.8265 H   0  0  0  0  0  0  0  0  0  0  0  0  # atno 18779 bound_to 18741
  237.6990   25.3984    8.4316 H   0  0  0  0  0  0  0  0  0  0  0  0  # atno 18823 bound_to 18809
  238.9690   22.5616    9.9579 H   0  0  0  0  0  0  0  0  0  0  0  0  # atno 18875 bound_to 18843
  236.1776   22.0207   12.5859 H   0  0  0  0  0  0  0  0  0  0  0  0  # atno 18963 bound_to 18915
  233.8113   20.8082   10.4318 H   0  0  0  0  0  0  0  0  0  0  0  0  # atno 19029 bound_to 19005
  233.9492   20.9528    7.2750 H   0  0  0  0  0  0  0  0  0  0  0  0  # atno 19103 bound_to 19061
  239.3195   35.4469    9.2620 H   0  0  0  0  0  0  0  0  0  0  0  0  # atno 22447 bound_to 22415
  226.4776   26.8916    5.9767 LP  0  0  0  0  0  0  0  0  0  0  0  0  # atno 27193 bound_to 16956
  227.6027   27.7131    6.8286 LP  0  0  0  0  0  0  0  0  0  0  0  0  # atno 27194 bound_to 16956
  230.1890   28.0736    6.4930 LP  0  0  0  0  0  0  0  0  0  0  0  0  # atno 27195 bound_to 18464
  229.1673   29.1286    7.2070 LP  0  0  0  0  0  0  0  0  0  0  0  0  # atno 27196 bound_to 18464
  235.1517   31.6458   10.8218 LP  0  0  0  0  0  0  0  0  0  0  0  0  # atno 27197 bound_to 18529
  235.9684   29.0348   12.0690 LP  0  0  0  0  0  0  0  0  0  0  0  0  # atno 27198 bound_to 18532
  236.0728   29.2110   10.3491 LP  0  0  0  0  0  0  0  0  0  0  0  0  # atno 27199 bound_to 18532
  237.0456   24.0069   11.4281 LP  0  0  0  0  0  0  0  0  0  0  0  0  # atno 27200 bound_to 18626
  236.1346   24.1740   12.8917 LP  0  0  0  0  0  0  0  0  0  0  0  0  # atno 27201 bound_to 18626
  236.6202   26.1829   12.6582 LP  0  0  0  0  0  0  0  0  0  0  0  0  # atno 27202 bound_to 18683
  233.6761   23.9573   11.4301 LP  0  0  0  0  0  0  0  0  0  0  0  0  # atno 27203 bound_to 18686
  233.4094   24.1890    9.7344 LP  0  0  0  0  0  0  0  0  0  0  0  0  # atno 27204 bound_to 18686
  234.4871   25.8389   10.2290 LP  0  0  0  0  0  0  0  0  0  0  0  0  # atno 27209 bound_to 18741
  236.0242   21.6093   10.8991 LP  0  0  0  0  0  0  0  0  0  0  0  0  # atno 27210 bound_to 18915
  233.5617   22.5249   10.2334 LP  0  0  0  0  0  0  0  0  0  0  0  0  # atno 27211 bound_to 19005
  227.6048   34.7577    8.9034 LP  0  0  0  0  0  0  0  0  0  0  0  0  # atno 27223 bound_to 17126
  226.4503   34.1373   10.0357 LP  0  0  0  0  0  0  0  0  0  0  0  0  # atno 27224 bound_to 17126
  226.4775   33.0256    7.9927 LP  0  0  0  0  0  0  0  0  0  0  0  0  # atno 27225 bound_to 17175
  224.1500   31.8633    9.9286 LP  0  0  0  0  0  0  0  0  0  0  0  0  # atno 27226 bound_to 17219
  225.9349   28.6268    4.3516 LP  0  0  0  0  0  0  0  0  0  0  0  0  # atno 27227 bound_to 11604
  224.6382   28.3170    5.4573 LP  0  0  0  0  0  0  0  0  0  0  0  0  # atno 27228 bound_to 11604
  227.2915   31.4706    5.5164 LP  0  0  0  0  0  0  0  0  0  0  0  0  # atno 27231 bound_to 17052
  226.5164   32.8352    4.7835 LP  0  0  0  0  0  0  0  0  0  0  0  0  # atno 27232 bound_to 17052
  235.0594   22.5547    8.4103 LP  0  0  0  0  0  0  0  0  0  0  0  0  # atno 27233 bound_to 18744
  236.4150   22.4040    7.3428 LP  0  0  0  0  0  0  0  0  0  0  0  0  # atno 27234 bound_to 18744
  238.3075   27.0863    8.7319 LP  0  0  0  0  0  0  0  0  0  0  0  0  # atno 27235 bound_to 18592
  238.0003   26.0105   10.0542 LP  0  0  0  0  0  0  0  0  0  0  0  0  # atno 27236 bound_to 18592
  236.5926   24.0990    8.8046 LP  0  0  0  0  0  0  0  0  0  0  0  0  # atno 27237 bound_to 18809
  233.7003   18.9689    9.6933 LP  0  0  0  0  0  0  0  0  0  0  0  0  # atno 27238 bound_to 18918
  232.7589   18.9067   11.1458 LP  0  0  0  0  0  0  0  0  0  0  0  0  # atno 27239 bound_to 18918
  231.6968   19.4139    7.3143 LP  0  0  0  0  0  0  0  0  0  0  0  0  # atno 27240 bound_to 19008
  233.1544   18.6968    6.7131 LP  0  0  0  0  0  0  0  0  0  0  0  0  # atno 27241 bound_to 19008
  234.8940   20.4830    8.6671 LP  0  0  0  0  0  0  0  0  0  0  0  0  # atno 27242 bound_to 19061
  222.3324   30.9397    8.7733 LP  0  0  0  0  0  0  0  0  0  0  0  0  # atno 27243 bound_to 17178
  221.8566   32.4937    8.1746 LP  0  0  0  0  0  0  0  0  0  0  0  0  # atno 27244 bound_to 17178
  233.2597   34.0871   11.7511 LP  0  0  0  0  0  0  0  0  0  0  0  0  # atno 27245 bound_to 18364
  232.4390   35.6110   11.8145 LP  0  0  0  0  0  0  0  0  0  0  0  0  # atno 27246 bound_to 18364
  233.2356   34.1251    8.3780 LP  0  0  0  0  0  0  0  0  0  0  0  0  # atno 27247 bound_to 18453
  220.0605   28.8736   11.1893 LP  0  0  0  0  0  0  0  0  0  0  0  0  # atno 27248 bound_to 11412
  221.7411   28.5820   10.8883 LP  0  0  0  0  0  0  0  0  0  0  0  0  # atno 27249 bound_to 11412
  223.0766   34.8068   10.9146 LP  0  0  0  0  0  0  0  0  0  0  0  0  # atno 27250 bound_to 18206
  224.7652   34.9944   11.2511 LP  0  0  0  0  0  0  0  0  0  0  0  0  # atno 27251 bound_to 18206
  221.6227   33.9437   11.1753 LP  0  0  0  0  0  0  0  0  0  0  0  0  # atno 27254 bound_to 17222
  220.2509   33.5174   12.1429 LP  0  0  0  0  0  0  0  0  0  0  0  0  # atno 27255 bound_to 17222
  224.5065   37.4648   11.8663 LP  0  0  0  0  0  0  0  0  0  0  0  0  # atno 27256 bound_to 18273
  227.4135   37.7170   10.5237 LP  0  0  0  0  0  0  0  0  0  0  0  0  # atno 27257 bound_to 18313
  231.4041   37.8348   10.3335 LP  0  0  0  0  0  0  0  0  0  0  0  0  # atno 27258 bound_to 18361
  230.7418   38.4955    8.2383 LP  0  0  0  0  0  0  0  0  0  0  0  0  # atno 27259 bound_to 18316
  229.5387   37.2496    8.2174 LP  0  0  0  0  0  0  0  0  0  0  0  0  # atno 27260 bound_to 18316
  236.1616   34.7380   10.5670 LP  0  0  0  0  0  0  0  0  0  0  0  0  # atno 27261 bound_to 18456
  237.1231   33.4535    9.9147 LP  0  0  0  0  0  0  0  0  0  0  0  0  # atno 27262 bound_to 18456
  234.1643   35.2053   19.1592 LP  0  0  0  0  0  0  0  0  0  0  0  0  # atno 27263 bound_to 7513
  226.7867   39.6993   10.1893 LP  0  0  0  0  0  0  0  0  0  0  0  0  # atno 27264 bound_to 18276
  226.9560   39.4100   11.8886 LP  0  0  0  0  0  0  0  0  0  0  0  0  # atno 27265 bound_to 18276
  232.3012   33.2514   21.1618 LP  0  0  0  0  0  0  0  0  0  0  0  0  # atno 27266 bound_to 7455
  231.0623   34.4200    5.6058 LP  0  0  0  0  0  0  0  0  0  0  0  0  # atno 27267 bound_to 17016
  232.6132   33.9563    4.9898 LP  0  0  0  0  0  0  0  0  0  0  0  0  # atno 27268 bound_to 17016
  238.9063   31.1717   10.9022 LP  0  0  0  0  0  0  0  0  0  0  0  0  # atno 27269 bound_to 18589
  230.2995   42.1782   12.8403 LP  0  0  0  0  0  0  0  0  0  0  0  0  # atno 27270 bound_to 10094
  230.1055   41.3725   11.4332 LP  0  0  0  0  0  0  0  0  0  0  0  0  # atno 27271 bound_to 10094
  226.3640   38.7815    8.1205 LP  0  0  0  0  0  0  0  0  0  0  0  0  # atno 27272 bound_to 18278
  224.9411   38.7989    8.9216 LP  0  0  0  0  0  0  0  0  0  0  0  0  # atno 27273 bound_to 18278
  220.5523   27.3178    7.8089 LP  0  0  0  0  0  0  0  0  0  0  0  0  # atno 27274 bound_to 11459
  231.3199   29.6981    3.7796 LP  0  0  0  0  0  0  0  0  0  0  0  0  # atno 27275 bound_to 16948
  232.4965   30.9690    3.7620 LP  0  0  0  0  0  0  0  0  0  0  0  0  # atno 27276 bound_to 16948

> <Gold.Score>
     Fitness  S(hb_ext) S(vdw_ext)  S(hb_int)    S(int)      intcor
     38.62       1.54      30.78       0.00      -5.24      -0.77

> <Gold.Goldscore.Fitness>
38.6166

> <Gold.Goldscore.Internal.Vdw>
-5.0208

> <Gold.Goldscore.Internal.Torsion>
-0.9905

> <Gold.Goldscore.External.Vdw>
30.7767

> <Gold.Goldscore.Internal.HBond>
0.0000

> <Gold.Goldscore.External.HBond>
1.5407

> <Gold.Goldscore.Internal.Correction>
-0.7693

> <Gold.Goldscore.Hbonds>
donor molecule, donor type, donor heavy atom, donor atom, acceptor molecule, acceptor atom, score
      P1  H 18361 18409       L1    17  0.77

> <Gold.Goldscore.Internal.Vdw.Weighted>
-5.0208

> <Gold.Goldscore.Internal.Torsion.Weighted>
-0.9905

> <Gold.Goldscore.External.Vdw.Weighted>
42.3179

> <Gold.Goldscore.Internal.HBond.Weighted>
0.0000

> <Gold.Goldscore.External.HBond.Weighted>
1.5407

> <Gold.Goldscore.Internal.Correction.Weighted>
-0.7693

> <Gold.Rescore>
     Score     S(PLP)   S(hbond)     S(cho)   S(metal)  DE(clash)   DE(tors)     intcor
     34.63     -34.24       1.17       0.00       0.00       0.47       1.33       ----

> <Gold.PLP.Fitness>
34.6277

> <Gold.PLP.PLP>
-34.2448

> <Gold.PLP.part.hbond>
-3.6331

> <Gold.PLP.part.metal>
0.0000

> <Gold.PLP.part.buried>
17.7988

> <Gold.PLP.part.nonpolar>
-51.2973

> <Gold.PLP.part.repulsive>
0.6445

> <Gold.PLP.ligand.clash>
0.4693

> <Gold.PLP.ligand.torsion>
1.3265

> <Gold.PLP.Chemscore.Hbond>
1.1684

> <Gold.PLP.Chemscore.CHOScore>
0.0000

> <Gold.PLP.Chemscore.Metal>
0.0000

> <Gold.Chemscore.Hbonds>
donor molecule, donor type, donor heavy atom, donor atom, acceptor molecule, acceptor atom, score
      P1  H 18361 18409       L1    17  0.13

> <Gold.PLP.Chemscore.Internal.Correction>
   9.000000E+99

#       Name:                CT1002167954
#       Creating user name   hitesit
#       Creation time:       Sun Apr 16 22:59:44 2023


#       File generated by GOLD software.
#

@<TRIPOS>MOLECULE
CT1002167954|ligand_prepared|mol2|1|dock7
    29    30     1
SMALL
NO_CHARGES


@<TRIPOS>ATOM
      1 C1         229.0887  25.9220  12.1882 C.3            1 RES1               0.0000
      2 C2         227.8585  26.5945  12.8310 C.ar           1 RES1               0.0000
      3 C3         228.6611  24.5026  11.8267 C.2            1 RES1               0.0000
      4 C4         229.4667  26.7827  10.9877 C.2            1 RES1               0.0000
      5 C5         230.3171  25.8417  13.1241 C.3            1 RES1               0.0000
      6 C6         227.9729  27.8339  13.4535 C.ar           1 RES1               0.0000
      7 C7         226.6044  25.9900  12.8071 C.ar           1 RES1               0.0000
      8 N8         228.4486  24.2230  10.5089 N.am           1 RES1               0.0000
      9 O9         228.4748  23.6524  12.6885 O.2            1 RES1               0.0000
     10 N10        229.3390  26.2339   9.7386 N.am           1 RES1               0.0000
     11 O11        229.8582  27.9367  11.1113 O.2            1 RES1               0.0000
     12 C12        231.5056  25.1146  12.5149 C.3            1 RES1               0.0000
     13 C13        226.8729  28.4482  14.0288 C.ar           1 RES1               0.0000
     14 C14        225.5057  26.6060  13.3832 C.ar           1 RES1               0.0000
     15 C15        228.8179  25.0036   9.4431 C.2            1 RES1               0.0000
     16 C16        225.6386  27.8350  13.9936 C.ar           1 RES1               0.0000
     17 O17        228.6848  24.6016   8.2909 O.2            1 RES1               0.0000
     18 H18        230.6251  26.8602  13.3908 H              1 RES1               0.0000
     19 H19        230.0243  25.3273  14.0478 H              1 RES1               0.0000
     20 H20        228.9366  28.3305  13.4931 H              1 RES1               0.0000
     21 H21        226.4765  25.0227  12.3333 H              1 RES1               0.0000
     22 H22        227.9709  23.3530  10.2962 H              1 RES1               0.0000
     23 H23        229.6624  26.7944   8.9565 H              1 RES1               0.0000
     24 H24        232.3398  25.0867  13.2128 H              1 RES1               0.0000
     25 H25        231.2420  24.0901  12.2607 H              1 RES1               0.0000
     26 H26        231.8393  25.6138  11.6076 H              1 RES1               0.0000
     27 H27        226.9830  29.4148  14.5092 H              1 RES1               0.0000
     28 H28        224.5364  26.1195  13.3538 H              1 RES1               0.0000
     29 H29        224.7770  28.3166  14.4440 H              1 RES1               0.0000
@<TRIPOS>BOND
    1    1    2 1     
    2    1    3 1     
    3    1    4 1     
    4    1    5 1     
    5    2    6 ar    
    6    2    7 ar    
    7    3    8 1     
    8    3    9 2     
    9    4   10 1     
   10    4   11 2     
   11    5   12 1     
   12    5   18 1     
   13    5   19 1     
   14    6   13 ar    
   15    6   20 1     
   16    7   14 ar    
   17    7   21 1     
   18    8   15 1     
   19    8   22 1     
   20   10   15 1     
   21   10   23 1     
   22   12   24 1     
   23   12   25 1     
   24   12   26 1     
   25   13   16 ar    
   26   13   27 1     
   27   14   16 ar    
   28   14   28 1     
   29   15   17 2     
   30   16   29 1     
@<TRIPOS>SUBSTRUCTURE
      1 RES1           1
@<TRIPOS>SET
DONOR_HYDROGENS      STATIC     ATOMS    <user>   **** ""
2 22 23
ATOM$RED        STATIC     ATOMS    COLORGROUP SYSTEM
2 22 23
@<TRIPOS>COMMENT
> <Gold.Version>
2022.3.0

> <Gold.Id.Protein>
unknown|4d1n_clean|pdb

> <Gold.Protein.RotatedTorsions>
[ 16995 16956 16955 16953 ] final   -6.95 input   60.02 | X-H torsion
[ 18503 18464 18463 18461 ] final  141.08 input   59.99 | X-H torsion
[ 18563 18529 18530 18531 ] final -175.90 input   85.91 | X-H torsion
[ 18713 18683 18684 18685 ] final   57.31 input  120.10 | X-H torsion
[ 18779 18741 18742 18743 ] final  -43.47 input   94.66 | X-H torsion
[ 18963 18915 18916 18917 ] final -129.40 input   99.61 | X-H torsion
[ 19029 19005 19006 19007 ] final  -32.68 input  120.28 | X-H torsion
[ 17195 17175 17176 17177 ] final  -90.76 input   50.47 | X-H torsion
[ 17251 17219 17220 17221 ] final -130.92 input  121.85 | X-H torsion
[ 18823 18809 18810 18811 ] final   43.58 input  109.66 | X-H torsion
[ 19103 19061 19062 19063 ] final  113.45 input   93.64 | X-H torsion
[ 18495 18453 18454 18455 ] final  -94.41 input  105.49 | X-H torsion
[ 18295 18273 18274 18275 ] final   56.92 input   34.55 | X-H torsion
[ 18327 18313 18314 18315 ] final   65.11 input   52.32 | X-H torsion
[ 18409 18361 18362 18363 ] final   70.67 input   29.77 | X-H torsion
[ 7524 7513 7514 7515 ] final   76.74 input   82.77 | X-H torsion
[ 7477 7455 7456 7457 ] final  123.32 input   99.19 | X-H torsion
[ 18603 18589 18590 18591 ] final  -36.87 input  124.64 | X-H torsion
[ 10105 10094 10093 10090 ] final  123.34 input   59.99 | X-H torsion
[ 18299 18278 18277 18274 ] final   44.59 input   60.00 | X-H torsion
[ 11477 11459 11460 11461 ] final  -11.24 input   48.11 | X-H torsion
[ 18657 18629 18627 18624 ] final -135.60 input   60.03 | X-H torsion
[ 11425 11414 11413 11410 ] final  130.39 input   60.02 | X-H torsion
[ 18875 18843 18844 18845 ] final   23.29 input   86.72 | X-H torsion
[ 17303 17281 17282 17283 ] final  -41.17 input   51.85 | X-H torsion
[ 22447 22415 22416 22417 ] final -178.90 input   56.20 | X-H torsion
[ 18243 18203 18204 18205 ] final  -94.84 input   41.90 | X-H torsion
[ 11805 11781 11782 11783 ] final   26.55 input   87.31 | X-H torsion
[ 16987 16945 16946 16947 ] final  -33.00 input   84.34 | X-H torsion
[ 27198 18532 18531 18530 ] final  -68.18 input   -0.00 | X-H torsion
[ 27200 18626 18625 18624 ] final   56.86 input    0.00 | X-H torsion
[ 27203 18686 18685 18684 ] final -175.95 input   -0.00 | X-H torsion
[ 27223 17126 17125 17124 ] final   52.61 input    0.00 | X-H torsion
[ 27227 11604 11603 11602 ] final  -11.62 input    0.00 | X-H torsion
[ 27231 17052 17051 17050 ] final  -96.58 input   -0.00 | X-H torsion
[ 27233 18744 18743 18742 ] final   -7.54 input   -0.00 | X-H torsion
[ 27235 18592 18591 18590 ] final   44.02 input   -0.00 | X-H torsion
[ 27238 18918 18917 18916 ] final   68.80 input    0.00 | X-H torsion
[ 27240 19008 19007 19006 ] final  102.67 input    0.00 | X-H torsion
[ 27243 17178 17177 17176 ] final  -73.23 input    0.00 | X-H torsion
[ 27245 18364 18363 18362 ] final  -82.37 input    0.00 | X-H torsion
[ 27248 11412 11411 11410 ] final   57.85 input   -0.00 | X-H torsion
[ 27250 18206 18205 18204 ] final   47.74 input   -0.00 | X-H torsion
[ 27254 17222 17221 17220 ] final    4.50 input   -0.00 | X-H torsion
[ 27259 18316 18315 18314 ] final   42.22 input   -0.00 | X-H torsion
[ 27261 18456 18455 18454 ] final  145.57 input    0.00 | X-H torsion
[ 27264 18276 18275 18274 ] final   88.05 input    0.00 | X-H torsion
[ 27267 17016 17015 17014 ] final  -64.03 input    0.00 | X-H torsion
[ 27275 16948 16947 16946 ] final  153.74 input   -0.00 | X-H torsion

> <Gold.Protein.ActiveResidues>
 TRP414  CYS420  VAL421  GLY422  LEU460  SER462  SER482  GLN483  ILE485  ARG486 
 TYR487  ASP500  ASN503  TRP566  TYR567  GLY568  LEU569  PRO570  ALA571  VAL572 
 SER573  ASN574  PHE589  SER590  GLY591  TRP592  TYR593  MET594  GLY595  THR596 
 GLU597  ILE598  GLY599  VAL600  ARG601  ASP602  TYR603  ARG608  ILE653  VAL654 
 TRP683  PRO687  HEM750  H4B760 

> <Gold.Protein.RotatedAtoms>
  232.6834   32.7170   19.9880 H   0  0  0  0  0  0  0  0  0  0  0  0  # atno 7477 bound_to 7455
  232.5360   35.4465   19.1562 H   0  0  0  0  0  0  0  0  0  0  0  0  # atno 7524 bound_to 7513
  230.3375   42.2234   12.7059 H   0  0  0  0  0  0  0  0  0  0  0  0  # atno 10105 bound_to 10094
  221.7947   24.5453    9.8977 H   0  0  0  0  0  0  0  0  0  0  0  0  # atno 11425 bound_to 11414
  220.1906   27.6579    7.9428 H   0  0  0  0  0  0  0  0  0  0  0  0  # atno 11477 bound_to 11459
  224.6599   23.6336    3.0909 H   0  0  0  0  0  0  0  0  0  0  0  0  # atno 11805 bound_to 11781
  232.3084   28.5273    1.7753 H   0  0  0  0  0  0  0  0  0  0  0  0  # atno 16987 bound_to 16945
  227.4703   27.7546    6.7997 H   0  0  0  0  0  0  0  0  0  0  0  0  # atno 16995 bound_to 16956
  226.4320   32.4664    8.7827 H   0  0  0  0  0  0  0  0  0  0  0  0  # atno 17195 bound_to 17175
  224.2184   31.8126   10.0006 H   0  0  0  0  0  0  0  0  0  0  0  0  # atno 17251 bound_to 17219
  220.5741   30.9958   12.0369 H   0  0  0  0  0  0  0  0  0  0  0  0  # atno 17303 bound_to 17281
  220.7747   36.4477   10.6357 H   0  0  0  0  0  0  0  0  0  0  0  0  # atno 18243 bound_to 18203
  224.3391   38.4384   10.7069 H   0  0  0  0  0  0  0  0  0  0  0  0  # atno 18295 bound_to 18273
  226.0853   38.9587    8.7215 H   0  0  0  0  0  0  0  0  0  0  0  0  # atno 18299 bound_to 18278
  228.2408   36.2304   10.9270 H   0  0  0  0  0  0  0  0  0  0  0  0  # atno 18327 bound_to 18313
  231.8902   37.3027   11.1416 H   0  0  0  0  0  0  0  0  0  0  0  0  # atno 18409 bound_to 18361
  232.9232   34.6377    9.8186 H   0  0  0  0  0  0  0  0  0  0  0  0  # atno 18495 bound_to 18453
  229.3090   29.0954    6.8379 H   0  0  0  0  0  0  0  0  0  0  0  0  # atno 18503 bound_to 18464
  235.1069   32.9413   11.9765 H   0  0  0  0  0  0  0  0  0  0  0  0  # atno 18563 bound_to 18529
  237.5780   30.2195   11.5041 H   0  0  0  0  0  0  0  0  0  0  0  0  # atno 18603 bound_to 18589
  238.7380   27.6130   15.2167 H   0  0  0  0  0  0  0  0  0  0  0  0  # atno 18657 bound_to 18629
  236.5010   27.2549   11.3526 H   0  0  0  0  0  0  0  0  0  0  0  0  # atno 18713 bound_to 18683
  235.2874   25.4032   10.4527 H   0  0  0  0  0  0  0  0  0  0  0  0  # atno 18779 bound_to 18741
  237.2834   24.7286    9.4912 H   0  0  0  0  0  0  0  0  0  0  0  0  # atno 18823 bound_to 18809
  237.3147   22.9826   10.2648 H   0  0  0  0  0  0  0  0  0  0  0  0  # atno 18875 bound_to 18843
  236.4742   21.2716   12.3148 H   0  0  0  0  0  0  0  0  0  0  0  0  # atno 18963 bound_to 18915
  233.9471   20.8332   10.3448 H   0  0  0  0  0  0  0  0  0  0  0  0  # atno 19029 bound_to 19005
  235.1008   21.2843    7.9484 H   0  0  0  0  0  0  0  0  0  0  0  0  # atno 19103 bound_to 19061
  238.6706   35.8827    9.7511 H   0  0  0  0  0  0  0  0  0  0  0  0  # atno 22447 bound_to 22415
  228.0591   26.3374    6.2591 LP  0  0  0  0  0  0  0  0  0  0  0  0  # atno 27193 bound_to 16956
  226.5193   26.7659    5.9247 LP  0  0  0  0  0  0  0  0  0  0  0  0  # atno 27194 bound_to 16956
  229.5732   28.2058    8.1742 LP  0  0  0  0  0  0  0  0  0  0  0  0  # atno 27195 bound_to 18464
  230.3047   27.8106    6.7687 LP  0  0  0  0  0  0  0  0  0  0  0  0  # atno 27196 bound_to 18464
  235.0477   31.5109   10.9684 LP  0  0  0  0  0  0  0  0  0  0  0  0  # atno 27197 bound_to 18529
  236.0629   28.9512   12.0568 LP  0  0  0  0  0  0  0  0  0  0  0  0  # atno 27198 bound_to 18532
  235.9783   29.2946   10.3613 LP  0  0  0  0  0  0  0  0  0  0  0  0  # atno 27199 bound_to 18532
  236.9679   23.9926   12.9330 LP  0  0  0  0  0  0  0  0  0  0  0  0  # atno 27200 bound_to 18626
  236.2123   24.1883   11.3868 LP  0  0  0  0  0  0  0  0  0  0  0  0  # atno 27201 bound_to 18626
  236.4999   26.4810   12.9146 LP  0  0  0  0  0  0  0  0  0  0  0  0  # atno 27202 bound_to 18683
  233.8129   23.9103    9.7757 LP  0  0  0  0  0  0  0  0  0  0  0  0  # atno 27203 bound_to 18686
  233.2726   24.2359   11.3888 LP  0  0  0  0  0  0  0  0  0  0  0  0  # atno 27204 bound_to 18686
  235.2256   26.9363    9.6167 LP  0  0  0  0  0  0  0  0  0  0  0  0  # atno 27209 bound_to 18741
  235.7298   22.3527   11.1680 LP  0  0  0  0  0  0  0  0  0  0  0  0  # atno 27210 bound_to 18915
  233.4282   22.5002   10.3189 LP  0  0  0  0  0  0  0  0  0  0  0  0  # atno 27211 bound_to 19005
  227.5228   34.8031    8.8545 LP  0  0  0  0  0  0  0  0  0  0  0  0  # atno 27223 bound_to 17126
  226.5323   34.0919   10.0846 LP  0  0  0  0  0  0  0  0  0  0  0  0  # atno 27224 bound_to 17126
  225.6327   32.0949    7.2801 LP  0  0  0  0  0  0  0  0  0  0  0  0  # atno 27225 bound_to 17175
  223.5883   33.2980   10.6829 LP  0  0  0  0  0  0  0  0  0  0  0  0  # atno 27226 bound_to 17219
  225.3705   29.3265    4.7915 LP  0  0  0  0  0  0  0  0  0  0  0  0  # atno 27227 bound_to 11604
  225.2026   27.6174    5.0173 LP  0  0  0  0  0  0  0  0  0  0  0  0  # atno 27228 bound_to 11604
  226.3315   32.7178    5.4711 LP  0  0  0  0  0  0  0  0  0  0  0  0  # atno 27231 bound_to 17052
  227.4764   31.5879    4.8288 LP  0  0  0  0  0  0  0  0  0  0  0  0  # atno 27232 bound_to 17052
  234.9109   22.7386    7.8717 LP  0  0  0  0  0  0  0  0  0  0  0  0  # atno 27233 bound_to 18744
  236.5635   22.2200    7.8814 LP  0  0  0  0  0  0  0  0  0  0  0  0  # atno 27234 bound_to 18744
  238.7972   26.8229    8.8823 LP  0  0  0  0  0  0  0  0  0  0  0  0  # atno 27235 bound_to 18592
  237.5106   26.2739    9.9038 LP  0  0  0  0  0  0  0  0  0  0  0  0  # atno 27236 bound_to 18592
  236.9993   24.7544    7.7677 LP  0  0  0  0  0  0  0  0  0  0  0  0  # atno 27237 bound_to 18809
  232.6236   18.9633   11.0377 LP  0  0  0  0  0  0  0  0  0  0  0  0  # atno 27238 bound_to 18918
  233.8356   18.9122    9.8015 LP  0  0  0  0  0  0  0  0  0  0  0  0  # atno 27239 bound_to 18918
  232.4874   19.4829    6.2632 LP  0  0  0  0  0  0  0  0  0  0  0  0  # atno 27240 bound_to 19008
  232.3638   18.6277    7.7643 LP  0  0  0  0  0  0  0  0  0  0  0  0  # atno 27241 bound_to 19008
  233.7665   20.1585    8.0077 LP  0  0  0  0  0  0  0  0  0  0  0  0  # atno 27242 bound_to 19061
  221.7151   32.4912    8.3955 LP  0  0  0  0  0  0  0  0  0  0  0  0  # atno 27243 bound_to 17178
  222.4739   30.9421    8.5524 LP  0  0  0  0  0  0  0  0  0  0  0  0  # atno 27244 bound_to 17178
  233.5375   35.3601   11.9065 LP  0  0  0  0  0  0  0  0  0  0  0  0  # atno 27245 bound_to 18364
  232.1613   34.3380   11.6591 LP  0  0  0  0  0  0  0  0  0  0  0  0  # atno 27246 bound_to 18364
  233.9493   34.4304    8.4192 LP  0  0  0  0  0  0  0  0  0  0  0  0  # atno 27247 bound_to 18453
  221.1351   28.0192   11.4782 LP  0  0  0  0  0  0  0  0  0  0  0  0  # atno 27248 bound_to 11412
  220.6665   29.4364   10.5995 LP  0  0  0  0  0  0  0  0  0  0  0  0  # atno 27249 bound_to 11412
  223.1337   34.8292   10.7289 LP  0  0  0  0  0  0  0  0  0  0  0  0  # atno 27250 bound_to 18206
  224.7081   34.9720   11.4367 LP  0  0  0  0  0  0  0  0  0  0  0  0  # atno 27251 bound_to 18206
  221.7852   33.8869   11.7348 LP  0  0  0  0  0  0  0  0  0  0  0  0  # atno 27254 bound_to 17222
  220.0884   33.5742   11.5834 LP  0  0  0  0  0  0  0  0  0  0  0  0  # atno 27255 bound_to 17222
  224.0835   36.8741   11.4351 LP  0  0  0  0  0  0  0  0  0  0  0  0  # atno 27256 bound_to 18273
  227.4046   37.7226   10.5623 LP  0  0  0  0  0  0  0  0  0  0  0  0  # atno 27257 bound_to 18313
  230.5462   36.8073   10.1355 LP  0  0  0  0  0  0  0  0  0  0  0  0  # atno 27258 bound_to 18361
  229.8872   38.6729    8.4411 LP  0  0  0  0  0  0  0  0  0  0  0  0  # atno 27259 bound_to 18316
  230.3934   37.0723    8.0146 LP  0  0  0  0  0  0  0  0  0  0  0  0  # atno 27260 bound_to 18316
  236.8320   34.2018   11.0792 LP  0  0  0  0  0  0  0  0  0  0  0  0  # atno 27261 bound_to 18456
  236.4528   33.9897    9.4025 LP  0  0  0  0  0  0  0  0  0  0  0  0  # atno 27262 bound_to 18456
  234.2155   35.5383   19.6325 LP  0  0  0  0  0  0  0  0  0  0  0  0  # atno 27263 bound_to 7513
  226.6718   39.3810   11.8636 LP  0  0  0  0  0  0  0  0  0  0  0  0  # atno 27264 bound_to 18276
  227.0708   39.7283   10.2143 LP  0  0  0  0  0  0  0  0  0  0  0  0  # atno 27265 bound_to 18276
  232.0389   34.1968   20.6585 LP  0  0  0  0  0  0  0  0  0  0  0  0  # atno 27266 bound_to 7455
  232.1995   33.4123    5.4283 LP  0  0  0  0  0  0  0  0  0  0  0  0  # atno 27267 bound_to 17016
  231.4759   34.9641    5.1672 LP  0  0  0  0  0  0  0  0  0  0  0  0  # atno 27268 bound_to 17016
  238.9788   31.1239   10.9863 LP  0  0  0  0  0  0  0  0  0  0  0  0  # atno 27269 bound_to 18589
  230.0402   41.2410   11.4439 LP  0  0  0  0  0  0  0  0  0  0  0  0  # atno 27270 bound_to 10094
  229.6102   40.7895   12.9531 LP  0  0  0  0  0  0  0  0  0  0  0  0  # atno 27271 bound_to 10094
  224.5444   38.5212    8.4328 LP  0  0  0  0  0  0  0  0  0  0  0  0  # atno 27272 bound_to 18278
  225.6858   38.3067    7.2848 LP  0  0  0  0  0  0  0  0  0  0  0  0  # atno 27273 bound_to 18278
  221.3255   27.3619    9.2501 LP  0  0  0  0  0  0  0  0  0  0  0  0  # atno 27274 bound_to 11459
  232.4529   31.0065    3.7912 LP  0  0  0  0  0  0  0  0  0  0  0  0  # atno 27275 bound_to 16948
  231.3635   29.6606    3.7504 LP  0  0  0  0  0  0  0  0  0  0  0  0  # atno 27276 bound_to 16948

> <Gold.Score>
     Fitness  S(hb_ext) S(vdw_ext)  S(hb_int)    S(int)      intcor
     37.01       6.10      23.68       0.00      -1.65      -0.77

> <Gold.Goldscore.Fitness>
37.0125

> <Gold.Goldscore.Internal.Vdw>
-2.0313

> <Gold.Goldscore.Internal.Torsion>
-0.3835

> <Gold.Goldscore.External.Vdw>
23.6814

> <Gold.Goldscore.Internal.HBond>
0.0000

> <Gold.Goldscore.External.HBond>
6.0960

> <Gold.Goldscore.Internal.Correction>
-0.7693

> <Gold.Goldscore.Hbonds>
donor molecule, donor type, donor heavy atom, donor atom, acceptor molecule, acceptor atom, score
      P1  H 19345 19394       L1    17  0.85
      L1  H    10    23       P1 18464  0.49

> <Gold.Goldscore.Internal.Vdw.Weighted>
-2.0313

> <Gold.Goldscore.Internal.Torsion.Weighted>
-0.3835

> <Gold.Goldscore.External.Vdw.Weighted>
32.5620

> <Gold.Goldscore.Internal.HBond.Weighted>
0.0000

> <Gold.Goldscore.External.HBond.Weighted>
6.0960

> <Gold.Goldscore.Internal.Correction.Weighted>
-0.7693

> <Gold.Rescore>
     Score     S(PLP)   S(hbond)     S(cho)   S(metal)  DE(clash)   DE(tors)     intcor
     14.37     -11.45       1.54       0.00       0.00       1.10       0.30       ----

> <Gold.PLP.Fitness>
14.3720

> <Gold.PLP.PLP>
-11.4473

> <Gold.PLP.part.hbond>
-3.5957

> <Gold.PLP.part.metal>
0.0000

> <Gold.PLP.part.buried>
7.0710

> <Gold.PLP.part.nonpolar>
-19.4833

> <Gold.PLP.part.repulsive>
4.2634

> <Gold.PLP.ligand.clash>
1.1039

> <Gold.PLP.ligand.torsion>
0.2979

> <Gold.PLP.Chemscore.Hbond>
1.5414

> <Gold.PLP.Chemscore.CHOScore>
0.0000

> <Gold.PLP.Chemscore.Metal>
0.0000

> <Gold.Chemscore.Hbonds>
donor molecule, donor type, donor heavy atom, donor atom, acceptor molecule, acceptor atom, score
      L1  H    10    23       P1 18464  0.19
      P1  H 19345 19394       L1    17  1.00

> <Gold.PLP.Chemscore.Internal.Correction>
   9.000000E+99

#       Name:                CT1002167954
#       Creating user name   hitesit
#       Creation time:       Sun Apr 16 22:59:47 2023


#       File generated by GOLD software.
#

@<TRIPOS>MOLECULE
CT1002167954|ligand_prepared|mol2|1|dock10
    29    30     1
SMALL
NO_CHARGES


@<TRIPOS>ATOM
      1 C1         228.7367  32.0743  13.1856 C.3            1 RES1               0.0000
      2 C2         228.0642  30.7107  13.4446 C.ar           1 RES1               0.0000
      3 C3         228.2458  32.5414  11.8185 C.2            1 RES1               0.0000
      4 C4         228.3212  32.9809  14.3389 C.2            1 RES1               0.0000
      5 C5         230.2818  32.0137  13.1583 C.3            1 RES1               0.0000
      6 C6         228.5565  29.5532  12.8492 C.ar           1 RES1               0.0000
      7 C7         226.9542  30.5943  14.2772 C.ar           1 RES1               0.0000
      8 N8         227.3322  33.5535  11.7871 N.am           1 RES1               0.0000
      9 O9         228.6246  32.0033  10.7854 O.2            1 RES1               0.0000
     10 N10        227.5288  34.0616  14.0527 N.am           1 RES1               0.0000
     11 O11        228.6591  32.7597  15.4953 O.2            1 RES1               0.0000
     12 C12        230.9439  33.3603  12.9126 C.3            1 RES1               0.0000
     13 C13        227.9628  28.3234  13.0800 C.ar           1 RES1               0.0000
     14 C14        226.3618  29.3634  14.5064 C.ar           1 RES1               0.0000
     15 C15        226.9902  34.3716  12.8337 C.2            1 RES1               0.0000
     16 C16        226.8654  28.2276  13.9090 C.ar           1 RES1               0.0000
     17 O17        226.2418  35.3303  12.6662 O.2            1 RES1               0.0000
     18 H18        230.6365  31.6155  14.1169 H              1 RES1               0.0000
     19 H19        230.5940  31.3177  12.3699 H              1 RES1               0.0000
     20 H20        229.4178  29.6094  12.1919 H              1 RES1               0.0000
     21 H21        226.5403  31.4746  14.7570 H              1 RES1               0.0000
     22 H22        226.8596  33.7171  10.9038 H              1 RES1               0.0000
     23 H23        227.3213  34.6936  14.8194 H              1 RES1               0.0000
     24 H24        232.0273  33.2614  12.9030 H              1 RES1               0.0000
     25 H25        230.6330  33.7742  11.9555 H              1 RES1               0.0000
     26 H26        230.6753  34.0702  13.6922 H              1 RES1               0.0000
     27 H27        228.3621  27.4327  12.6063 H              1 RES1               0.0000
     28 H28        225.4979  29.2928  15.1591 H              1 RES1               0.0000
     29 H29        226.4007  27.2640  14.0899 H              1 RES1               0.0000
@<TRIPOS>BOND
    1    1    2 1     
    2    1    3 1     
    3    1    4 1     
    4    1    5 1     
    5    2    6 ar    
    6    2    7 ar    
    7    3    8 1     
    8    3    9 2     
    9    4   10 1     
   10    4   11 2     
   11    5   12 1     
   12    5   18 1     
   13    5   19 1     
   14    6   13 ar    
   15    6   20 1     
   16    7   14 ar    
   17    7   21 1     
   18    8   15 1     
   19    8   22 1     
   20   10   15 1     
   21   10   23 1     
   22   12   24 1     
   23   12   25 1     
   24   12   26 1     
   25   13   16 ar    
   26   13   27 1     
   27   14   16 ar    
   28   14   28 1     
   29   15   17 2     
   30   16   29 1     
@<TRIPOS>SUBSTRUCTURE
      1 RES1           1
@<TRIPOS>SET
DONOR_HYDROGENS      STATIC     ATOMS    <user>   **** ""
2 22 23
ATOM$RED        STATIC     ATOMS    COLORGROUP SYSTEM
2 22 23
@<TRIPOS>COMMENT
> <Gold.Version>
2022.3.0

> <Gold.Id.Protein>
unknown|4d1n_clean|pdb

> <Gold.Protein.RotatedTorsions>
[ 16995 16956 16955 16953 ] final -143.49 input   60.02 | X-H torsion
[ 18503 18464 18463 18461 ] final -150.06 input   59.99 | X-H torsion
[ 18563 18529 18530 18531 ] final  -14.23 input   85.91 | X-H torsion
[ 18713 18683 18684 18685 ] final   52.58 input  120.10 | X-H torsion
[ 18779 18741 18742 18743 ] final -143.27 input   94.66 | X-H torsion
[ 18963 18915 18916 18917 ] final -152.40 input   99.61 | X-H torsion
[ 19029 19005 19006 19007 ] final  -83.63 input  120.28 | X-H torsion
[ 17195 17175 17176 17177 ] final  154.77 input   50.47 | X-H torsion
[ 17251 17219 17220 17221 ] final   27.58 input  121.85 | X-H torsion
[ 18823 18809 18810 18811 ] final  107.68 input  109.66 | X-H torsion
[ 19103 19061 19062 19063 ] final   22.88 input   93.64 | X-H torsion
[ 18495 18453 18454 18455 ] final  -26.55 input  105.49 | X-H torsion
[ 18295 18273 18274 18275 ] final   50.48 input   34.55 | X-H torsion
[ 18327 18313 18314 18315 ] final -158.26 input   52.32 | X-H torsion
[ 18409 18361 18362 18363 ] final  138.41 input   29.77 | X-H torsion
[ 7524 7513 7514 7515 ] final   40.78 input   82.77 | X-H torsion
[ 7477 7455 7456 7457 ] final  -77.94 input   99.19 | X-H torsion
[ 18603 18589 18590 18591 ] final -101.60 input  124.64 | X-H torsion
[ 10105 10094 10093 10090 ] final  147.65 input   59.99 | X-H torsion
[ 18299 18278 18277 18274 ] final -157.11 input   60.00 | X-H torsion
[ 11477 11459 11460 11461 ] final    7.90 input   48.11 | X-H torsion
[ 18657 18629 18627 18624 ] final  -58.25 input   60.03 | X-H torsion
[ 11425 11414 11413 11410 ] final   43.49 input   60.02 | X-H torsion
[ 18875 18843 18844 18845 ] final    0.53 input   86.72 | X-H torsion
[ 17303 17281 17282 17283 ] final  -68.96 input   51.85 | X-H torsion
[ 22447 22415 22416 22417 ] final   44.41 input   56.20 | X-H torsion
[ 18243 18203 18204 18205 ] final  142.56 input   41.90 | X-H torsion
[ 11805 11781 11782 11783 ] final -179.37 input   87.31 | X-H torsion
[ 16987 16945 16946 16947 ] final    3.93 input   84.34 | X-H torsion
[ 27198 18532 18531 18530 ] final  177.56 input   -0.00 | X-H torsion
[ 27200 18626 18625 18624 ] final  -75.77 input    0.00 | X-H torsion
[ 27203 18686 18685 18684 ] final  -54.31 input   -0.00 | X-H torsion
[ 27223 17126 17125 17124 ] final   42.83 input    0.00 | X-H torsion
[ 27227 11604 11603 11602 ] final   62.80 input    0.00 | X-H torsion
[ 27231 17052 17051 17050 ] final  -47.33 input   -0.00 | X-H torsion
[ 27233 18744 18743 18742 ] final  139.29 input   -0.00 | X-H torsion
[ 27235 18592 18591 18590 ] final -175.30 input   -0.00 | X-H torsion
[ 27238 18918 18917 18916 ] final   12.66 input    0.00 | X-H torsion
[ 27240 19008 19007 19006 ] final   48.91 input    0.00 | X-H torsion
[ 27243 17178 17177 17176 ] final  106.19 input    0.00 | X-H torsion
[ 27245 18364 18363 18362 ] final  178.29 input    0.00 | X-H torsion
[ 27248 11412 11411 11410 ] final -145.76 input   -0.00 | X-H torsion
[ 27250 18206 18205 18204 ] final  118.71 input   -0.00 | X-H torsion
[ 27254 17222 17221 17220 ] final -168.18 input   -0.00 | X-H torsion
[ 27259 18316 18315 18314 ] final -122.80 input   -0.00 | X-H torsion
[ 27261 18456 18455 18454 ] final -121.69 input    0.00 | X-H torsion
[ 27264 18276 18275 18274 ] final  -58.34 input    0.00 | X-H torsion
[ 27267 17016 17015 17014 ] final -113.49 input    0.00 | X-H torsion
[ 27275 16948 16947 16946 ] final  106.37 input   -0.00 | X-H torsion

> <Gold.Protein.ActiveResidues>
 TRP414  CYS420  VAL421  GLY422  LEU460  SER462  SER482  GLN483  ILE485  ARG486 
 TYR487  ASP500  ASN503  TRP566  TYR567  GLY568  LEU569  PRO570  ALA571  VAL572 
 SER573  ASN574  PHE589  SER590  GLY591  TRP592  TYR593  MET594  GLY595  THR596 
 GLU597  ILE598  GLY599  VAL600  ARG601  ASP602  TYR603  ARG608  ILE653  VAL654 
 TRP683  PRO687  HEM750  H4B760 

> <Gold.Protein.RotatedAtoms>
  232.0610   34.0340   20.9369 H   0  0  0  0  0  0  0  0  0  0  0  0  # atno 7477 bound_to 7455
  232.5681   35.7620   19.6014 H   0  0  0  0  0  0  0  0  0  0  0  0  # atno 7524 bound_to 7513
  230.2057   42.0457   13.0319 H   0  0  0  0  0  0  0  0  0  0  0  0  # atno 10105 bound_to 10094
  221.5418   25.5112    9.0842 H   0  0  0  0  0  0  0  0  0  0  0  0  # atno 11425 bound_to 11414
  220.3861   27.4816    7.8000 H   0  0  0  0  0  0  0  0  0  0  0  0  # atno 11477 bound_to 11459
  225.5082   24.7633    2.0672 H   0  0  0  0  0  0  0  0  0  0  0  0  # atno 11805 bound_to 11781
  231.9983   28.4614    2.2363 H   0  0  0  0  0  0  0  0  0  0  0  0  # atno 16987 bound_to 16945
  227.8703   26.2062    6.1171 H   0  0  0  0  0  0  0  0  0  0  0  0  # atno 16995 bound_to 16956
  226.1839   32.8523    7.3886 H   0  0  0  0  0  0  0  0  0  0  0  0  # atno 17195 bound_to 17175
  223.3514   33.2671   10.4559 H   0  0  0  0  0  0  0  0  0  0  0  0  # atno 17251 bound_to 17219
  220.7197   31.3888   11.9788 H   0  0  0  0  0  0  0  0  0  0  0  0  # atno 17303 bound_to 17281
  220.5961   36.0994   12.1365 H   0  0  0  0  0  0  0  0  0  0  0  0  # atno 18243 bound_to 18203
  224.3862   38.4631   10.7897 H   0  0  0  0  0  0  0  0  0  0  0  0  # atno 18295 bound_to 18273
  225.0829   38.2117    7.3720 H   0  0  0  0  0  0  0  0  0  0  0  0  # atno 18299 bound_to 18278
  227.3893   37.6149   11.1998 H   0  0  0  0  0  0  0  0  0  0  0  0  # atno 18327 bound_to 18313
  231.5179   37.8538   10.4063 H   0  0  0  0  0  0  0  0  0  0  0  0  # atno 18409 bound_to 18361
  233.8464   34.9811    9.7567 H   0  0  0  0  0  0  0  0  0  0  0  0  # atno 18495 bound_to 18453
  229.9687   28.4226    6.3563 H   0  0  0  0  0  0  0  0  0  0  0  0  # atno 18503 bound_to 18464
  235.1953   31.6575   10.7795 H   0  0  0  0  0  0  0  0  0  0  0  0  # atno 18563 bound_to 18529
  237.5487   30.8262   10.7830 H   0  0  0  0  0  0  0  0  0  0  0  0  # atno 18603 bound_to 18589
  238.3115   28.0656   14.2252 H   0  0  0  0  0  0  0  0  0  0  0  0  # atno 18657 bound_to 18629
  236.5229   27.1919   11.3247 H   0  0  0  0  0  0  0  0  0  0  0  0  # atno 18713 bound_to 18683
  234.3807   26.2873    9.9803 H   0  0  0  0  0  0  0  0  0  0  0  0  # atno 18779 bound_to 18741
  237.7240   25.3300    8.9236 H   0  0  0  0  0  0  0  0  0  0  0  0  # atno 18823 bound_to 18809
  237.3503   22.7425   10.0135 H   0  0  0  0  0  0  0  0  0  0  0  0  # atno 18875 bound_to 18843
  236.3880   21.5410   12.5191 H   0  0  0  0  0  0  0  0  0  0  0  0  # atno 18963 bound_to 18915
  233.2980   20.9781   10.7076 H   0  0  0  0  0  0  0  0  0  0  0  0  # atno 19029 bound_to 19005
  234.7631   20.3413    8.7035 H   0  0  0  0  0  0  0  0  0  0  0  0  # atno 19103 bound_to 19061
  238.3418   34.3285   10.1738 H   0  0  0  0  0  0  0  0  0  0  0  0  # atno 22447 bound_to 22415
  226.4568   27.0075    6.0312 LP  0  0  0  0  0  0  0  0  0  0  0  0  # atno 27193 bound_to 16956
  227.7185   27.6557    6.8403 LP  0  0  0  0  0  0  0  0  0  0  0  0  # atno 27194 bound_to 16956
  229.1328   29.0059    7.6243 LP  0  0  0  0  0  0  0  0  0  0  0  0  # atno 27195 bound_to 18464
  230.0806   27.6883    7.8038 LP  0  0  0  0  0  0  0  0  0  0  0  0  # atno 27196 bound_to 18464
  234.9621   32.7523   12.1259 LP  0  0  0  0  0  0  0  0  0  0  0  0  # atno 27197 bound_to 18529
  236.5904   28.6825   10.7280 LP  0  0  0  0  0  0  0  0  0  0  0  0  # atno 27198 bound_to 18532
  235.4508   29.5633   11.6901 LP  0  0  0  0  0  0  0  0  0  0  0  0  # atno 27199 bound_to 18532
  236.8915   24.0419   11.3495 LP  0  0  0  0  0  0  0  0  0  0  0  0  # atno 27200 bound_to 18626
  236.2888   24.1390   12.9703 LP  0  0  0  0  0  0  0  0  0  0  0  0  # atno 27201 bound_to 18626
  236.4781   26.5435   12.9422 LP  0  0  0  0  0  0  0  0  0  0  0  0  # atno 27202 bound_to 18683
  233.9635   23.7641   11.2733 LP  0  0  0  0  0  0  0  0  0  0  0  0  # atno 27203 bound_to 18686
  233.1220   24.3821    9.8913 LP  0  0  0  0  0  0  0  0  0  0  0  0  # atno 27204 bound_to 18686
  236.1120   26.0719   10.0786 LP  0  0  0  0  0  0  0  0  0  0  0  0  # atno 27209 bound_to 18741
  235.8154   22.0853   10.9654 LP  0  0  0  0  0  0  0  0  0  0  0  0  # atno 27210 bound_to 18915
  234.0661   22.3578    9.9623 LP  0  0  0  0  0  0  0  0  0  0  0  0  # atno 27211 bound_to 19005
  227.6351   34.7384    8.9252 LP  0  0  0  0  0  0  0  0  0  0  0  0  # atno 27223 bound_to 17126
  226.4200   34.1566   10.0139 LP  0  0  0  0  0  0  0  0  0  0  0  0  # atno 27224 bound_to 17126
  225.8798   31.7105    8.6688 LP  0  0  0  0  0  0  0  0  0  0  0  0  # atno 27225 bound_to 17175
  224.4231   31.8976   10.2445 LP  0  0  0  0  0  0  0  0  0  0  0  0  # atno 27226 bound_to 17219
  224.6755   28.8333    5.4004 LP  0  0  0  0  0  0  0  0  0  0  0  0  # atno 27227 bound_to 11604
  225.8977   28.1106    4.4084 LP  0  0  0  0  0  0  0  0  0  0  0  0  # atno 27228 bound_to 11604
  226.5164   32.8352    4.7835 LP  0  0  0  0  0  0  0  0  0  0  0  0  # atno 27231 bound_to 17052
  227.2915   31.4705    5.5164 LP  0  0  0  0  0  0  0  0  0  0  0  0  # atno 27232 bound_to 17052
  236.4649   22.3686    7.4203 LP  0  0  0  0  0  0  0  0  0  0  0  0  # atno 27233 bound_to 18744
  235.0095   22.5901    8.3328 LP  0  0  0  0  0  0  0  0  0  0  0  0  # atno 27234 bound_to 18744
  238.0072   26.0086   10.0542 LP  0  0  0  0  0  0  0  0  0  0  0  0  # atno 27235 bound_to 18592
  238.3006   27.0882    8.7319 LP  0  0  0  0  0  0  0  0  0  0  0  0  # atno 27236 bound_to 18592
  236.5681   24.1659    8.3231 LP  0  0  0  0  0  0  0  0  0  0  0  0  # atno 27237 bound_to 18809
  233.3757   18.7294   11.2474 LP  0  0  0  0  0  0  0  0  0  0  0  0  # atno 27238 bound_to 18918
  233.0835   19.1462    9.5918 LP  0  0  0  0  0  0  0  0  0  0  0  0  # atno 27239 bound_to 18918
  231.8749   19.6555    6.7196 LP  0  0  0  0  0  0  0  0  0  0  0  0  # atno 27240 bound_to 19008
  232.9763   18.4551    7.3078 LP  0  0  0  0  0  0  0  0  0  0  0  0  # atno 27241 bound_to 19008
  234.0971   21.0817    7.2684 LP  0  0  0  0  0  0  0  0  0  0  0  0  # atno 27242 bound_to 19061
  222.4780   30.9435    8.5449 LP  0  0  0  0  0  0  0  0  0  0  0  0  # atno 27243 bound_to 17178
  221.7109   32.4899    8.4030 LP  0  0  0  0  0  0  0  0  0  0  0  0  # atno 27244 bound_to 17178
  233.2488   34.0814   11.7493 LP  0  0  0  0  0  0  0  0  0  0  0  0  # atno 27245 bound_to 18364
  232.4500   35.6167   11.8163 LP  0  0  0  0  0  0  0  0  0  0  0  0  # atno 27246 bound_to 18364
  233.0475   34.0950    8.4797 LP  0  0  0  0  0  0  0  0  0  0  0  0  # atno 27247 bound_to 18453
  221.0095   29.4088   10.5150 LP  0  0  0  0  0  0  0  0  0  0  0  0  # atno 27248 bound_to 11412
  220.7921   28.0468   11.5627 LP  0  0  0  0  0  0  0  0  0  0  0  0  # atno 27249 bound_to 11412
  223.9896   34.9792   10.2231 LP  0  0  0  0  0  0  0  0  0  0  0  0  # atno 27250 bound_to 18206
  223.8522   34.8220   11.9425 LP  0  0  0  0  0  0  0  0  0  0  0  0  # atno 27251 bound_to 18206
  220.0890   33.5570   11.6925 LP  0  0  0  0  0  0  0  0  0  0  0  0  # atno 27254 bound_to 17222
  221.7846   33.9042   11.6257 LP  0  0  0  0  0  0  0  0  0  0  0  0  # atno 27255 bound_to 17222
  224.0369   36.8497   11.3533 LP  0  0  0  0  0  0  0  0  0  0  0  0  # atno 27256 bound_to 18273
  228.2324   36.3767   10.2971 LP  0  0  0  0  0  0  0  0  0  0  0  0  # atno 27257 bound_to 18313
  230.9066   36.2739   10.8471 LP  0  0  0  0  0  0  0  0  0  0  0  0  # atno 27258 bound_to 18361
  230.1749   37.0262    8.0477 LP  0  0  0  0  0  0  0  0  0  0  0  0  # atno 27259 bound_to 18316
  230.1056   38.7189    8.4080 LP  0  0  0  0  0  0  0  0  0  0  0  0  # atno 27260 bound_to 18316
  237.2098   33.4476   10.1517 LP  0  0  0  0  0  0  0  0  0  0  0  0  # atno 27261 bound_to 18456
  236.0750   34.7439   10.3300 LP  0  0  0  0  0  0  0  0  0  0  0  0  # atno 27262 bound_to 18456
  234.1842   35.2308   19.1986 LP  0  0  0  0  0  0  0  0  0  0  0  0  # atno 27263 bound_to 7513
  226.5743   39.6663   10.2331 LP  0  0  0  0  0  0  0  0  0  0  0  0  # atno 27264 bound_to 18276
  227.1683   39.4430   11.8448 LP  0  0  0  0  0  0  0  0  0  0  0  0  # atno 27265 bound_to 18276
  232.6464   32.9111   19.7323 LP  0  0  0  0  0  0  0  0  0  0  0  0  # atno 27266 bound_to 7455
  231.5473   33.4977    5.7324 LP  0  0  0  0  0  0  0  0  0  0  0  0  # atno 27267 bound_to 17016
  232.1281   34.8787    4.8632 LP  0  0  0  0  0  0  0  0  0  0  0  0  # atno 27268 bound_to 17016
  239.0075   30.5278   11.6948 LP  0  0  0  0  0  0  0  0  0  0  0  0  # atno 27269 bound_to 18589
  230.2104   41.5989   11.4678 LP  0  0  0  0  0  0  0  0  0  0  0  0  # atno 27270 bound_to 10094
  229.5727   40.6106   12.6006 LP  0  0  0  0  0  0  0  0  0  0  0  0  # atno 27271 bound_to 10094
  226.3578   38.8076    8.1895 LP  0  0  0  0  0  0  0  0  0  0  0  0  # atno 27272 bound_to 18278
  224.8815   38.7725    8.8866 LP  0  0  0  0  0  0  0  0  0  0  0  0  # atno 27273 bound_to 18278
  221.1400   27.5293    9.3856 LP  0  0  0  0  0  0  0  0  0  0  0  0  # atno 27274 bound_to 11459
  232.7231   30.4371    3.4965 LP  0  0  0  0  0  0  0  0  0  0  0  0  # atno 27275 bound_to 16948
  231.0933   30.2299    4.0451 LP  0  0  0  0  0  0  0  0  0  0  0  0  # atno 27276 bound_to 16948

> <Gold.Score>
     Fitness  S(hb_ext) S(vdw_ext)  S(hb_int)    S(int)      intcor
     36.76       4.24      25.05       0.00      -1.93      -0.76

> <Gold.Goldscore.Fitness>
36.7596

> <Gold.Goldscore.Internal.Vdw>
-2.3184

> <Gold.Goldscore.Internal.Torsion>
-0.3662

> <Gold.Goldscore.External.Vdw>
25.0515

> <Gold.Goldscore.Internal.HBond>
0.0000

> <Gold.Goldscore.External.HBond>
4.2431

> <Gold.Goldscore.Internal.Correction>
-0.7554

> <Gold.Goldscore.Hbonds>
donor molecule, donor type, donor heavy atom, donor atom, acceptor molecule, acceptor atom, score
      P1  M 26885 27277       L1    11  0.41
      L1  H     8    22       P1 17126  0.09

> <Gold.Goldscore.Internal.Vdw.Weighted>
-2.3184

> <Gold.Goldscore.Internal.Torsion.Weighted>
-0.3662

> <Gold.Goldscore.External.Vdw.Weighted>
34.4458

> <Gold.Goldscore.Internal.HBond.Weighted>
0.0000

> <Gold.Goldscore.External.HBond.Weighted>
4.2431

> <Gold.Goldscore.Internal.Correction.Weighted>
-0.7554

> <Gold.Rescore>
     Score     S(PLP)   S(hbond)     S(cho)   S(metal)  DE(clash)   DE(tors)     intcor
     33.35     -28.53       0.16       0.00       1.00       1.35       0.15       ----

> <Gold.PLP.Fitness>
33.3521

> <Gold.PLP.PLP>
-28.5303

> <Gold.PLP.part.hbond>
-2.4281

> <Gold.PLP.part.metal>
-0.8699

> <Gold.PLP.part.buried>
22.6064

> <Gold.PLP.part.nonpolar>
-56.8739

> <Gold.PLP.part.repulsive>
6.5302

> <Gold.PLP.ligand.clash>
1.3459

> <Gold.PLP.ligand.torsion>
0.1513

> <Gold.PLP.Chemscore.Hbond>
0.1568

> <Gold.PLP.Chemscore.CHOScore>
0.0000

> <Gold.PLP.Chemscore.Metal>
1.0000

> <Gold.Chemscore.Hbonds>
donor molecule, donor type, donor heavy atom, donor atom, acceptor molecule, acceptor atom, score
      L1  H     8    22       P1 17126  0.98
      P1  M 26885 26885       L1    11  1.00

> <Gold.PLP.Chemscore.Internal.Correction>
   9.000000E+99

#       Name:                CT1002167954
#       Creating user name   hitesit
#       Creation time:       Sun Apr 16 22:59:42 2023


#       File generated by GOLD software.
#

@<TRIPOS>MOLECULE
CT1002167954|ligand_prepared|mol2|1|dock4
    29    30     1
SMALL
NO_CHARGES


@<TRIPOS>ATOM
      1 C1         228.3548  31.6232  13.5960 C.3            1 RES1               0.0000
      2 C2         228.0170  30.1670  13.2164 C.ar           1 RES1               0.0000
      3 C3         229.8255  31.6299  14.0024 C.2            1 RES1               0.0000
      4 C4         228.0456  32.4677  12.3649 C.2            1 RES1               0.0000
      5 C5         227.5171  32.1720  14.7745 C.3            1 RES1               0.0000
      6 C6         227.0467  29.4584  13.9186 C.ar           1 RES1               0.0000
      7 C7         228.6642  29.5208  12.1665 C.ar           1 RES1               0.0000
      8 N8         230.7190  32.1810  13.1318 N.am           1 RES1               0.0000
      9 O9         230.2006  31.1239  15.0528 O.2            1 RES1               0.0000
     10 N10        229.0914  33.0871  11.7320 N.am           1 RES1               0.0000
     11 O11        226.9080  32.5889  11.9273 O.2            1 RES1               0.0000
     12 C12        227.8154  33.6236  15.1151 C.3            1 RES1               0.0000
     13 C13        226.7326  28.1522  13.5817 C.ar           1 RES1               0.0000
     14 C14        228.3487  28.2145  11.8313 C.ar           1 RES1               0.0000
     15 C15        230.4178  32.9571  12.0415 C.2            1 RES1               0.0000
     16 C16        227.3830  27.5296  12.5377 C.ar           1 RES1               0.0000
     17 O17        231.3049  33.5026  11.3914 O.2            1 RES1               0.0000
     18 H18        226.4530  32.0794  14.5246 H              1 RES1               0.0000
     19 H19        227.7082  31.5548  15.6611 H              1 RES1               0.0000
     20 H20        226.5261  29.9311  14.7448 H              1 RES1               0.0000
     21 H21        229.4282  30.0398  11.5975 H              1 RES1               0.0000
     22 H22        231.7021  31.9992  13.3076 H              1 RES1               0.0000
     23 H23        228.8595  33.7022  10.9585 H              1 RES1               0.0000
     24 H24        227.2010  33.9584  15.9483 H              1 RES1               0.0000
     25 H25        228.8600  33.7478  15.3931 H              1 RES1               0.0000
     26 H26        227.6123  34.2692  14.2633 H              1 RES1               0.0000
     27 H27        225.9727  27.6171  14.1416 H              1 RES1               0.0000
     28 H28        228.8636  27.7281  11.0093 H              1 RES1               0.0000
     29 H29        227.1364  26.5065  12.2737 H              1 RES1               0.0000
@<TRIPOS>BOND
    1    1    2 1     
    2    1    3 1     
    3    1    4 1     
    4    1    5 1     
    5    2    6 ar    
    6    2    7 ar    
    7    3    8 1     
    8    3    9 2     
    9    4   10 1     
   10    4   11 2     
   11    5   12 1     
   12    5   18 1     
   13    5   19 1     
   14    6   13 ar    
   15    6   20 1     
   16    7   14 ar    
   17    7   21 1     
   18    8   15 1     
   19    8   22 1     
   20   10   15 1     
   21   10   23 1     
   22   12   24 1     
   23   12   25 1     
   24   12   26 1     
   25   13   16 ar    
   26   13   27 1     
   27   14   16 ar    
   28   14   28 1     
   29   15   17 2     
   30   16   29 1     
@<TRIPOS>SUBSTRUCTURE
      1 RES1           1
@<TRIPOS>SET
DONOR_HYDROGENS      STATIC     ATOMS    <user>   **** ""
2 22 23
ATOM$RED        STATIC     ATOMS    COLORGROUP SYSTEM
2 22 23
@<TRIPOS>COMMENT
> <Gold.Version>
2022.3.0

> <Gold.Id.Protein>
unknown|4d1n_clean|pdb

> <Gold.Protein.RotatedTorsions>
[ 16995 16956 16955 16953 ] final  -81.44 input   60.02 | X-H torsion
[ 18503 18464 18463 18461 ] final  -52.67 input   59.99 | X-H torsion
[ 18563 18529 18530 18531 ] final  163.91 input   85.91 | X-H torsion
[ 18713 18683 18684 18685 ] final  174.75 input  120.10 | X-H torsion
[ 18779 18741 18742 18743 ] final  154.20 input   94.66 | X-H torsion
[ 18963 18915 18916 18917 ] final    2.96 input   99.61 | X-H torsion
[ 19029 19005 19006 19007 ] final  147.17 input  120.28 | X-H torsion
[ 17195 17175 17176 17177 ] final  129.56 input   50.47 | X-H torsion
[ 17251 17219 17220 17221 ] final  106.78 input  121.85 | X-H torsion
[ 18823 18809 18810 18811 ] final -153.45 input  109.66 | X-H torsion
[ 19103 19061 19062 19063 ] final  -88.38 input   93.64 | X-H torsion
[ 18495 18453 18454 18455 ] final   53.11 input  105.49 | X-H torsion
[ 18295 18273 18274 18275 ] final  109.18 input   34.55 | X-H torsion
[ 18327 18313 18314 18315 ] final   73.08 input   52.32 | X-H torsion
[ 18409 18361 18362 18363 ] final -119.33 input   29.77 | X-H torsion
[ 7524 7513 7514 7515 ] final -177.68 input   82.77 | X-H torsion
[ 7477 7455 7456 7457 ] final -164.25 input   99.19 | X-H torsion
[ 18603 18589 18590 18591 ] final -133.64 input  124.64 | X-H torsion
[ 10105 10094 10093 10090 ] final   21.94 input   59.99 | X-H torsion
[ 18299 18278 18277 18274 ] final  -52.77 input   60.00 | X-H torsion
[ 11477 11459 11460 11461 ] final  176.71 input   48.11 | X-H torsion
[ 18657 18629 18627 18624 ] final   55.27 input   60.03 | X-H torsion
[ 11425 11414 11413 11410 ] final   60.32 input   60.02 | X-H torsion
[ 18875 18843 18844 18845 ] final   95.13 input   86.72 | X-H torsion
[ 17303 17281 17282 17283 ] final -128.05 input   51.85 | X-H torsion
[ 22447 22415 22416 22417 ] final    8.61 input   56.20 | X-H torsion
[ 18243 18203 18204 18205 ] final  -87.10 input   41.90 | X-H torsion
[ 11805 11781 11782 11783 ] final   15.70 input   87.31 | X-H torsion
[ 16987 16945 16946 16947 ] final   -1.13 input   84.34 | X-H torsion
[ 27198 18532 18531 18530 ] final   29.05 input   -0.00 | X-H torsion
[ 27200 18626 18625 18624 ] final   51.39 input    0.00 | X-H torsion
[ 27203 18686 18685 18684 ] final  -41.59 input   -0.00 | X-H torsion
[ 27223 17126 17125 17124 ] final  -76.87 input    0.00 | X-H torsion
[ 27227 11604 11603 11602 ] final -134.74 input    0.00 | X-H torsion
[ 27231 17052 17051 17050 ] final   90.43 input   -0.00 | X-H torsion
[ 27233 18744 18743 18742 ] final   88.84 input   -0.00 | X-H torsion
[ 27235 18592 18591 18590 ] final  161.92 input   -0.00 | X-H torsion
[ 27238 18918 18917 18916 ] final  172.97 input    0.00 | X-H torsion
[ 27240 19008 19007 19006 ] final  123.61 input    0.00 | X-H torsion
[ 27243 17178 17177 17176 ] final   -7.26 input    0.00 | X-H torsion
[ 27245 18364 18363 18362 ] final  -17.90 input    0.00 | X-H torsion
[ 27248 11412 11411 11410 ] final -104.53 input   -0.00 | X-H torsion
[ 27250 18206 18205 18204 ] final  -89.86 input   -0.00 | X-H torsion
[ 27254 17222 17221 17220 ] final  146.75 input   -0.00 | X-H torsion
[ 27259 18316 18315 18314 ] final -159.70 input   -0.00 | X-H torsion
[ 27261 18456 18455 18454 ] final  169.55 input    0.00 | X-H torsion
[ 27264 18276 18275 18274 ] final -175.49 input    0.00 | X-H torsion
[ 27267 17016 17015 17014 ] final -172.48 input    0.00 | X-H torsion
[ 27275 16948 16947 16946 ] final   68.24 input   -0.00 | X-H torsion

> <Gold.Protein.ActiveResidues>
 TRP414  CYS420  VAL421  GLY422  LEU460  SER462  SER482  GLN483  ILE485  ARG486 
 TYR487  ASP500  ASN503  TRP566  TYR567  GLY568  LEU569  PRO570  ALA571  VAL572 
 SER573  ASN574  PHE589  SER590  GLY591  TRP592  TYR593  MET594  GLY595  THR596 
 GLU597  ILE598  GLY599  VAL600  ARG601  ASP602  TYR603  ARG608  ILE653  VAL654 
 TRP683  PRO687  HEM750  H4B760 

> <Gold.Protein.RotatedAtoms>
  232.4629   32.8943   20.9940 H   0  0  0  0  0  0  0  0  0  0  0  0  # atno 7477 bound_to 7455
  233.8291   35.0086   18.8031 H   0  0  0  0  0  0  0  0  0  0  0  0  # atno 7524 bound_to 7513
  230.1693   41.5157   11.4540 H   0  0  0  0  0  0  0  0  0  0  0  0  # atno 10105 bound_to 10094
  221.6994   25.4290    9.2926 H   0  0  0  0  0  0  0  0  0  0  0  0  # atno 11425 bound_to 11414
  221.3070   27.4682    9.3382 H   0  0  0  0  0  0  0  0  0  0  0  0  # atno 11477 bound_to 11459
  224.5025   23.6756    3.0446 H   0  0  0  0  0  0  0  0  0  0  0  0  # atno 11805 bound_to 11781
  232.0552   28.4798    2.1862 H   0  0  0  0  0  0  0  0  0  0  0  0  # atno 16987 bound_to 16945
  228.2328   26.9323    6.6386 H   0  0  0  0  0  0  0  0  0  0  0  0  # atno 16995 bound_to 16956
  225.9601   32.5950    7.2191 H   0  0  0  0  0  0  0  0  0  0  0  0  # atno 17195 bound_to 17175
  224.2443   32.9420   11.0813 H   0  0  0  0  0  0  0  0  0  0  0  0  # atno 17251 bound_to 17219
  221.0336   31.8537   11.3153 H   0  0  0  0  0  0  0  0  0  0  0  0  # atno 17303 bound_to 17281
  220.8515   36.3779   10.5769 H   0  0  0  0  0  0  0  0  0  0  0  0  # atno 18243 bound_to 18203
  223.9483   37.9247   10.2817 H   0  0  0  0  0  0  0  0  0  0  0  0  # atno 18295 bound_to 18273
  224.7084   38.6705    8.7276 H   0  0  0  0  0  0  0  0  0  0  0  0  # atno 18299 bound_to 18278
  228.2107   36.2523   11.0445 H   0  0  0  0  0  0  0  0  0  0  0  0  # atno 18327 bound_to 18313
  230.5560   36.9282   10.0370 H   0  0  0  0  0  0  0  0  0  0  0  0  # atno 18409 bound_to 18361
  234.2292   34.6779    8.7350 H   0  0  0  0  0  0  0  0  0  0  0  0  # atno 18495 bound_to 18453
  230.2371   27.6182    7.4778 H   0  0  0  0  0  0  0  0  0  0  0  0  # atno 18503 bound_to 18464
  234.9631   32.7436   12.1704 H   0  0  0  0  0  0  0  0  0  0  0  0  # atno 18563 bound_to 18529
  237.8908   31.1092   10.5852 H   0  0  0  0  0  0  0  0  0  0  0  0  # atno 18603 bound_to 18589
  237.1318   27.0594   14.4485 H   0  0  0  0  0  0  0  0  0  0  0  0  # atno 18657 bound_to 18629
  236.2763   27.3540   12.8284 H   0  0  0  0  0  0  0  0  0  0  0  0  # atno 18713 bound_to 18683
  234.9583   26.9085    9.6315 H   0  0  0  0  0  0  0  0  0  0  0  0  # atno 18779 bound_to 18741
  237.1744   24.9456    7.7617 H   0  0  0  0  0  0  0  0  0  0  0  0  # atno 18823 bound_to 18809
  238.0010   23.4886   10.8583 H   0  0  0  0  0  0  0  0  0  0  0  0  # atno 18875 bound_to 18843
  235.9709   21.7590   10.8758 H   0  0  0  0  0  0  0  0  0  0  0  0  # atno 18963 bound_to 18915
  233.4279   22.5161   10.3213 H   0  0  0  0  0  0  0  0  0  0  0  0  # atno 19029 bound_to 19005
  233.6746   20.3225    7.7352 H   0  0  0  0  0  0  0  0  0  0  0  0  # atno 19103 bound_to 19061
  238.7407   34.1230    9.8670 H   0  0  0  0  0  0  0  0  0  0  0  0  # atno 22447 bound_to 22415
  227.0101   26.2367    5.8211 LP  0  0  0  0  0  0  0  0  0  0  0  0  # atno 27193 bound_to 16956
  226.8001   27.6951    6.5250 LP  0  0  0  0  0  0  0  0  0  0  0  0  # atno 27194 bound_to 16956
  229.7396   28.7101    6.3791 LP  0  0  0  0  0  0  0  0  0  0  0  0  # atno 27195 bound_to 18464
  229.2034   28.7945    7.9192 LP  0  0  0  0  0  0  0  0  0  0  0  0  # atno 27196 bound_to 18464
  235.1867   31.7020   10.7808 LP  0  0  0  0  0  0  0  0  0  0  0  0  # atno 27197 bound_to 18529
  235.3764   29.7005   11.2468 LP  0  0  0  0  0  0  0  0  0  0  0  0  # atno 27198 bound_to 18532
  236.6648   28.5454   11.1713 LP  0  0  0  0  0  0  0  0  0  0  0  0  # atno 27199 bound_to 18532
  237.0383   23.9782   12.8924 LP  0  0  0  0  0  0  0  0  0  0  0  0  # atno 27200 bound_to 18626
  236.1419   24.2027   11.4274 LP  0  0  0  0  0  0  0  0  0  0  0  0  # atno 27201 bound_to 18626
  236.7227   26.3827   11.4515 LP  0  0  0  0  0  0  0  0  0  0  0  0  # atno 27202 bound_to 18683
  233.8263   23.8557   11.3712 LP  0  0  0  0  0  0  0  0  0  0  0  0  # atno 27203 bound_to 18686
  233.2593   24.2905    9.7934 LP  0  0  0  0  0  0  0  0  0  0  0  0  # atno 27204 bound_to 18686
  235.5473   25.4645   10.4197 LP  0  0  0  0  0  0  0  0  0  0  0  0  # atno 27209 bound_to 18741
  236.2293   21.8689   12.5961 LP  0  0  0  0  0  0  0  0  0  0  0  0  # atno 27210 bound_to 18915
  233.9384   20.8465   10.3419 LP  0  0  0  0  0  0  0  0  0  0  0  0  # atno 27211 bound_to 19005
  227.2556   33.9508   10.1413 LP  0  0  0  0  0  0  0  0  0  0  0  0  # atno 27223 bound_to 17126
  226.7995   34.9442    8.7978 LP  0  0  0  0  0  0  0  0  0  0  0  0  # atno 27224 bound_to 17126
  226.1028   31.9668    8.8377 LP  0  0  0  0  0  0  0  0  0  0  0  0  # atno 27225 bound_to 17175
  223.5633   32.2106    9.6425 LP  0  0  0  0  0  0  0  0  0  0  0  0  # atno 27226 bound_to 17219
  225.7917   27.8905    4.5085 LP  0  0  0  0  0  0  0  0  0  0  0  0  # atno 27227 bound_to 11604
  224.7815   29.0534    5.3003 LP  0  0  0  0  0  0  0  0  0  0  0  0  # atno 27228 bound_to 11604
  227.4743   31.5416    4.9240 LP  0  0  0  0  0  0  0  0  0  0  0  0  # atno 27231 bound_to 17052
  226.3336   32.7641    5.3759 LP  0  0  0  0  0  0  0  0  0  0  0  0  # atno 27232 bound_to 17052
  235.8945   22.6437    7.0409 LP  0  0  0  0  0  0  0  0  0  0  0  0  # atno 27233 bound_to 18744
  235.5799   22.3150    8.7122 LP  0  0  0  0  0  0  0  0  0  0  0  0  # atno 27234 bound_to 18744
  238.3424   25.9633   10.0031 LP  0  0  0  0  0  0  0  0  0  0  0  0  # atno 27235 bound_to 18592
  237.9654   27.1335    8.7830 LP  0  0  0  0  0  0  0  0  0  0  0  0  # atno 27236 bound_to 18592
  237.1060   24.5420    9.4600 LP  0  0  0  0  0  0  0  0  0  0  0  0  # atno 27237 bound_to 18809
  232.8131   19.1915    9.7039 LP  0  0  0  0  0  0  0  0  0  0  0  0  # atno 27238 bound_to 18918
  233.6461   18.6841   11.1353 LP  0  0  0  0  0  0  0  0  0  0  0  0  # atno 27239 bound_to 18918
  232.7435   19.3008    6.2464 LP  0  0  0  0  0  0  0  0  0  0  0  0  # atno 27240 bound_to 19008
  232.1077   18.8099    7.7810 LP  0  0  0  0  0  0  0  0  0  0  0  0  # atno 27241 bound_to 19008
  235.1629   21.1001    8.2165 LP  0  0  0  0  0  0  0  0  0  0  0  0  # atno 27242 bound_to 19061
  222.3184   32.1481    7.7572 LP  0  0  0  0  0  0  0  0  0  0  0  0  # atno 27243 bound_to 17178
  221.8706   31.2853    9.1907 LP  0  0  0  0  0  0  0  0  0  0  0  0  # atno 27244 bound_to 17178
  232.6786   35.6955   11.8484 LP  0  0  0  0  0  0  0  0  0  0  0  0  # atno 27245 bound_to 18364
  233.0202   34.0026   11.7172 LP  0  0  0  0  0  0  0  0  0  0  0  0  # atno 27246 bound_to 18364
  232.6735   34.3912    9.4777 LP  0  0  0  0  0  0  0  0  0  0  0  0  # atno 27247 bound_to 18453
  220.4330   29.3791   10.7118 LP  0  0  0  0  0  0  0  0  0  0  0  0  # atno 27248 bound_to 11412
  221.3686   28.0765   11.3659 LP  0  0  0  0  0  0  0  0  0  0  0  0  # atno 27249 bound_to 11412
  224.2701   34.8806   11.8751 LP  0  0  0  0  0  0  0  0  0  0  0  0  # atno 27250 bound_to 18206
  223.5718   34.9206   10.2905 LP  0  0  0  0  0  0  0  0  0  0  0  0  # atno 27251 bound_to 18206
  220.2961   33.6960   11.0774 LP  0  0  0  0  0  0  0  0  0  0  0  0  # atno 27254 bound_to 17222
  221.5775   33.7652   12.2408 LP  0  0  0  0  0  0  0  0  0  0  0  0  # atno 27255 bound_to 17222
  224.4695   37.3816   11.8552 LP  0  0  0  0  0  0  0  0  0  0  0  0  # atno 27256 bound_to 18273
  227.4338   37.7013   10.4481 LP  0  0  0  0  0  0  0  0  0  0  0  0  # atno 27257 bound_to 18313
  231.8375   37.1698   11.2047 LP  0  0  0  0  0  0  0  0  0  0  0  0  # atno 27258 bound_to 18361
  230.6783   37.2360    7.9926 LP  0  0  0  0  0  0  0  0  0  0  0  0  # atno 27259 bound_to 18316
  229.6023   38.5092    8.4631 LP  0  0  0  0  0  0  0  0  0  0  0  0  # atno 27260 bound_to 18316
  237.0502   33.9309   10.9868 LP  0  0  0  0  0  0  0  0  0  0  0  0  # atno 27261 bound_to 18456
  236.2345   34.2606    9.4948 LP  0  0  0  0  0  0  0  0  0  0  0  0  # atno 27262 bound_to 18456
  232.9552   35.9650   19.9767 LP  0  0  0  0  0  0  0  0  0  0  0  0  # atno 27263 bound_to 7513
  227.7252   39.6334   11.1598 LP  0  0  0  0  0  0  0  0  0  0  0  0  # atno 27264 bound_to 18276
  226.0174   39.4758   10.9181 LP  0  0  0  0  0  0  0  0  0  0  0  0  # atno 27265 bound_to 18276
  232.2541   34.0237   19.6765 LP  0  0  0  0  0  0  0  0  0  0  0  0  # atno 27266 bound_to 7455
  231.0673   34.2014    5.6930 LP  0  0  0  0  0  0  0  0  0  0  0  0  # atno 27267 bound_to 17016
  232.6082   34.1750    4.9026 LP  0  0  0  0  0  0  0  0  0  0  0  0  # atno 27268 bound_to 17016
  238.6714   30.2498   11.8891 LP  0  0  0  0  0  0  0  0  0  0  0  0  # atno 27269 bound_to 18589
  229.5748   40.6405   12.6897 LP  0  0  0  0  0  0  0  0  0  0  0  0  # atno 27270 bound_to 10094
  230.2451   42.1032   12.9690 LP  0  0  0  0  0  0  0  0  0  0  0  0  # atno 27271 bound_to 10094
  225.3236   38.2309    7.2864 LP  0  0  0  0  0  0  0  0  0  0  0  0  # atno 27272 bound_to 18278
  226.2928   38.8873    8.4250 LP  0  0  0  0  0  0  0  0  0  0  0  0  # atno 27273 bound_to 18278
  220.2659   27.5419    7.9257 LP  0  0  0  0  0  0  0  0  0  0  0  0  # atno 27274 bound_to 11459
  232.5553   29.9091    3.3819 LP  0  0  0  0  0  0  0  0  0  0  0  0  # atno 27275 bound_to 16948
  231.2611   30.7579    4.1596 LP  0  0  0  0  0  0  0  0  0  0  0  0  # atno 27276 bound_to 16948

> <Gold.Score>
     Fitness  S(hb_ext) S(vdw_ext)  S(hb_int)    S(int)      intcor
     35.58       0.84      25.88       0.00      -0.84      -0.77

> <Gold.Goldscore.Fitness>
35.5801

> <Gold.Goldscore.Internal.Vdw>
-1.2324

> <Gold.Goldscore.Internal.Torsion>
-0.3733

> <Gold.Goldscore.External.Vdw>
25.8755

> <Gold.Goldscore.Internal.HBond>
0.0000

> <Gold.Goldscore.External.HBond>
0.8377

> <Gold.Goldscore.Internal.Correction>
-0.7693

> <Gold.Goldscore.Hbonds>
donor molecule, donor type, donor heavy atom, donor atom, acceptor molecule, acceptor atom, score
      L1  H     8    22       P1 18691  0.11
      L1  H    10    23       P1 17126  0.07

> <Gold.Goldscore.Internal.Vdw.Weighted>
-1.2324

> <Gold.Goldscore.Internal.Torsion.Weighted>
-0.3733

> <Gold.Goldscore.External.Vdw.Weighted>
35.5788

> <Gold.Goldscore.Internal.HBond.Weighted>
0.0000

> <Gold.Goldscore.External.HBond.Weighted>
0.8377

> <Gold.Goldscore.Internal.Correction.Weighted>
-0.7693

> <Gold.Rescore>
     Score     S(PLP)   S(hbond)     S(cho)   S(metal)  DE(clash)   DE(tors)     intcor
     32.03     -29.41       1.20       0.00       0.00       0.00       0.49       ----

> <Gold.PLP.Fitness>
32.0297

> <Gold.PLP.PLP>
-29.4133

> <Gold.PLP.part.hbond>
-4.0000

> <Gold.PLP.part.metal>
0.0000

> <Gold.PLP.part.buried>
12.8268

> <Gold.PLP.part.nonpolar>
-41.2961

> <Gold.PLP.part.repulsive>
1.0930

> <Gold.PLP.ligand.clash>
0.0000

> <Gold.PLP.ligand.torsion>
0.4948

> <Gold.PLP.Chemscore.Hbond>
1.2020

> <Gold.PLP.Chemscore.CHOScore>
0.0000

> <Gold.PLP.Chemscore.Metal>
0.0000

> <Gold.Chemscore.Hbonds>
donor molecule, donor type, donor heavy atom, donor atom, acceptor molecule, acceptor atom, score
      L1  H     8    22       P1 18691  0.78

> <Gold.PLP.Chemscore.Internal.Correction>
   9.000000E+99

#       Name:                CT1002167954
#       Creating user name   hitesit
#       Creation time:       Sun Apr 16 22:59:39 2023


#       File generated by GOLD software.
#

@<TRIPOS>MOLECULE
CT1002167954|ligand_prepared|mol2|1|dock1
    29    30     1
SMALL
NO_CHARGES


@<TRIPOS>ATOM
      1 C1         225.1958  25.5601  13.1885 C.3            1 RES1               0.0000
      2 C2         226.5659  26.1308  12.7689 C.ar           1 RES1               0.0000
      3 C3         225.0845  25.7770  14.6948 C.2            1 RES1               0.0000
      4 C4         224.1516  26.3141  12.3726 C.2            1 RES1               0.0000
      5 C5         225.0318  24.0504  12.8961 C.3            1 RES1               0.0000
      6 C6         227.5924  25.2832  12.3632 C.ar           1 RES1               0.0000
      7 C7         226.8169  27.5003  12.7796 C.ar           1 RES1               0.0000
      8 N8         224.2446  26.7586  15.1314 N.am           1 RES1               0.0000
      9 O9         225.7534  25.1232  15.4856 O.2            1 RES1               0.0000
     10 N10        223.2774  27.1282  13.0439 N.am           1 RES1               0.0000
     11 O11        224.0886  26.2234  11.1527 O.2            1 RES1               0.0000
     12 C12        223.6368  23.5182  13.1840 C.3            1 RES1               0.0000
     13 C13        228.8243  25.7866  11.9794 C.ar           1 RES1               0.0000
     14 C14        228.0496  28.0016  12.3956 C.ar           1 RES1               0.0000
     15 C15        223.2962  27.4084  14.3831 C.2            1 RES1               0.0000
     16 C16        229.0536  27.1459  11.9948 C.ar           1 RES1               0.0000
     17 O17        222.5104  28.1941  14.9051 O.2            1 RES1               0.0000
     18 H18        225.2687  23.8674  11.8408 H              1 RES1               0.0000
     19 H19        225.7549  23.4925  13.5038 H              1 RES1               0.0000
     20 H20        227.4313  24.2105  12.3469 H              1 RES1               0.0000
     21 H21        226.0421  28.1922  13.0922 H              1 RES1               0.0000
     22 H22        224.3295  27.0353  16.1044 H              1 RES1               0.0000
     23 H23        222.5446  27.5658  12.4945 H              1 RES1               0.0000
     24 H24        223.5762  22.4548  12.9621 H              1 RES1               0.0000
     25 H25        223.3779  23.6610  14.2311 H              1 RES1               0.0000
     26 H26        222.8946  24.0337  12.5780 H              1 RES1               0.0000
     27 H27        229.6116  25.1089  11.6661 H              1 RES1               0.0000
     28 H28        228.2259  29.0721  12.4099 H              1 RES1               0.0000
     29 H29        230.0187  27.5400  11.6937 H              1 RES1               0.0000
@<TRIPOS>BOND
    1    1    2 1     
    2    1    3 1     
    3    1    4 1     
    4    1    5 1     
    5    2    6 ar    
    6    2    7 ar    
    7    3    8 1     
    8    3    9 2     
    9    4   10 1     
   10    4   11 2     
   11    5   12 1     
   12    5   18 1     
   13    5   19 1     
   14    6   13 ar    
   15    6   20 1     
   16    7   14 ar    
   17    7   21 1     
   18    8   15 1     
   19    8   22 1     
   20   10   15 1     
   21   10   23 1     
   22   12   24 1     
   23   12   25 1     
   24   12   26 1     
   25   13   16 ar    
   26   13   27 1     
   27   14   16 ar    
   28   14   28 1     
   29   15   17 2     
   30   16   29 1     
@<TRIPOS>SUBSTRUCTURE
      1 RES1           1
@<TRIPOS>SET
DONOR_HYDROGENS      STATIC     ATOMS    <user>   **** ""
2 22 23
ATOM$RED        STATIC     ATOMS    COLORGROUP SYSTEM
2 22 23
@<TRIPOS>COMMENT
> <Gold.Version>
2022.3.0

> <Gold.Id.Protein>
unknown|4d1n_clean|pdb

> <Gold.Protein.RotatedTorsions>
[ 16995 16956 16955 16953 ] final  131.67 input   60.02 | X-H torsion
[ 18503 18464 18463 18461 ] final   42.98 input   59.99 | X-H torsion
[ 18563 18529 18530 18531 ] final   43.65 input   85.91 | X-H torsion
[ 18713 18683 18684 18685 ] final   90.47 input  120.10 | X-H torsion
[ 18779 18741 18742 18743 ] final -163.49 input   94.66 | X-H torsion
[ 18963 18915 18916 18917 ] final   -1.62 input   99.61 | X-H torsion
[ 19029 19005 19006 19007 ] final   34.33 input  120.28 | X-H torsion
[ 17195 17175 17176 17177 ] final -154.99 input   50.47 | X-H torsion
[ 17251 17219 17220 17221 ] final -107.53 input  121.85 | X-H torsion
[ 18823 18809 18810 18811 ] final  158.75 input  109.66 | X-H torsion
[ 19103 19061 19062 19063 ] final  -16.22 input   93.64 | X-H torsion
[ 18495 18453 18454 18455 ] final -161.83 input  105.49 | X-H torsion
[ 18295 18273 18274 18275 ] final  173.64 input   34.55 | X-H torsion
[ 18327 18313 18314 18315 ] final -160.17 input   52.32 | X-H torsion
[ 18409 18361 18362 18363 ] final -168.66 input   29.77 | X-H torsion
[ 7524 7513 7514 7515 ] final  155.76 input   82.77 | X-H torsion
[ 7477 7455 7456 7457 ] final  -33.12 input   99.19 | X-H torsion
[ 18603 18589 18590 18591 ] final  171.54 input  124.64 | X-H torsion
[ 10105 10094 10093 10090 ] final  -61.13 input   59.99 | X-H torsion
[ 18299 18278 18277 18274 ] final   69.69 input   60.00 | X-H torsion
[ 11477 11459 11460 11461 ] final -144.67 input   48.11 | X-H torsion
[ 18657 18629 18627 18624 ] final  156.66 input   60.03 | X-H torsion
[ 11425 11414 11413 11410 ] final  131.67 input   60.02 | X-H torsion
[ 18875 18843 18844 18845 ] final  121.80 input   86.72 | X-H torsion
[ 17303 17281 17282 17283 ] final   18.07 input   51.85 | X-H torsion
[ 22447 22415 22416 22417 ] final   35.04 input   56.20 | X-H torsion
[ 18243 18203 18204 18205 ] final   89.68 input   41.90 | X-H torsion
[ 11805 11781 11782 11783 ] final   99.90 input   87.31 | X-H torsion
[ 16987 16945 16946 16947 ] final  -11.32 input   84.34 | X-H torsion
[ 27198 18532 18531 18530 ] final  -82.88 input   -0.00 | X-H torsion
[ 27200 18626 18625 18624 ] final  177.09 input    0.00 | X-H torsion
[ 27203 18686 18685 18684 ] final  154.59 input   -0.00 | X-H torsion
[ 27223 17126 17125 17124 ] final -175.88 input    0.00 | X-H torsion
[ 27227 11604 11603 11602 ] final  154.57 input    0.00 | X-H torsion
[ 27231 17052 17051 17050 ] final  -19.78 input   -0.00 | X-H torsion
[ 27233 18744 18743 18742 ] final  147.50 input   -0.00 | X-H torsion
[ 27235 18592 18591 18590 ] final  151.77 input   -0.00 | X-H torsion
[ 27238 18918 18917 18916 ] final -108.32 input    0.00 | X-H torsion
[ 27240 19008 19007 19006 ] final  -99.90 input    0.00 | X-H torsion
[ 27243 17178 17177 17176 ] final  130.65 input    0.00 | X-H torsion
[ 27245 18364 18363 18362 ] final   96.85 input    0.00 | X-H torsion
[ 27248 11412 11411 11410 ] final  -74.12 input   -0.00 | X-H torsion
[ 27250 18206 18205 18204 ] final  -24.16 input   -0.00 | X-H torsion
[ 27254 17222 17221 17220 ] final  113.72 input   -0.00 | X-H torsion
[ 27259 18316 18315 18314 ] final  139.00 input   -0.00 | X-H torsion
[ 27261 18456 18455 18454 ] final  -88.62 input    0.00 | X-H torsion
[ 27264 18276 18275 18274 ] final   32.27 input    0.00 | X-H torsion
[ 27267 17016 17015 17014 ] final   70.17 input    0.00 | X-H torsion
[ 27275 16948 16947 16946 ] final  147.42 input   -0.00 | X-H torsion

> <Gold.Protein.ActiveResidues>
 TRP414  CYS420  VAL421  GLY422  LEU460  SER462  SER482  GLN483  ILE485  ARG486 
 TYR487  ASP500  ASN503  TRP566  TYR567  GLY568  LEU569  PRO570  ALA571  VAL572 
 SER573  ASN574  PHE589  SER590  GLY591  TRP592  TYR593  MET594  GLY595  THR596 
 GLU597  ILE598  GLY599  VAL600  ARG601  ASP602  TYR603  ARG608  ILE653  VAL654 
 TRP683  PRO687  HEM750  H4B760 

> <Gold.Protein.RotatedAtoms>
  232.0619   34.2994   20.3169 H   0  0  0  0  0  0  0  0  0  0  0  0  # atno 7477 bound_to 7455
  233.4424   34.9759   18.6810 H   0  0  0  0  0  0  0  0  0  0  0  0  # atno 7524 bound_to 7513
  229.6352   40.6004   12.0991 H   0  0  0  0  0  0  0  0  0  0  0  0  # atno 10105 bound_to 10094
  221.7872   24.5262    9.9010 H   0  0  0  0  0  0  0  0  0  0  0  0  # atno 11425 bound_to 11414
  220.8351   27.8112    9.4591 H   0  0  0  0  0  0  0  0  0  0  0  0  # atno 11477 bound_to 11459
  225.6607   23.9287    2.8576 H   0  0  0  0  0  0  0  0  0  0  0  0  # atno 11805 bound_to 11781
  232.1574   28.5081    2.0705 H   0  0  0  0  0  0  0  0  0  0  0  0  # atno 16987 bound_to 16945
  226.6769   26.5179    5.8470 H   0  0  0  0  0  0  0  0  0  0  0  0  # atno 16995 bound_to 16956
  226.5121   33.0088    8.0342 H   0  0  0  0  0  0  0  0  0  0  0  0  # atno 17195 bound_to 17175
  223.9416   31.8834    9.7789 H   0  0  0  0  0  0  0  0  0  0  0  0  # atno 17251 bound_to 17219
  220.4539   30.2875   11.5443 H   0  0  0  0  0  0  0  0  0  0  0  0  # atno 17303 bound_to 17281
  221.1086   35.5036   12.0913 H   0  0  0  0  0  0  0  0  0  0  0  0  # atno 18243 bound_to 18203
  223.7625   37.0642   10.5996 H   0  0  0  0  0  0  0  0  0  0  0  0  # atno 18295 bound_to 18273
  226.3021   38.8722    8.3880 H   0  0  0  0  0  0  0  0  0  0  0  0  # atno 18299 bound_to 18278
  227.3945   37.5996   11.2247 H   0  0  0  0  0  0  0  0  0  0  0  0  # atno 18327 bound_to 18313
  230.9129   37.5763    9.9756 H   0  0  0  0  0  0  0  0  0  0  0  0  # atno 18409 bound_to 18361
  232.6463   34.1628    9.0057 H   0  0  0  0  0  0  0  0  0  0  0  0  # atno 18495 bound_to 18453
  229.3734   28.4959    8.1165 H   0  0  0  0  0  0  0  0  0  0  0  0  # atno 18503 bound_to 18464
  234.8064   31.3665   11.4908 H   0  0  0  0  0  0  0  0  0  0  0  0  # atno 18563 bound_to 18529
  238.6769   31.2607   10.7142 H   0  0  0  0  0  0  0  0  0  0  0  0  # atno 18603 bound_to 18589
  238.0644   26.8861   15.5443 H   0  0  0  0  0  0  0  0  0  0  0  0  # atno 18657 bound_to 18629
  236.3571   27.6008   11.6829 H   0  0  0  0  0  0  0  0  0  0  0  0  # atno 18713 bound_to 18683
  234.4760   26.5456    9.8373 H   0  0  0  0  0  0  0  0  0  0  0  0  # atno 18779 bound_to 18741
  237.6044   25.3440    8.1719 H   0  0  0  0  0  0  0  0  0  0  0  0  # atno 18823 bound_to 18809
  238.4089   23.4681   10.8708 H   0  0  0  0  0  0  0  0  0  0  0  0  # atno 18875 bound_to 18843
  236.0008   21.6958   10.8782 H   0  0  0  0  0  0  0  0  0  0  0  0  # atno 18963 bound_to 18915
  234.4434   21.5431    9.9030 H   0  0  0  0  0  0  0  0  0  0  0  0  # atno 19029 bound_to 19005
  234.2610   20.0679    8.5550 H   0  0  0  0  0  0  0  0  0  0  0  0  # atno 19103 bound_to 19061
  238.4367   34.2450   10.1042 H   0  0  0  0  0  0  0  0  0  0  0  0  # atno 22447 bound_to 22415
  227.1803   27.7963    6.7185 LP  0  0  0  0  0  0  0  0  0  0  0  0  # atno 27193 bound_to 16956
  228.1974   26.5529    6.4251 LP  0  0  0  0  0  0  0  0  0  0  0  0  # atno 27194 bound_to 16956
  230.3210   27.6587    7.0927 LP  0  0  0  0  0  0  0  0  0  0  0  0  # atno 27195 bound_to 18464
  229.4920   28.9617    6.5621 LP  0  0  0  0  0  0  0  0  0  0  0  0  # atno 27196 bound_to 18464
  235.3382   33.0338   11.4380 LP  0  0  0  0  0  0  0  0  0  0  0  0  # atno 27197 bound_to 18529
  236.2249   28.8146   11.9921 LP  0  0  0  0  0  0  0  0  0  0  0  0  # atno 27198 bound_to 18532
  235.8163   29.4312   10.4260 LP  0  0  0  0  0  0  0  0  0  0  0  0  # atno 27199 bound_to 18532
  235.7455   24.2746   12.1074 LP  0  0  0  0  0  0  0  0  0  0  0  0  # atno 27200 bound_to 18626
  237.4347   23.9063   12.2124 LP  0  0  0  0  0  0  0  0  0  0  0  0  # atno 27201 bound_to 18626
  236.6426   26.1381   12.5871 LP  0  0  0  0  0  0  0  0  0  0  0  0  # atno 27202 bound_to 18683
  233.4531   24.1592    9.7252 LP  0  0  0  0  0  0  0  0  0  0  0  0  # atno 27203 bound_to 18686
  233.6325   23.9870   11.4393 LP  0  0  0  0  0  0  0  0  0  0  0  0  # atno 27204 bound_to 18686
  236.0189   25.8194   10.2184 LP  0  0  0  0  0  0  0  0  0  0  0  0  # atno 27209 bound_to 18741
  236.1997   21.9317   12.5937 LP  0  0  0  0  0  0  0  0  0  0  0  0  # atno 27210 bound_to 18915
  232.9405   21.8027   10.7530 LP  0  0  0  0  0  0  0  0  0  0  0  0  # atno 27211 bound_to 19005
  226.1726   34.4744    9.6048 LP  0  0  0  0  0  0  0  0  0  0  0  0  # atno 27223 bound_to 17126
  227.8825   34.4206    9.3343 LP  0  0  0  0  0  0  0  0  0  0  0  0  # atno 27224 bound_to 17126
  225.5528   31.5546    8.0257 LP  0  0  0  0  0  0  0  0  0  0  0  0  # atno 27225 bound_to 17175
  223.8548   33.2297   10.8964 LP  0  0  0  0  0  0  0  0  0  0  0  0  # atno 27226 bound_to 17219
  225.0479   27.6748    5.1445 LP  0  0  0  0  0  0  0  0  0  0  0  0  # atno 27227 bound_to 11604
  225.5252   29.2691    4.6643 LP  0  0  0  0  0  0  0  0  0  0  0  0  # atno 27228 bound_to 11604
  226.7554   32.6848    4.4829 LP  0  0  0  0  0  0  0  0  0  0  0  0  # atno 27231 bound_to 17052
  227.0525   31.6209    5.8170 LP  0  0  0  0  0  0  0  0  0  0  0  0  # atno 27232 bound_to 17052
  236.5141   22.3262    7.5260 LP  0  0  0  0  0  0  0  0  0  0  0  0  # atno 27233 bound_to 18744
  234.9602   22.6324    8.2271 LP  0  0  0  0  0  0  0  0  0  0  0  0  # atno 27234 bound_to 18744
  238.4853   25.9726    9.9486 LP  0  0  0  0  0  0  0  0  0  0  0  0  # atno 27235 bound_to 18592
  237.8226   27.1242    8.8375 LP  0  0  0  0  0  0  0  0  0  0  0  0  # atno 27236 bound_to 18592
  236.6851   24.1522    9.0587 LP  0  0  0  0  0  0  0  0  0  0  0  0  # atno 27237 bound_to 18809
  233.8641   18.8988    9.8314 LP  0  0  0  0  0  0  0  0  0  0  0  0  # atno 27238 bound_to 18918
  232.5951   18.9768   11.0078 LP  0  0  0  0  0  0  0  0  0  0  0  0  # atno 27239 bound_to 18918
  232.6480   18.4952    7.6356 LP  0  0  0  0  0  0  0  0  0  0  0  0  # atno 27240 bound_to 19008
  232.2032   19.6155    6.3918 LP  0  0  0  0  0  0  0  0  0  0  0  0  # atno 27241 bound_to 19008
  234.5887   21.3493    7.4139 LP  0  0  0  0  0  0  0  0  0  0  0  0  # atno 27242 bound_to 19061
  222.2737   30.9570    8.8492 LP  0  0  0  0  0  0  0  0  0  0  0  0  # atno 27243 bound_to 17178
  221.9153   32.4763    8.0987 LP  0  0  0  0  0  0  0  0  0  0  0  0  # atno 27244 bound_to 17178
  232.1543   34.3475   11.6593 LP  0  0  0  0  0  0  0  0  0  0  0  0  # atno 27245 bound_to 18364
  233.5445   35.3506   11.9064 LP  0  0  0  0  0  0  0  0  0  0  0  0  # atno 27246 bound_to 18364
  234.2198   34.8943    9.2132 LP  0  0  0  0  0  0  0  0  0  0  0  0  # atno 27247 bound_to 18453
  220.1437   29.1427   10.9701 LP  0  0  0  0  0  0  0  0  0  0  0  0  # atno 27248 bound_to 11412
  221.6578   28.3129   11.1076 LP  0  0  0  0  0  0  0  0  0  0  0  0  # atno 27249 bound_to 11412
  223.3492   34.7760   11.7213 LP  0  0  0  0  0  0  0  0  0  0  0  0  # atno 27250 bound_to 18206
  224.4926   35.0253   10.4443 LP  0  0  0  0  0  0  0  0  0  0  0  0  # atno 27251 bound_to 18206
  220.7041   33.8164   10.8294 LP  0  0  0  0  0  0  0  0  0  0  0  0  # atno 27254 bound_to 17222
  221.1695   33.6447   12.4889 LP  0  0  0  0  0  0  0  0  0  0  0  0  # atno 27255 bound_to 17222
  224.6531   38.2317   11.5411 LP  0  0  0  0  0  0  0  0  0  0  0  0  # atno 27256 bound_to 18273
  228.2273   36.3915   10.2730 LP  0  0  0  0  0  0  0  0  0  0  0  0  # atno 27257 bound_to 18313
  231.4921   36.5425   11.2640 LP  0  0  0  0  0  0  0  0  0  0  0  0  # atno 27258 bound_to 18361
  230.9766   38.0597    8.1033 LP  0  0  0  0  0  0  0  0  0  0  0  0  # atno 27259 bound_to 18316
  229.3039   37.6855    8.3524 LP  0  0  0  0  0  0  0  0  0  0  0  0  # atno 27260 bound_to 18316
  236.9995   33.5116    9.7105 LP  0  0  0  0  0  0  0  0  0  0  0  0  # atno 27261 bound_to 18456
  236.2852   34.6799   10.7711 LP  0  0  0  0  0  0  0  0  0  0  0  0  # atno 27262 bound_to 18456
  233.3321   35.9969   20.0957 LP  0  0  0  0  0  0  0  0  0  0  0  0  # atno 27263 bound_to 7513
  226.0672   39.4077   11.3249 LP  0  0  0  0  0  0  0  0  0  0  0  0  # atno 27264 bound_to 18276
  227.6754   39.7016   10.7530 LP  0  0  0  0  0  0  0  0  0  0  0  0  # atno 27265 bound_to 18276
  232.6455   32.6520   20.3375 LP  0  0  0  0  0  0  0  0  0  0  0  0  # atno 27266 bound_to 7455
  232.0813   34.9048    4.8768 LP  0  0  0  0  0  0  0  0  0  0  0  0  # atno 27267 bound_to 17016
  231.5942   33.4716    5.7188 LP  0  0  0  0  0  0  0  0  0  0  0  0  # atno 27268 bound_to 17016
  237.8991   30.1010   11.7623 LP  0  0  0  0  0  0  0  0  0  0  0  0  # atno 27269 bound_to 18589
  229.9880   41.6625   13.2796 LP  0  0  0  0  0  0  0  0  0  0  0  0  # atno 27270 bound_to 10094
  230.3702   42.0036   11.7290 LP  0  0  0  0  0  0  0  0  0  0  0  0  # atno 27271 bound_to 10094
  224.7278   38.6892    8.7585 LP  0  0  0  0  0  0  0  0  0  0  0  0  # atno 27272 bound_to 18278
  225.2842   38.2259    7.2948 LP  0  0  0  0  0  0  0  0  0  0  0  0  # atno 27273 bound_to 18278
  220.7138   27.2165    7.8110 LP  0  0  0  0  0  0  0  0  0  0  0  0  # atno 27274 bound_to 11459
  232.5163   30.9497    3.7480 LP  0  0  0  0  0  0  0  0  0  0  0  0  # atno 27275 bound_to 16948
  231.3001   29.7173    3.7936 LP  0  0  0  0  0  0  0  0  0  0  0  0  # atno 27276 bound_to 16948

> <Gold.Score>
     Fitness  S(hb_ext) S(vdw_ext)  S(hb_int)    S(int)      intcor
     33.65       7.10      19.78       0.00      -0.66      -0.79

> <Gold.Goldscore.Fitness>
33.6457

> <Gold.Goldscore.Internal.Vdw>
-1.0321

> <Gold.Goldscore.Internal.Torsion>
-0.4152

> <Gold.Goldscore.External.Vdw>
19.7838

> <Gold.Goldscore.Internal.HBond>
0.0000

> <Gold.Goldscore.External.HBond>
7.0991

> <Gold.Goldscore.Internal.Correction>
-0.7912

> <Gold.Goldscore.Hbonds>
donor molecule, donor type, donor heavy atom, donor atom, acceptor molecule, acceptor atom, score
      P1  H 11466 11484       L1    11  0.16
      P1  H 17335 17361       L1    17  0.57
      L1  H     8    22       P1 26869  0.77
      L1  H    10    23       P1 11412  0.51

> <Gold.Goldscore.Internal.Vdw.Weighted>
-1.0321

> <Gold.Goldscore.Internal.Torsion.Weighted>
-0.4152

> <Gold.Goldscore.External.Vdw.Weighted>
27.2027

> <Gold.Goldscore.Internal.HBond.Weighted>
0.0000

> <Gold.Goldscore.External.HBond.Weighted>
7.0991

> <Gold.Goldscore.Internal.Correction.Weighted>
-0.7912

> <Gold.Rescore>
     Score     S(PLP)   S(hbond)     S(cho)   S(metal)  DE(clash)   DE(tors)     intcor
     15.49      -9.80       2.07       0.00       0.00       0.00       0.26       ----

> <Gold.PLP.Fitness>
15.4893

> <Gold.PLP.PLP>
-9.8003

> <Gold.PLP.part.hbond>
-1.9039

> <Gold.PLP.part.metal>
0.0000

> <Gold.PLP.part.buried>
5.4549

> <Gold.PLP.part.nonpolar>
-15.6214

> <Gold.PLP.part.repulsive>
0.4495

> <Gold.PLP.ligand.clash>
0.0000

> <Gold.PLP.ligand.torsion>
0.2643

> <Gold.PLP.Chemscore.Hbond>
2.0725

> <Gold.PLP.Chemscore.CHOScore>
0.0000

> <Gold.PLP.Chemscore.Metal>
0.0000

> <Gold.Chemscore.Hbonds>
donor molecule, donor type, donor heavy atom, donor atom, acceptor molecule, acceptor atom, score
      L1  H     8    22       P1 26869  1.00
      P1  H 11466 11484       L1    11  1.00
      P1  H 17335 17361       L1    17  1.00

> <Gold.PLP.Chemscore.Internal.Correction>
   9.000000E+99

#       Name:                CT1002167954
#       Creating user name   hitesit
#       Creation time:       Sun Apr 16 22:59:44 2023


#       File generated by GOLD software.
#

@<TRIPOS>MOLECULE
CT1002167954|ligand_prepared|mol2|1|dock6
    29    30     1
SMALL
NO_CHARGES


@<TRIPOS>ATOM
      1 C1         228.6511  26.1829  11.9096 C.3            1 RES1               0.0000
      2 C2         229.5693  25.5624  12.9822 C.ar           1 RES1               0.0000
      3 C3         229.3079  25.8923  10.5632 C.2            1 RES1               0.0000
      4 C4         227.2846  25.5309  12.0888 C.2            1 RES1               0.0000
      5 C5         228.4726  27.7127  12.0490 C.3            1 RES1               0.0000
      6 C6         230.7792  26.1648  13.3139 C.ar           1 RES1               0.0000
      7 C7         229.2195  24.3914  13.6493 C.ar           1 RES1               0.0000
      8 N8         228.7384  24.9355   9.7759 N.am           1 RES1               0.0000
      9 O9         230.3325  26.4660  10.2151 O.2            1 RES1               0.0000
     10 N10        226.8177  24.7305  11.0793 N.am           1 RES1               0.0000
     11 O11        226.6152  25.6898  13.1022 O.2            1 RES1               0.0000
     12 C12        228.4732  28.2013  13.4889 C.3            1 RES1               0.0000
     13 C13        231.6079  25.6181  14.2797 C.ar           1 RES1               0.0000
     14 C14        230.0498  23.8462  14.6146 C.ar           1 RES1               0.0000
     15 C15        227.4961  24.3786   9.9443 C.2            1 RES1               0.0000
     16 C16        231.2437  24.4589  14.9309 C.ar           1 RES1               0.0000
     17 O17        227.0310  23.6098   9.1078 O.2            1 RES1               0.0000
     18 H18        229.2833  28.2138  11.5057 H              1 RES1               0.0000
     19 H19        227.5248  28.0019  11.5785 H              1 RES1               0.0000
     20 H20        231.0837  27.0762  12.8103 H              1 RES1               0.0000
     21 H21        228.2855  23.8916  13.4160 H              1 RES1               0.0000
     22 H22        229.2869  24.6032   8.9891 H              1 RES1               0.0000
     23 H23        225.8773  24.3630  11.1835 H              1 RES1               0.0000
     24 H24        228.3448  29.2809  13.5299 H              1 RES1               0.0000
     25 H25        227.6637  27.7422  14.0524 H              1 RES1               0.0000
     26 H26        229.4117  27.9527  13.9802 H              1 RES1               0.0000
     27 H27        232.5471  26.1034  14.5240 H              1 RES1               0.0000
     28 H28        229.7594  22.9334  15.1241 H              1 RES1               0.0000
     29 H29        231.8929  24.0310  15.6877 H              1 RES1               0.0000
@<TRIPOS>BOND
    1    1    2 1     
    2    1    3 1     
    3    1    4 1     
    4    1    5 1     
    5    2    6 ar    
    6    2    7 ar    
    7    3    8 1     
    8    3    9 2     
    9    4   10 1     
   10    4   11 2     
   11    5   12 1     
   12    5   18 1     
   13    5   19 1     
   14    6   13 ar    
   15    6   20 1     
   16    7   14 ar    
   17    7   21 1     
   18    8   15 1     
   19    8   22 1     
   20   10   15 1     
   21   10   23 1     
   22   12   24 1     
   23   12   25 1     
   24   12   26 1     
   25   13   16 ar    
   26   13   27 1     
   27   14   16 ar    
   28   14   28 1     
   29   15   17 2     
   30   16   29 1     
@<TRIPOS>SUBSTRUCTURE
      1 RES1           1
@<TRIPOS>SET
DONOR_HYDROGENS      STATIC     ATOMS    <user>   **** ""
2 22 23
ATOM$RED        STATIC     ATOMS    COLORGROUP SYSTEM
2 22 23
@<TRIPOS>COMMENT
> <Gold.Version>
2022.3.0

> <Gold.Id.Protein>
unknown|4d1n_clean|pdb

> <Gold.Protein.RotatedTorsions>
[ 16995 16956 16955 16953 ] final  -67.39 input   60.02 | X-H torsion
[ 18503 18464 18463 18461 ] final  -70.54 input   59.99 | X-H torsion
[ 18563 18529 18530 18531 ] final   96.58 input   85.91 | X-H torsion
[ 18713 18683 18684 18685 ] final  144.12 input  120.10 | X-H torsion
[ 18779 18741 18742 18743 ] final -165.44 input   94.66 | X-H torsion
[ 18963 18915 18916 18917 ] final  115.80 input   99.61 | X-H torsion
[ 19029 19005 19006 19007 ] final -125.15 input  120.28 | X-H torsion
[ 17195 17175 17176 17177 ] final  -17.79 input   50.47 | X-H torsion
[ 17251 17219 17220 17221 ] final   41.88 input  121.85 | X-H torsion
[ 18823 18809 18810 18811 ] final -154.34 input  109.66 | X-H torsion
[ 19103 19061 19062 19063 ] final   31.77 input   93.64 | X-H torsion
[ 18495 18453 18454 18455 ] final  -27.63 input  105.49 | X-H torsion
[ 18295 18273 18274 18275 ] final -149.56 input   34.55 | X-H torsion
[ 18327 18313 18314 18315 ] final -151.48 input   52.32 | X-H torsion
[ 18409 18361 18362 18363 ] final  150.75 input   29.77 | X-H torsion
[ 7524 7513 7514 7515 ] final  109.62 input   82.77 | X-H torsion
[ 7477 7455 7456 7457 ] final -104.75 input   99.19 | X-H torsion
[ 18603 18589 18590 18591 ] final  163.66 input  124.64 | X-H torsion
[ 10105 10094 10093 10090 ] final   26.05 input   59.99 | X-H torsion
[ 18299 18278 18277 18274 ] final    5.46 input   60.00 | X-H torsion
[ 11477 11459 11460 11461 ] final   29.73 input   48.11 | X-H torsion
[ 18657 18629 18627 18624 ] final   -3.27 input   60.03 | X-H torsion
[ 11425 11414 11413 11410 ] final  -79.79 input   60.02 | X-H torsion
[ 18875 18843 18844 18845 ] final -163.88 input   86.72 | X-H torsion
[ 17303 17281 17282 17283 ] final -133.73 input   51.85 | X-H torsion
[ 22447 22415 22416 22417 ] final   11.09 input   56.20 | X-H torsion
[ 18243 18203 18204 18205 ] final -100.28 input   41.90 | X-H torsion
[ 11805 11781 11782 11783 ] final -150.99 input   87.31 | X-H torsion
[ 16987 16945 16946 16947 ] final  108.86 input   84.34 | X-H torsion
[ 27198 18532 18531 18530 ] final   87.97 input   -0.00 | X-H torsion
[ 27200 18626 18625 18624 ] final   12.88 input    0.00 | X-H torsion
[ 27203 18686 18685 18684 ] final   63.43 input   -0.00 | X-H torsion
[ 27223 17126 17125 17124 ] final   22.40 input    0.00 | X-H torsion
[ 27227 11604 11603 11602 ] final  -93.37 input    0.00 | X-H torsion
[ 27231 17052 17051 17050 ] final -139.21 input   -0.00 | X-H torsion
[ 27233 18744 18743 18742 ] final   18.51 input   -0.00 | X-H torsion
[ 27235 18592 18591 18590 ] final  -43.68 input   -0.00 | X-H torsion
[ 27238 18918 18917 18916 ] final   70.27 input    0.00 | X-H torsion
[ 27240 19008 19007 19006 ] final  172.43 input    0.00 | X-H torsion
[ 27243 17178 17177 17176 ] final -142.29 input    0.00 | X-H torsion
[ 27245 18364 18363 18362 ] final  -71.50 input    0.00 | X-H torsion
[ 27248 11412 11411 11410 ] final  -92.57 input   -0.00 | X-H torsion
[ 27250 18206 18205 18204 ] final  128.13 input   -0.00 | X-H torsion
[ 27254 17222 17221 17220 ] final   67.61 input   -0.00 | X-H torsion
[ 27259 18316 18315 18314 ] final   12.64 input   -0.00 | X-H torsion
[ 27261 18456 18455 18454 ] final   64.40 input    0.00 | X-H torsion
[ 27264 18276 18275 18274 ] final  -71.90 input    0.00 | X-H torsion
[ 27267 17016 17015 17014 ] final  100.85 input    0.00 | X-H torsion
[ 27275 16948 16947 16946 ] final   -2.05 input   -0.00 | X-H torsion

> <Gold.Protein.ActiveResidues>
 TRP414  CYS420  VAL421  GLY422  LEU460  SER462  SER482  GLN483  ILE485  ARG486 
 TYR487  ASP500  ASN503  TRP566  TYR567  GLY568  LEU569  PRO570  ALA571  VAL572 
 SER573  ASN574  PHE589  SER590  GLY591  TRP592  TYR593  MET594  GLY595  THR596 
 GLU597  ILE598  GLY599  VAL600  ARG601  ASP602  TYR603  ARG608  ILE653  VAL654 
 TRP683  PRO687  HEM750  H4B760 

> <Gold.Protein.RotatedAtoms>
  232.1483   33.6979   21.1548 H   0  0  0  0  0  0  0  0  0  0  0  0  # atno 7477 bound_to 7455
  232.7925   35.1718   18.8249 H   0  0  0  0  0  0  0  0  0  0  0  0  # atno 7524 bound_to 7513
  230.1964   41.5756   11.4678 H   0  0  0  0  0  0  0  0  0  0  0  0  # atno 10105 bound_to 10094
  220.4775   24.3197    8.6798 H   0  0  0  0  0  0  0  0  0  0  0  0  # atno 11425 bound_to 11414
  220.6615   27.2877    7.7464 H   0  0  0  0  0  0  0  0  0  0  0  0  # atno 11477 bound_to 11459
  225.1206   24.9044    1.9177 H   0  0  0  0  0  0  0  0  0  0  0  0  # atno 11805 bound_to 11781
  230.8003   27.8209    1.8945 H   0  0  0  0  0  0  0  0  0  0  0  0  # atno 16987 bound_to 16945
  228.1771   27.1360    6.7273 H   0  0  0  0  0  0  0  0  0  0  0  0  # atno 16995 bound_to 16956
  225.8365   31.6389    8.5888 H   0  0  0  0  0  0  0  0  0  0  0  0  # atno 17195 bound_to 17175
  223.4828   33.3076   10.6304 H   0  0  0  0  0  0  0  0  0  0  0  0  # atno 17251 bound_to 17219
  221.0547   31.8564   11.2307 H   0  0  0  0  0  0  0  0  0  0  0  0  # atno 17303 bound_to 17281
  220.7226   36.4915   10.6849 H   0  0  0  0  0  0  0  0  0  0  0  0  # atno 18243 bound_to 18203
  223.8946   36.8330   11.0852 H   0  0  0  0  0  0  0  0  0  0  0  0  # atno 18295 bound_to 18273
  225.5275   38.9548    9.0084 H   0  0  0  0  0  0  0  0  0  0  0  0  # atno 18299 bound_to 18278
  227.3745   37.6631   11.1079 H   0  0  0  0  0  0  0  0  0  0  0  0  # atno 18327 bound_to 18313
  231.3812   37.8467   10.2728 H   0  0  0  0  0  0  0  0  0  0  0  0  # atno 18409 bound_to 18361
  233.8327   34.9797    9.7660 H   0  0  0  0  0  0  0  0  0  0  0  0  # atno 18495 bound_to 18453
  230.3069   27.6398    7.1965 H   0  0  0  0  0  0  0  0  0  0  0  0  # atno 18503 bound_to 18464
  234.6741   31.8006   12.1416 H   0  0  0  0  0  0  0  0  0  0  0  0  # atno 18563 bound_to 18529
  238.7771   31.2390   10.7786 H   0  0  0  0  0  0  0  0  0  0  0  0  # atno 18603 bound_to 18589
  237.5586   27.7196   13.9787 H   0  0  0  0  0  0  0  0  0  0  0  0  # atno 18657 bound_to 18629
  236.2430   27.6365   12.4638 H   0  0  0  0  0  0  0  0  0  0  0  0  # atno 18713 bound_to 18683
  234.4905   26.5685    9.8245 H   0  0  0  0  0  0  0  0  0  0  0  0  # atno 18779 bound_to 18741
  237.1837   24.9554    7.7645 H   0  0  0  0  0  0  0  0  0  0  0  0  # atno 18823 bound_to 18809
  239.0782   22.8679   10.2914 H   0  0  0  0  0  0  0  0  0  0  0  0  # atno 18875 bound_to 18843
  235.8230   22.5722   12.0764 H   0  0  0  0  0  0  0  0  0  0  0  0  # atno 18963 bound_to 18915
  232.9644   21.4966   10.8052 H   0  0  0  0  0  0  0  0  0  0  0  0  # atno 19029 bound_to 19005
  234.8637   20.4333    8.6914 H   0  0  0  0  0  0  0  0  0  0  0  0  # atno 19103 bound_to 19061
  238.7110   34.1268    9.8909 H   0  0  0  0  0  0  0  0  0  0  0  0  # atno 22447 bound_to 22415
  227.2220   26.1510    5.8528 LP  0  0  0  0  0  0  0  0  0  0  0  0  # atno 27193 bound_to 16956
  226.6443   27.5755    6.4040 LP  0  0  0  0  0  0  0  0  0  0  0  0  # atno 27194 bound_to 16956
  229.5556   28.9034    6.4995 LP  0  0  0  0  0  0  0  0  0  0  0  0  # atno 27195 bound_to 18464
  229.3171   28.5794    8.0821 LP  0  0  0  0  0  0  0  0  0  0  0  0  # atno 27196 bound_to 18464
  235.4661   32.6140   10.8086 LP  0  0  0  0  0  0  0  0  0  0  0  0  # atno 27197 bound_to 18529
  235.7215   29.5066   10.4926 LP  0  0  0  0  0  0  0  0  0  0  0  0  # atno 27198 bound_to 18532
  236.3197   28.7392   11.9255 LP  0  0  0  0  0  0  0  0  0  0  0  0  # atno 27199 bound_to 18532
  237.3879   23.9116   12.4455 LP  0  0  0  0  0  0  0  0  0  0  0  0  # atno 27200 bound_to 18626
  235.7923   24.2692   11.8743 LP  0  0  0  0  0  0  0  0  0  0  0  0  # atno 27201 bound_to 18626
  236.7557   26.1027   11.8130 LP  0  0  0  0  0  0  0  0  0  0  0  0  # atno 27202 bound_to 18683
  232.8367   24.5546   10.7223 LP  0  0  0  0  0  0  0  0  0  0  0  0  # atno 27203 bound_to 18686
  234.2488   23.5916   10.4422 LP  0  0  0  0  0  0  0  0  0  0  0  0  # atno 27204 bound_to 18686
  236.0047   25.7969   10.2309 LP  0  0  0  0  0  0  0  0  0  0  0  0  # atno 27209 bound_to 18741
  236.3761   21.0619   11.4046 LP  0  0  0  0  0  0  0  0  0  0  0  0  # atno 27210 bound_to 18915
  234.3939   21.8484    9.8663 LP  0  0  0  0  0  0  0  0  0  0  0  0  # atno 27211 bound_to 19005
  227.8095   34.5784    9.1210 LP  0  0  0  0  0  0  0  0  0  0  0  0  # atno 27223 bound_to 17126
  226.2456   34.3166    9.8181 LP  0  0  0  0  0  0  0  0  0  0  0  0  # atno 27224 bound_to 17126
  226.2258   32.9191    7.4733 LP  0  0  0  0  0  0  0  0  0  0  0  0  # atno 27225 bound_to 17175
  224.2965   31.8585   10.0766 LP  0  0  0  0  0  0  0  0  0  0  0  0  # atno 27226 bound_to 17219
  225.9496   28.4590    4.3475 LP  0  0  0  0  0  0  0  0  0  0  0  0  # atno 27227 bound_to 11604
  224.6235   28.4848    5.4613 LP  0  0  0  0  0  0  0  0  0  0  0  0  # atno 27228 bound_to 11604
  226.4952   32.2882    5.9013 LP  0  0  0  0  0  0  0  0  0  0  0  0  # atno 27231 bound_to 17052
  227.3127   32.0175    4.3986 LP  0  0  0  0  0  0  0  0  0  0  0  0  # atno 27232 bound_to 17052
  235.0238   22.7976    7.5027 LP  0  0  0  0  0  0  0  0  0  0  0  0  # atno 27233 bound_to 18744
  236.4506   22.1610    8.2504 LP  0  0  0  0  0  0  0  0  0  0  0  0  # atno 27234 bound_to 18744
  237.6264   27.0757    8.9530 LP  0  0  0  0  0  0  0  0  0  0  0  0  # atno 27235 bound_to 18592
  238.6815   26.0211    9.8331 LP  0  0  0  0  0  0  0  0  0  0  0  0  # atno 27236 bound_to 18592
  237.0969   24.5325    9.4573 LP  0  0  0  0  0  0  0  0  0  0  0  0  # atno 27237 bound_to 18809
  232.6089   18.9702   11.0227 LP  0  0  0  0  0  0  0  0  0  0  0  0  # atno 27238 bound_to 18918
  233.8503   18.9054    9.8165 LP  0  0  0  0  0  0  0  0  0  0  0  0  # atno 27239 bound_to 18918
  233.1301   18.7992    6.5800 LP  0  0  0  0  0  0  0  0  0  0  0  0  # atno 27240 bound_to 19008
  231.7211   19.3115    7.4474 LP  0  0  0  0  0  0  0  0  0  0  0  0  # atno 27241 bound_to 19008
  233.9986   20.9917    7.2803 LP  0  0  0  0  0  0  0  0  0  0  0  0  # atno 27242 bound_to 19061
  221.5719   31.8749    9.1462 LP  0  0  0  0  0  0  0  0  0  0  0  0  # atno 27243 bound_to 17178
  222.6170   31.5585    7.8017 LP  0  0  0  0  0  0  0  0  0  0  0  0  # atno 27244 bound_to 17178
  233.4274   35.4819   11.9069 LP  0  0  0  0  0  0  0  0  0  0  0  0  # atno 27245 bound_to 18364
  232.2713   34.2162   11.6587 LP  0  0  0  0  0  0  0  0  0  0  0  0  # atno 27246 bound_to 18364
  233.0609   34.0963    8.4706 LP  0  0  0  0  0  0  0  0  0  0  0  0  # atno 27247 bound_to 18453
  220.2984   29.3049   10.8062 LP  0  0  0  0  0  0  0  0  0  0  0  0  # atno 27248 bound_to 11412
  221.5032   28.1507   11.2715 LP  0  0  0  0  0  0  0  0  0  0  0  0  # atno 27249 bound_to 11412
  224.1290   34.9950   10.2475 LP  0  0  0  0  0  0  0  0  0  0  0  0  # atno 27250 bound_to 18206
  223.7129   34.8062   11.9182 LP  0  0  0  0  0  0  0  0  0  0  0  0  # atno 27251 bound_to 18206
  221.3645   33.9310   10.9332 LP  0  0  0  0  0  0  0  0  0  0  0  0  # atno 27254 bound_to 17222
  220.5092   33.5302   12.3850 LP  0  0  0  0  0  0  0  0  0  0  0  0  # atno 27255 bound_to 17222
  224.5226   38.4602   11.0613 LP  0  0  0  0  0  0  0  0  0  0  0  0  # atno 27256 bound_to 18273
  228.2467   36.3298   10.3865 LP  0  0  0  0  0  0  0  0  0  0  0  0  # atno 27257 bound_to 18313
  231.0389   36.2808   10.9763 LP  0  0  0  0  0  0  0  0  0  0  0  0  # atno 27258 bound_to 18361
  229.5193   38.4286    8.4627 LP  0  0  0  0  0  0  0  0  0  0  0  0  # atno 27259 bound_to 18316
  230.7613   37.3165    7.9930 LP  0  0  0  0  0  0  0  0  0  0  0  0  # atno 27260 bound_to 18316
  236.1012   34.7482   10.4180 LP  0  0  0  0  0  0  0  0  0  0  0  0  # atno 27261 bound_to 18456
  237.1836   33.4433   10.0637 LP  0  0  0  0  0  0  0  0  0  0  0  0  # atno 27262 bound_to 18456
  233.9654   35.8060   19.9554 LP  0  0  0  0  0  0  0  0  0  0  0  0  # atno 27263 bound_to 7513
  226.7718   39.6973   10.1906 LP  0  0  0  0  0  0  0  0  0  0  0  0  # atno 27264 bound_to 18276
  226.9708   39.4119   11.8873 LP  0  0  0  0  0  0  0  0  0  0  0  0  # atno 27265 bound_to 18276
  232.5613   33.2392   19.5196 LP  0  0  0  0  0  0  0  0  0  0  0  0  # atno 27266 bound_to 7455
  231.6689   35.0012    5.0517 LP  0  0  0  0  0  0  0  0  0  0  0  0  # atno 27267 bound_to 17016
  232.0065   33.3752    5.5439 LP  0  0  0  0  0  0  0  0  0  0  0  0  # atno 27268 bound_to 17016
  237.8006   30.1222   11.6991 LP  0  0  0  0  0  0  0  0  0  0  0  0  # atno 27269 bound_to 18589
  229.5729   40.6182   12.6258 LP  0  0  0  0  0  0  0  0  0  0  0  0  # atno 27270 bound_to 10094
  230.2197   42.0652   13.0189 LP  0  0  0  0  0  0  0  0  0  0  0  0  # atno 27271 bound_to 10094
  224.5983   38.2990    7.8441 LP  0  0  0  0  0  0  0  0  0  0  0  0  # atno 27272 bound_to 18278
  226.1935   38.5329    7.5846 LP  0  0  0  0  0  0  0  0  0  0  0  0  # atno 27273 bound_to 18278
  220.8786   27.7133    9.4365 LP  0  0  0  0  0  0  0  0  0  0  0  0  # atno 27274 bound_to 11459
  231.6600   29.5234    3.5915 LP  0  0  0  0  0  0  0  0  0  0  0  0  # atno 27275 bound_to 16948
  232.1564   31.1436    3.9501 LP  0  0  0  0  0  0  0  0  0  0  0  0  # atno 27276 bound_to 16948

> <Gold.Score>
     Fitness  S(hb_ext) S(vdw_ext)  S(hb_int)    S(int)      intcor
     27.26       3.58      21.10       0.00      -5.33      -0.77

> <Gold.Goldscore.Fitness>
27.2571

> <Gold.Goldscore.Internal.Vdw>
-4.8187

> <Gold.Goldscore.Internal.Torsion>
-1.2807

> <Gold.Goldscore.External.Vdw>
21.0958

> <Gold.Goldscore.Internal.HBond>
0.0000

> <Gold.Goldscore.External.HBond>
3.5805

> <Gold.Goldscore.Internal.Correction>
-0.7693

> <Gold.Goldscore.Hbonds>
donor molecule, donor type, donor heavy atom, donor atom, acceptor molecule, acceptor atom, score
      P1  H 11693 11717       L1    17  0.17
      P1  H 19345 19394       L1    17  0.09
      L1  H     8    22       P1 19012  0.33

> <Gold.Goldscore.Internal.Vdw.Weighted>
-4.8187

> <Gold.Goldscore.Internal.Torsion.Weighted>
-1.2807

> <Gold.Goldscore.External.Vdw.Weighted>
29.0067

> <Gold.Goldscore.Internal.HBond.Weighted>
0.0000

> <Gold.Goldscore.External.HBond.Weighted>
3.5805

> <Gold.Goldscore.Internal.Correction.Weighted>
-0.7693

> <Gold.Rescore>
     Score     S(PLP)   S(hbond)     S(cho)   S(metal)  DE(clash)   DE(tors)     intcor
     10.88      -8.08       1.80       0.00       0.00       1.45       0.58       ----

> <Gold.PLP.Fitness>
10.8789

> <Gold.PLP.PLP>
-8.0843

> <Gold.PLP.part.hbond>
-6.5859

> <Gold.PLP.part.metal>
0.0000

> <Gold.PLP.part.buried>
11.4755

> <Gold.PLP.part.nonpolar>
-23.8383

> <Gold.PLP.part.repulsive>
8.6016

> <Gold.PLP.ligand.clash>
1.4465

> <Gold.PLP.ligand.torsion>
0.5807

> <Gold.PLP.Chemscore.Hbond>
1.8009

> <Gold.PLP.Chemscore.CHOScore>
0.0000

> <Gold.PLP.Chemscore.Metal>
0.0000

> <Gold.Chemscore.Hbonds>
donor molecule, donor type, donor heavy atom, donor atom, acceptor molecule, acceptor atom, score
      L1  H     8    22       P1 19011  0.06
      P1  H 19345 19394       L1    17  0.21

> <Gold.PLP.Chemscore.Internal.Correction>
   9.000000E+99

#       Name:                CT1002167954
#       Creating user name   hitesit
#       Creation time:       Sun Apr 16 22:59:40 2023


#       File generated by GOLD software.
#

@<TRIPOS>MOLECULE
CT1002167954|ligand_prepared|mol2|1|dock2
    29    30     1
SMALL
NO_CHARGES


@<TRIPOS>ATOM
      1 C1         228.6655  24.9700  13.1482 C.3            1 RES1               0.0000
      2 C2         227.5256  25.7037  13.8839 C.ar           1 RES1               0.0000
      3 C3         228.0083  23.8454  12.3534 C.2            1 RES1               0.0000
      4 C4         229.3604  26.0177  12.2856 C.2            1 RES1               0.0000
      5 C5         229.7222  24.3514  14.0927 C.3            1 RES1               0.0000
      6 C6         227.0400  25.2232  15.0963 C.ar           1 RES1               0.0000
      7 C7         226.9524  26.8615  13.3647 C.ar           1 RES1               0.0000
      8 N8         227.9136  23.9989  11.0016 N.am           1 RES1               0.0000
      9 O9         227.5449  22.8568  12.9085 O.2            1 RES1               0.0000
     10 N10        229.2844  25.8816  10.9242 N.am           1 RES1               0.0000
     11 O11        229.9589  26.9690  12.7725 O.2            1 RES1               0.0000
     12 C12        230.9138  23.7465  13.3672 C.3            1 RES1               0.0000
     13 C13        226.0205  25.8781  15.7671 C.ar           1 RES1               0.0000
     14 C14        225.9327  27.5148  14.0371 C.ar           1 RES1               0.0000
     15 C15        228.5666  24.9368  10.2429 C.2            1 RES1               0.0000
     16 C16        225.4665  27.0244  15.2383 C.ar           1 RES1               0.0000
     17 O17        228.5028  24.9119   9.0171 O.2            1 RES1               0.0000
     18 H18        230.0831  25.1294  14.7767 H              1 RES1               0.0000
     19 H19        229.2428  23.5706  14.6960 H              1 RES1               0.0000
     20 H20        227.4620  24.3211  15.5268 H              1 RES1               0.0000
     21 H21        227.3026  27.2649  12.4207 H              1 RES1               0.0000
     22 H22        227.3003  23.3571  10.5093 H              1 RES1               0.0000
     23 H23        229.8120  26.5461  10.3671 H              1 RES1               0.0000
     24 H24        231.6245  23.3267  14.0760 H              1 RES1               0.0000
     25 H25        230.5942  22.9515  12.6966 H              1 RES1               0.0000
     26 H26        231.4296  24.5010  12.7768 H              1 RES1               0.0000
     27 H27        225.6562  25.4874  16.7115 H              1 RES1               0.0000
     28 H28        225.4993  28.4163  13.6168 H              1 RES1               0.0000
     29 H29        224.6681  27.5375  15.7641 H              1 RES1               0.0000
@<TRIPOS>BOND
    1    1    2 1     
    2    1    3 1     
    3    1    4 1     
    4    1    5 1     
    5    2    6 ar    
    6    2    7 ar    
    7    3    8 1     
    8    3    9 2     
    9    4   10 1     
   10    4   11 2     
   11    5   12 1     
   12    5   18 1     
   13    5   19 1     
   14    6   13 ar    
   15    6   20 1     
   16    7   14 ar    
   17    7   21 1     
   18    8   15 1     
   19    8   22 1     
   20   10   15 1     
   21   10   23 1     
   22   12   24 1     
   23   12   25 1     
   24   12   26 1     
   25   13   16 ar    
   26   13   27 1     
   27   14   16 ar    
   28   14   28 1     
   29   15   17 2     
   30   16   29 1     
@<TRIPOS>SUBSTRUCTURE
      1 RES1           1
@<TRIPOS>SET
DONOR_HYDROGENS      STATIC     ATOMS    <user>   **** ""
2 22 23
ATOM$RED        STATIC     ATOMS    COLORGROUP SYSTEM
2 22 23
@<TRIPOS>COMMENT
> <Gold.Version>
2022.3.0

> <Gold.Id.Protein>
unknown|4d1n_clean|pdb

> <Gold.Protein.RotatedTorsions>
[ 16995 16956 16955 16953 ] final   52.99 input   60.02 | X-H torsion
[ 18503 18464 18463 18461 ] final -155.16 input   59.99 | X-H torsion
[ 18563 18529 18530 18531 ] final -109.56 input   85.91 | X-H torsion
[ 18713 18683 18684 18685 ] final  -20.52 input  120.10 | X-H torsion
[ 18779 18741 18742 18743 ] final  -93.77 input   94.66 | X-H torsion
[ 18963 18915 18916 18917 ] final  101.01 input   99.61 | X-H torsion
[ 19029 19005 19006 19007 ] final -149.72 input  120.28 | X-H torsion
[ 17195 17175 17176 17177 ] final  -84.53 input   50.47 | X-H torsion
[ 17251 17219 17220 17221 ] final -121.43 input  121.85 | X-H torsion
[ 18823 18809 18810 18811 ] final   53.41 input  109.66 | X-H torsion
[ 19103 19061 19062 19063 ] final -122.92 input   93.64 | X-H torsion
[ 18495 18453 18454 18455 ] final   61.89 input  105.49 | X-H torsion
[ 18295 18273 18274 18275 ] final   78.15 input   34.55 | X-H torsion
[ 18327 18313 18314 18315 ] final    5.91 input   52.32 | X-H torsion
[ 18409 18361 18362 18363 ] final -108.05 input   29.77 | X-H torsion
[ 7524 7513 7514 7515 ] final  -93.01 input   82.77 | X-H torsion
[ 7477 7455 7456 7457 ] final  158.25 input   99.19 | X-H torsion
[ 18603 18589 18590 18591 ] final -134.11 input  124.64 | X-H torsion
[ 10105 10094 10093 10090 ] final   44.53 input   59.99 | X-H torsion
[ 18299 18278 18277 18274 ] final   -0.47 input   60.00 | X-H torsion
[ 11477 11459 11460 11461 ] final   -8.14 input   48.11 | X-H torsion
[ 18657 18629 18627 18624 ] final  176.74 input   60.03 | X-H torsion
[ 11425 11414 11413 11410 ] final  -27.17 input   60.02 | X-H torsion
[ 18875 18843 18844 18845 ] final   24.85 input   86.72 | X-H torsion
[ 17303 17281 17282 17283 ] final  105.28 input   51.85 | X-H torsion
[ 22447 22415 22416 22417 ] final  130.73 input   56.20 | X-H torsion
[ 18243 18203 18204 18205 ] final    8.15 input   41.90 | X-H torsion
[ 11805 11781 11782 11783 ] final  -91.28 input   87.31 | X-H torsion
[ 16987 16945 16946 16947 ] final -170.19 input   84.34 | X-H torsion
[ 27198 18532 18531 18530 ] final -109.69 input   -0.00 | X-H torsion
[ 27200 18626 18625 18624 ] final   98.44 input    0.00 | X-H torsion
[ 27203 18686 18685 18684 ] final   36.56 input   -0.00 | X-H torsion
[ 27223 17126 17125 17124 ] final  -87.19 input    0.00 | X-H torsion
[ 27227 11604 11603 11602 ] final  -40.78 input    0.00 | X-H torsion
[ 27231 17052 17051 17050 ] final   47.81 input   -0.00 | X-H torsion
[ 27233 18744 18743 18742 ] final -142.03 input   -0.00 | X-H torsion
[ 27235 18592 18591 18590 ] final   26.72 input   -0.00 | X-H torsion
[ 27238 18918 18917 18916 ] final  125.16 input    0.00 | X-H torsion
[ 27240 19008 19007 19006 ] final   -1.41 input    0.00 | X-H torsion
[ 27243 17178 17177 17176 ] final   63.28 input    0.00 | X-H torsion
[ 27245 18364 18363 18362 ] final -139.22 input    0.00 | X-H torsion
[ 27248 11412 11411 11410 ] final  -87.19 input   -0.00 | X-H torsion
[ 27250 18206 18205 18204 ] final   98.44 input   -0.00 | X-H torsion
[ 27254 17222 17221 17220 ] final -158.91 input   -0.00 | X-H torsion
[ 27259 18316 18315 18314 ] final   50.62 input   -0.00 | X-H torsion
[ 27261 18456 18455 18454 ] final  163.12 input    0.00 | X-H torsion
[ 27264 18276 18275 18274 ] final  -74.53 input    0.00 | X-H torsion
[ 27267 17016 17015 17014 ] final   74.53 input    0.00 | X-H torsion
[ 27275 16948 16947 16946 ] final  -82.97 input   -0.00 | X-H torsion

> <Gold.Protein.ActiveResidues>
 TRP414  CYS420  VAL421  GLY422  LEU460  SER462  SER482  GLN483  ILE485  ARG486 
 TYR487  ASP500  ASN503  TRP566  TYR567  GLY568  LEU569  PRO570  ALA571  VAL572 
 SER573  ASN574  PHE589  SER590  GLY591  TRP592  TYR593  MET594  GLY595  THR596 
 GLU597  ILE598  GLY599  VAL600  ARG601  ASP602  TYR603  ARG608  ILE653  VAL654 
 TRP683  PRO687  HEM750  H4B760 

> <Gold.Protein.RotatedAtoms>
  232.6282   32.6442   20.5110 H   0  0  0  0  0  0  0  0  0  0  0  0  # atno 7477 bound_to 7455
  234.1851   35.6391   19.7505 H   0  0  0  0  0  0  0  0  0  0  0  0  # atno 7524 bound_to 7513
  230.3034   41.8302   11.5856 H   0  0  0  0  0  0  0  0  0  0  0  0  # atno 10105 bound_to 10094
  220.7336   25.0887    8.5001 H   0  0  0  0  0  0  0  0  0  0  0  0  # atno 11425 bound_to 11414
  220.2182   27.6299    7.9142 H   0  0  0  0  0  0  0  0  0  0  0  0  # atno 11477 bound_to 11459
  224.2650   24.7050    2.0675 H   0  0  0  0  0  0  0  0  0  0  0  0  # atno 11805 bound_to 11781
  231.1835   27.8095    0.8139 H   0  0  0  0  0  0  0  0  0  0  0  0  # atno 16987 bound_to 16945
  226.6465   27.5682    6.3983 H   0  0  0  0  0  0  0  0  0  0  0  0  # atno 16995 bound_to 16956
  226.3934   32.3869    8.8170 H   0  0  0  0  0  0  0  0  0  0  0  0  # atno 17195 bound_to 17175
  224.1102   31.8267    9.9013 H   0  0  0  0  0  0  0  0  0  0  0  0  # atno 17251 bound_to 17219
  220.8181   30.5756   10.4212 H   0  0  0  0  0  0  0  0  0  0  0  0  # atno 17303 bound_to 17281
  221.5499   35.3724   11.0324 H   0  0  0  0  0  0  0  0  0  0  0  0  # atno 18243 bound_to 18203
  224.1748   38.2893   10.4717 H   0  0  0  0  0  0  0  0  0  0  0  0  # atno 18295 bound_to 18273
  225.4325   38.9390    9.0192 H   0  0  0  0  0  0  0  0  0  0  0  0  # atno 18299 bound_to 18278
  228.1981   36.5110   10.0983 H   0  0  0  0  0  0  0  0  0  0  0  0  # atno 18327 bound_to 18313
  230.5358   36.7740   10.1169 H   0  0  0  0  0  0  0  0  0  0  0  0  # atno 18409 bound_to 18361
  234.1793   34.6103    8.6288 H   0  0  0  0  0  0  0  0  0  0  0  0  # atno 18495 bound_to 18453
  229.9194   28.4895    6.3507 H   0  0  0  0  0  0  0  0  0  0  0  0  # atno 18503 bound_to 18464
  235.4723   32.9098   11.0742 H   0  0  0  0  0  0  0  0  0  0  0  0  # atno 18563 bound_to 18529
  237.8971   31.1126   10.5837 H   0  0  0  0  0  0  0  0  0  0  0  0  # atno 18603 bound_to 18589
  238.3343   27.0695   15.5547 H   0  0  0  0  0  0  0  0  0  0  0  0  # atno 18657 bound_to 18629
  236.7663   26.2192   11.6107 H   0  0  0  0  0  0  0  0  0  0  0  0  # atno 18713 bound_to 18683
  234.5968   25.6658   10.3183 H   0  0  0  0  0  0  0  0  0  0  0  0  # atno 18779 bound_to 18741
  237.3801   24.8416    9.4638 H   0  0  0  0  0  0  0  0  0  0  0  0  # atno 18823 bound_to 18809
  237.3173   22.9990   10.2823 H   0  0  0  0  0  0  0  0  0  0  0  0  # atno 18875 bound_to 18843
  235.7635   22.6119   11.8630 H   0  0  0  0  0  0  0  0  0  0  0  0  # atno 18963 bound_to 18915
  232.9343   21.8660   10.7495 H   0  0  0  0  0  0  0  0  0  0  0  0  # atno 19029 bound_to 19005
  233.7689   20.7053    7.3898 H   0  0  0  0  0  0  0  0  0  0  0  0  # atno 19103 bound_to 19061
  238.1754   35.5268   10.1921 H   0  0  0  0  0  0  0  0  0  0  0  0  # atno 22447 bound_to 22415
  228.1804   27.1417    6.7342 LP  0  0  0  0  0  0  0  0  0  0  0  0  # atno 27193 bound_to 16956
  227.2279   26.1493    5.8541 LP  0  0  0  0  0  0  0  0  0  0  0  0  # atno 27194 bound_to 16956
  229.1409   28.9658    7.6976 LP  0  0  0  0  0  0  0  0  0  0  0  0  # atno 27195 bound_to 18464
  230.1220   27.6610    7.7362 LP  0  0  0  0  0  0  0  0  0  0  0  0  # atno 27196 bound_to 18464
  234.6943   31.5413   11.8409 LP  0  0  0  0  0  0  0  0  0  0  0  0  # atno 27197 bound_to 18529
  236.4790   28.6229   11.7474 LP  0  0  0  0  0  0  0  0  0  0  0  0  # atno 27198 bound_to 18532
  235.5622   29.6229   10.6707 LP  0  0  0  0  0  0  0  0  0  0  0  0  # atno 27199 bound_to 18532
  236.3701   24.1208   12.9970 LP  0  0  0  0  0  0  0  0  0  0  0  0  # atno 27200 bound_to 18626
  236.8102   24.0601   11.3228 LP  0  0  0  0  0  0  0  0  0  0  0  0  # atno 27201 bound_to 18626
  236.2369   27.5077   12.6587 LP  0  0  0  0  0  0  0  0  0  0  0  0  # atno 27202 bound_to 18683
  232.9599   24.4593   11.0933 LP  0  0  0  0  0  0  0  0  0  0  0  0  # atno 27203 bound_to 18686
  234.1256   23.6869   10.0713 LP  0  0  0  0  0  0  0  0  0  0  0  0  # atno 27204 bound_to 18686
  235.9008   26.6796    9.7481 LP  0  0  0  0  0  0  0  0  0  0  0  0  # atno 27209 bound_to 18741
  236.4351   21.0225   11.6165 LP  0  0  0  0  0  0  0  0  0  0  0  0  # atno 27210 bound_to 18915
  234.4235   21.4854    9.9211 LP  0  0  0  0  0  0  0  0  0  0  0  0  # atno 27211 bound_to 19005
  227.1034   33.9496   10.1740 LP  0  0  0  0  0  0  0  0  0  0  0  0  # atno 27223 bound_to 17126
  226.9517   34.9454    8.7650 LP  0  0  0  0  0  0  0  0  0  0  0  0  # atno 27224 bound_to 17126
  225.6711   32.1741    7.2460 LP  0  0  0  0  0  0  0  0  0  0  0  0  # atno 27225 bound_to 17175
  223.6925   33.2844   10.7785 LP  0  0  0  0  0  0  0  0  0  0  0  0  # atno 27226 bound_to 17219
  225.6804   29.1515    4.5396 LP  0  0  0  0  0  0  0  0  0  0  0  0  # atno 27227 bound_to 11604
  224.8927   27.7924    5.2693 LP  0  0  0  0  0  0  0  0  0  0  0  0  # atno 27228 bound_to 11604
  227.3587   31.9345    4.4460 LP  0  0  0  0  0  0  0  0  0  0  0  0  # atno 27231 bound_to 17052
  226.4492   32.3712    5.8539 LP  0  0  0  0  0  0  0  0  0  0  0  0  # atno 27232 bound_to 17052
  236.2692   22.1590    8.4801 LP  0  0  0  0  0  0  0  0  0  0  0  0  # atno 27233 bound_to 18744
  235.2052   22.7997    7.2730 LP  0  0  0  0  0  0  0  0  0  0  0  0  # atno 27234 bound_to 18744
  238.6034   26.9641    8.7806 LP  0  0  0  0  0  0  0  0  0  0  0  0  # atno 27235 bound_to 18592
  237.7044   26.1326   10.0055 LP  0  0  0  0  0  0  0  0  0  0  0  0  # atno 27236 bound_to 18592
  236.9047   24.6438    7.7945 LP  0  0  0  0  0  0  0  0  0  0  0  0  # atno 27237 bound_to 18809
  232.4089   19.1751   10.2775 LP  0  0  0  0  0  0  0  0  0  0  0  0  # atno 27238 bound_to 18918
  234.0503   18.7004   10.5617 LP  0  0  0  0  0  0  0  0  0  0  0  0  # atno 27239 bound_to 18918
  231.7044   19.3691    7.3762 LP  0  0  0  0  0  0  0  0  0  0  0  0  # atno 27240 bound_to 19008
  233.1468   18.7415    6.6513 LP  0  0  0  0  0  0  0  0  0  0  0  0  # atno 27241 bound_to 19008
  235.0705   20.7253    8.5546 LP  0  0  0  0  0  0  0  0  0  0  0  0  # atno 27242 bound_to 19061
  222.6549   31.2421    8.0149 LP  0  0  0  0  0  0  0  0  0  0  0  0  # atno 27243 bound_to 17178
  221.5341   32.1912    8.9330 LP  0  0  0  0  0  0  0  0  0  0  0  0  # atno 27244 bound_to 17178
  233.6593   34.5476   11.8391 LP  0  0  0  0  0  0  0  0  0  0  0  0  # atno 27245 bound_to 18364
  232.0395   35.1505   11.7265 LP  0  0  0  0  0  0  0  0  0  0  0  0  # atno 27246 bound_to 18364
  232.7223   34.4572    9.5815 LP  0  0  0  0  0  0  0  0  0  0  0  0  # atno 27247 bound_to 18453
  220.2460   29.2631   10.8522 LP  0  0  0  0  0  0  0  0  0  0  0  0  # atno 27248 bound_to 11412
  221.5555   28.1926   11.2254 LP  0  0  0  0  0  0  0  0  0  0  0  0  # atno 27249 bound_to 11412
  223.6887   34.9388   10.2494 LP  0  0  0  0  0  0  0  0  0  0  0  0  # atno 27250 bound_to 18206
  224.1532   34.8624   11.9162 LP  0  0  0  0  0  0  0  0  0  0  0  0  # atno 27251 bound_to 18206
  220.1097   33.5392   11.8299 LP  0  0  0  0  0  0  0  0  0  0  0  0  # atno 27254 bound_to 17222
  221.7640   33.9219   11.4883 LP  0  0  0  0  0  0  0  0  0  0  0  0  # atno 27255 bound_to 17222
  224.2458   37.0213   11.6675 LP  0  0  0  0  0  0  0  0  0  0  0  0  # atno 27256 bound_to 18273
  227.4461   37.4498   11.3680 LP  0  0  0  0  0  0  0  0  0  0  0  0  # atno 27257 bound_to 18313
  231.8572   37.3191   11.1273 LP  0  0  0  0  0  0  0  0  0  0  0  0  # atno 27258 bound_to 18361
  230.0086   38.7057    8.4242 LP  0  0  0  0  0  0  0  0  0  0  0  0  # atno 27259 bound_to 18316
  230.2720   37.0394    8.0315 LP  0  0  0  0  0  0  0  0  0  0  0  0  # atno 27260 bound_to 18316
  236.9972   34.0027   11.0253 LP  0  0  0  0  0  0  0  0  0  0  0  0  # atno 27261 bound_to 18456
  236.2875   34.1889    9.4563 LP  0  0  0  0  0  0  0  0  0  0  0  0  # atno 27262 bound_to 18456
  232.6082   35.3506   19.0534 LP  0  0  0  0  0  0  0  0  0  0  0  0  # atno 27263 bound_to 7513
  226.8112   39.7025   10.1878 LP  0  0  0  0  0  0  0  0  0  0  0  0  # atno 27264 bound_to 18276
  226.9314   39.4068   11.8901 LP  0  0  0  0  0  0  0  0  0  0  0  0  # atno 27265 bound_to 18276
  232.0927   34.2679   20.1481 LP  0  0  0  0  0  0  0  0  0  0  0  0  # atno 27266 bound_to 7455
  232.0242   34.9320    4.8953 LP  0  0  0  0  0  0  0  0  0  0  0  0  # atno 27267 bound_to 17016
  231.6513   33.4444    5.7003 LP  0  0  0  0  0  0  0  0  0  0  0  0  # atno 27268 bound_to 17016
  238.6652   30.2464   11.8906 LP  0  0  0  0  0  0  0  0  0  0  0  0  # atno 27269 bound_to 18589
  229.5912   40.5699   12.3276 LP  0  0  0  0  0  0  0  0  0  0  0  0  # atno 27270 bound_to 10094
  230.0935   41.8567   13.1985 LP  0  0  0  0  0  0  0  0  0  0  0  0  # atno 27271 bound_to 10094
  224.6425   38.2752    7.7605 LP  0  0  0  0  0  0  0  0  0  0  0  0  # atno 27272 bound_to 18278
  226.2449   38.5726    7.6573 LP  0  0  0  0  0  0  0  0  0  0  0  0  # atno 27273 bound_to 18278
  221.2993   27.3886    9.2772 LP  0  0  0  0  0  0  0  0  0  0  0  0  # atno 27274 bound_to 11459
  231.1025   30.3643    4.0870 LP  0  0  0  0  0  0  0  0  0  0  0  0  # atno 27275 bound_to 16948
  232.7139   30.3028    3.4546 LP  0  0  0  0  0  0  0  0  0  0  0  0  # atno 27276 bound_to 16948

> <Gold.Score>
     Fitness  S(hb_ext) S(vdw_ext)  S(hb_int)    S(int)      intcor
     26.87       3.33      18.00       0.00      -1.20      -0.79

> <Gold.Goldscore.Fitness>
26.8727

> <Gold.Goldscore.Internal.Vdw>
-1.5808

> <Gold.Goldscore.Internal.Torsion>
-0.4143

> <Gold.Goldscore.External.Vdw>
17.9993

> <Gold.Goldscore.Internal.HBond>
0.0000

> <Gold.Goldscore.External.HBond>
3.3276

> <Gold.Goldscore.Internal.Correction>
-0.7912

> <Gold.Goldscore.Hbonds>
donor molecule, donor type, donor heavy atom, donor atom, acceptor molecule, acceptor atom, score
      P1  H 11466 11483       L1    17  0.01
      P1  H 19345 19394       L1    17  0.55

> <Gold.Goldscore.Internal.Vdw.Weighted>
-1.5808

> <Gold.Goldscore.Internal.Torsion.Weighted>
-0.4143

> <Gold.Goldscore.External.Vdw.Weighted>
24.7491

> <Gold.Goldscore.Internal.HBond.Weighted>
0.0000

> <Gold.Goldscore.External.HBond.Weighted>
3.3276

> <Gold.Goldscore.Internal.Correction.Weighted>
-0.7912

> <Gold.Rescore>
     Score     S(PLP)   S(hbond)     S(cho)   S(metal)  DE(clash)   DE(tors)     intcor
     15.50     -17.67       0.06       0.00       0.00       0.63       0.86       ----

> <Gold.PLP.Fitness>
15.4954

> <Gold.PLP.PLP>
-17.6741

> <Gold.PLP.part.hbond>
-5.1814

> <Gold.PLP.part.metal>
0.0000

> <Gold.PLP.part.buried>
-1.2344

> <Gold.PLP.part.nonpolar>
-17.4992

> <Gold.PLP.part.repulsive>
4.4526

> <Gold.PLP.ligand.clash>
0.6314

> <Gold.PLP.ligand.torsion>
0.8637

> <Gold.PLP.Chemscore.Hbond>
0.0601

> <Gold.PLP.Chemscore.CHOScore>
0.0000

> <Gold.PLP.Chemscore.Metal>
0.0000

> <Gold.Chemscore.Hbonds>
donor molecule, donor type, donor heavy atom, donor atom, acceptor molecule, acceptor atom, score
      P1  H 11466 11483       L1    17  0.01
      P1  H 19345 19394       L1    17  0.24

> <Gold.PLP.Chemscore.Internal.Correction>
   9.000000E+99

#       Name:                CT1002167954
#       Creating user name   hitesit
#       Creation time:       Sun Apr 16 22:59:41 2023


#       File generated by GOLD software.
#

@<TRIPOS>MOLECULE
CT1002167954|ligand_prepared|mol2|1|dock3
    29    30     1
SMALL
NO_CHARGES


@<TRIPOS>ATOM
      1 C1         227.7572  23.3760  14.6981 C.3            1 RES1               0.0000
      2 C2         229.0682  24.0383  14.2275 C.ar           1 RES1               0.0000
      3 C3         227.2070  24.2599  15.8135 C.2            1 RES1               0.0000
      4 C4         226.8573  23.2913  13.4702 C.2            1 RES1               0.0000
      5 C5         227.9444  21.9446  15.2528 C.3            1 RES1               0.0000
      6 C6         230.1988  24.0272  15.0389 C.ar           1 RES1               0.0000
      7 C7         229.1629  24.6610  12.9857 C.ar           1 RES1               0.0000
      8 N8         226.1223  25.0357  15.5280 N.am           1 RES1               0.0000
      9 O9         227.7407  24.3052  16.9150 O.2            1 RES1               0.0000
     10 N10        225.7060  24.0345  13.4654 N.am           1 RES1               0.0000
     11 O11        227.1431  22.6007  12.4999 O.2            1 RES1               0.0000
     12 C12        226.6494  21.2874  15.7034 C.3            1 RES1               0.0000
     13 C13        231.3821  24.6145  14.6229 C.ar           1 RES1               0.0000
     14 C14        230.3472  25.2479  12.5717 C.ar           1 RES1               0.0000
     15 C15        225.3131  24.9265  14.4258 C.2            1 RES1               0.0000
     16 C16        231.4573  25.2248  13.3890 C.ar           1 RES1               0.0000
     17 O17        224.2909  25.5988  14.3248 O.2            1 RES1               0.0000
     18 H18        228.4045  21.3221  14.4755 H              1 RES1               0.0000
     19 H19        228.6355  21.9833  16.1039 H              1 RES1               0.0000
     20 H20        230.1579  23.5537  16.0142 H              1 RES1               0.0000
     21 H21        228.3020  24.6922  12.3266 H              1 RES1               0.0000
     22 H22        225.8915  25.7645  16.1958 H              1 RES1               0.0000
     23 H23        225.0843  23.9112  12.6726 H              1 RES1               0.0000
     24 H24        226.8372  20.2855  16.0836 H              1 RES1               0.0000
     25 H25        226.1775  21.8670  16.4941 H              1 RES1               0.0000
     26 H26        225.9479  21.2097  14.8754 H              1 RES1               0.0000
     27 H27        232.2525  24.5948  15.2704 H              1 RES1               0.0000
     28 H28        230.4017  25.7277  11.6001 H              1 RES1               0.0000
     29 H29        232.3845  25.6845  13.0631 H              1 RES1               0.0000
@<TRIPOS>BOND
    1    1    2 1     
    2    1    3 1     
    3    1    4 1     
    4    1    5 1     
    5    2    6 ar    
    6    2    7 ar    
    7    3    8 1     
    8    3    9 2     
    9    4   10 1     
   10    4   11 2     
   11    5   12 1     
   12    5   18 1     
   13    5   19 1     
   14    6   13 ar    
   15    6   20 1     
   16    7   14 ar    
   17    7   21 1     
   18    8   15 1     
   19    8   22 1     
   20   10   15 1     
   21   10   23 1     
   22   12   24 1     
   23   12   25 1     
   24   12   26 1     
   25   13   16 ar    
   26   13   27 1     
   27   14   16 ar    
   28   14   28 1     
   29   15   17 2     
   30   16   29 1     
@<TRIPOS>SUBSTRUCTURE
      1 RES1           1
@<TRIPOS>SET
DONOR_HYDROGENS      STATIC     ATOMS    <user>   **** ""
2 22 23
ATOM$RED        STATIC     ATOMS    COLORGROUP SYSTEM
2 22 23
@<TRIPOS>COMMENT
> <Gold.Version>
2022.3.0

> <Gold.Id.Protein>
unknown|4d1n_clean|pdb

> <Gold.Protein.RotatedTorsions>
[ 16995 16956 16955 16953 ] final   24.98 input   60.02 | X-H torsion
[ 18503 18464 18463 18461 ] final  150.95 input   59.99 | X-H torsion
[ 18563 18529 18530 18531 ] final -159.52 input   85.91 | X-H torsion
[ 18713 18683 18684 18685 ] final  -52.30 input  120.10 | X-H torsion
[ 18779 18741 18742 18743 ] final  162.54 input   94.66 | X-H torsion
[ 18963 18915 18916 18917 ] final -156.94 input   99.61 | X-H torsion
[ 19029 19005 19006 19007 ] final   95.74 input  120.28 | X-H torsion
[ 17195 17175 17176 17177 ] final  146.57 input   50.47 | X-H torsion
[ 17251 17219 17220 17221 ] final  -80.20 input  121.85 | X-H torsion
[ 18823 18809 18810 18811 ] final   91.29 input  109.66 | X-H torsion
[ 19103 19061 19062 19063 ] final  -11.52 input   93.64 | X-H torsion
[ 18495 18453 18454 18455 ] final  127.10 input  105.49 | X-H torsion
[ 18295 18273 18274 18275 ] final -120.43 input   34.55 | X-H torsion
[ 18327 18313 18314 18315 ] final -160.13 input   52.32 | X-H torsion
[ 18409 18361 18362 18363 ] final -130.67 input   29.77 | X-H torsion
[ 7524 7513 7514 7515 ] final  144.50 input   82.77 | X-H torsion
[ 7477 7455 7456 7457 ] final -173.87 input   99.19 | X-H torsion
[ 18603 18589 18590 18591 ] final -120.16 input  124.64 | X-H torsion
[ 10105 10094 10093 10090 ] final  -41.46 input   59.99 | X-H torsion
[ 18299 18278 18277 18274 ] final  -67.91 input   60.00 | X-H torsion
[ 11477 11459 11460 11461 ] final   91.30 input   48.11 | X-H torsion
[ 18657 18629 18627 18624 ] final  178.77 input   60.03 | X-H torsion
[ 11425 11414 11413 11410 ] final   19.77 input   60.02 | X-H torsion
[ 18875 18843 18844 18845 ] final   82.08 input   86.72 | X-H torsion
[ 17303 17281 17282 17283 ] final  -86.63 input   51.85 | X-H torsion
[ 22447 22415 22416 22417 ] final  177.57 input   56.20 | X-H torsion
[ 18243 18203 18204 18205 ] final   51.76 input   41.90 | X-H torsion
[ 11805 11781 11782 11783 ] final   65.71 input   87.31 | X-H torsion
[ 16987 16945 16946 16947 ] final  132.58 input   84.34 | X-H torsion
[ 27198 18532 18531 18530 ] final    8.78 input   -0.00 | X-H torsion
[ 27200 18626 18625 18624 ] final  -24.72 input    0.00 | X-H torsion
[ 27203 18686 18685 18684 ] final -170.54 input   -0.00 | X-H torsion
[ 27223 17126 17125 17124 ] final  -42.68 input    0.00 | X-H torsion
[ 27227 11604 11603 11602 ] final   63.09 input    0.00 | X-H torsion
[ 27231 17052 17051 17050 ] final  -60.46 input   -0.00 | X-H torsion
[ 27233 18744 18743 18742 ] final  -58.22 input   -0.00 | X-H torsion
[ 27235 18592 18591 18590 ] final   22.95 input   -0.00 | X-H torsion
[ 27238 18918 18917 18916 ] final   78.32 input    0.00 | X-H torsion
[ 27240 19008 19007 19006 ] final    5.14 input    0.00 | X-H torsion
[ 27243 17178 17177 17176 ] final   31.39 input    0.00 | X-H torsion
[ 27245 18364 18363 18362 ] final -173.83 input    0.00 | X-H torsion
[ 27248 11412 11411 11410 ] final -161.11 input   -0.00 | X-H torsion
[ 27250 18206 18205 18204 ] final -139.82 input   -0.00 | X-H torsion
[ 27254 17222 17221 17220 ] final   65.38 input   -0.00 | X-H torsion
[ 27259 18316 18315 18314 ] final   48.66 input   -0.00 | X-H torsion
[ 27261 18456 18455 18454 ] final -112.30 input    0.00 | X-H torsion
[ 27264 18276 18275 18274 ] final  -83.86 input    0.00 | X-H torsion
[ 27267 17016 17015 17014 ] final   29.53 input    0.00 | X-H torsion
[ 27275 16948 16947 16946 ] final  101.90 input   -0.00 | X-H torsion

> <Gold.Protein.ActiveResidues>
 TRP414  CYS420  VAL421  GLY422  LEU460  SER462  SER482  GLN483  ILE485  ARG486 
 TYR487  ASP500  ASN503  TRP566  TYR567  GLY568  LEU569  PRO570  ALA571  VAL572 
 SER573  ASN574  PHE589  SER590  GLY591  TRP592  TYR593  MET594  GLY595  THR596 
 GLU597  ILE598  GLY599  VAL600  ARG601  ASP602  TYR603  ARG608  ILE653  VAL654 
 TRP683  PRO687  HEM750  H4B760 

> <Gold.Protein.RotatedAtoms>
  232.5126   32.8012   20.8898 H   0  0  0  0  0  0  0  0  0  0  0  0  # atno 7477 bound_to 7455
  233.2700   34.9957   18.6744 H   0  0  0  0  0  0  0  0  0  0  0  0  # atno 7524 bound_to 7513
  229.7298   40.7140   11.8159 H   0  0  0  0  0  0  0  0  0  0  0  0  # atno 10105 bound_to 10094
  221.2704   25.5025    8.8115 H   0  0  0  0  0  0  0  0  0  0  0  0  # atno 11425 bound_to 11414
  221.3992   26.9949    8.2155 H   0  0  0  0  0  0  0  0  0  0  0  0  # atno 11477 bound_to 11459
  225.2584   23.6729    3.0803 H   0  0  0  0  0  0  0  0  0  0  0  0  # atno 11805 bound_to 11781
  230.7610   27.7380    1.5432 H   0  0  0  0  0  0  0  0  0  0  0  0  # atno 16987 bound_to 16945
  226.9853   27.7635    6.6269 H   0  0  0  0  0  0  0  0  0  0  0  0  # atno 16995 bound_to 16956
  226.1120   32.7787    7.3181 H   0  0  0  0  0  0  0  0  0  0  0  0  # atno 17195 bound_to 17175
  223.6104   32.1056    9.6417 H   0  0  0  0  0  0  0  0  0  0  0  0  # atno 17251 bound_to 17219
  220.8225   31.5994   11.8436 H   0  0  0  0  0  0  0  0  0  0  0  0  # atno 17303 bound_to 17281
  221.4289   35.2780   11.6712 H   0  0  0  0  0  0  0  0  0  0  0  0  # atno 18243 bound_to 18203
  224.0915   36.8817   11.4771 H   0  0  0  0  0  0  0  0  0  0  0  0  # atno 18295 bound_to 18273
  224.5886   38.5696    8.5370 H   0  0  0  0  0  0  0  0  0  0  0  0  # atno 18299 bound_to 18278
  227.3944   37.5999   11.2242 H   0  0  0  0  0  0  0  0  0  0  0  0  # atno 18327 bound_to 18313
  230.6021   37.0879    9.9795 H   0  0  0  0  0  0  0  0  0  0  0  0  # atno 18409 bound_to 18361
  233.4038   34.1567    8.3116 H   0  0  0  0  0  0  0  0  0  0  0  0  # atno 18495 bound_to 18453
  229.3871   29.0459    6.7061 H   0  0  0  0  0  0  0  0  0  0  0  0  # atno 18503 bound_to 18464
  235.2224   33.0366   11.7717 H   0  0  0  0  0  0  0  0  0  0  0  0  # atno 18563 bound_to 18529
  237.7251   31.0019   10.6461 H   0  0  0  0  0  0  0  0  0  0  0  0  # atno 18603 bound_to 18589
  238.3594   27.0906   15.5503 H   0  0  0  0  0  0  0  0  0  0  0  0  # atno 18657 bound_to 18629
  236.7609   26.0348   12.0530 H   0  0  0  0  0  0  0  0  0  0  0  0  # atno 18713 bound_to 18683
  234.8408   26.8636    9.6577 H   0  0  0  0  0  0  0  0  0  0  0  0  # atno 18779 bound_to 18741
  237.6651   25.2215    9.1429 H   0  0  0  0  0  0  0  0  0  0  0  0  # atno 18823 bound_to 18809
  237.8113   23.4512   10.8027 H   0  0  0  0  0  0  0  0  0  0  0  0  # atno 18875 bound_to 18843
  236.3652   21.6009   12.5454 H   0  0  0  0  0  0  0  0  0  0  0  0  # atno 18963 bound_to 18915
  234.0823   22.3649    9.9566 H   0  0  0  0  0  0  0  0  0  0  0  0  # atno 19029 bound_to 19005
  234.3219   20.0868    8.5891 H   0  0  0  0  0  0  0  0  0  0  0  0  # atno 19103 bound_to 19061
  238.6289   35.8780    9.7858 H   0  0  0  0  0  0  0  0  0  0  0  0  # atno 22447 bound_to 22415
  228.2422   26.7341    6.5386 LP  0  0  0  0  0  0  0  0  0  0  0  0  # atno 27193 bound_to 16956
  226.8247   26.3602    5.8193 LP  0  0  0  0  0  0  0  0  0  0  0  0  # atno 27194 bound_to 16956
  229.4765   28.3357    8.1671 LP  0  0  0  0  0  0  0  0  0  0  0  0  # atno 27195 bound_to 18464
  230.3228   27.7305    6.9086 LP  0  0  0  0  0  0  0  0  0  0  0  0  # atno 27196 bound_to 18464
  234.9359   31.4188   11.1664 LP  0  0  0  0  0  0  0  0  0  0  0  0  # atno 27197 bound_to 18529
  235.4027   29.6301   11.5422 LP  0  0  0  0  0  0  0  0  0  0  0  0  # atno 27198 bound_to 18532
  236.6385   28.6157   10.8759 LP  0  0  0  0  0  0  0  0  0  0  0  0  # atno 27199 bound_to 18532
  237.3947   23.9217   11.8874 LP  0  0  0  0  0  0  0  0  0  0  0  0  # atno 27200 bound_to 18626
  235.7856   24.2592   12.4324 LP  0  0  0  0  0  0  0  0  0  0  0  0  # atno 27201 bound_to 18626
  236.2422   27.6906   12.2202 LP  0  0  0  0  0  0  0  0  0  0  0  0  # atno 27202 bound_to 18683
  233.8739   23.8674    9.8089 LP  0  0  0  0  0  0  0  0  0  0  0  0  # atno 27203 bound_to 18686
  233.2116   24.2788   11.3556 LP  0  0  0  0  0  0  0  0  0  0  0  0  # atno 27204 bound_to 18686
  235.6622   25.5084   10.3940 LP  0  0  0  0  0  0  0  0  0  0  0  0  # atno 27209 bound_to 18741
  235.8380   22.0259   10.9393 LP  0  0  0  0  0  0  0  0  0  0  0  0  # atno 27210 bound_to 18915
  233.2954   20.9951   10.7003 LP  0  0  0  0  0  0  0  0  0  0  0  0  # atno 27211 bound_to 19005
  227.6824   34.0656    9.8883 LP  0  0  0  0  0  0  0  0  0  0  0  0  # atno 27223 bound_to 17126
  226.3727   34.8294    9.0507 LP  0  0  0  0  0  0  0  0  0  0  0  0  # atno 27224 bound_to 17126
  225.9514   31.7838    8.7391 LP  0  0  0  0  0  0  0  0  0  0  0  0  # atno 27225 bound_to 17175
  224.1737   33.0158   11.0285 LP  0  0  0  0  0  0  0  0  0  0  0  0  # atno 27226 bound_to 17219
  224.6742   28.8293    5.4017 LP  0  0  0  0  0  0  0  0  0  0  0  0  # atno 27227 bound_to 11604
  225.8990   28.1146    4.4072 LP  0  0  0  0  0  0  0  0  0  0  0  0  # atno 27228 bound_to 11604
  226.4308   32.8532    4.9611 LP  0  0  0  0  0  0  0  0  0  0  0  0  # atno 27231 bound_to 17052
  227.3771   31.4525    5.3388 LP  0  0  0  0  0  0  0  0  0  0  0  0  # atno 27232 bound_to 17052
  235.1626   22.4933    8.5243 LP  0  0  0  0  0  0  0  0  0  0  0  0  # atno 27233 bound_to 18744
  236.3118   22.4653    7.2288 LP  0  0  0  0  0  0  0  0  0  0  0  0  # atno 27234 bound_to 18744
  238.5551   26.9903    8.7655 LP  0  0  0  0  0  0  0  0  0  0  0  0  # atno 27235 bound_to 18592
  237.7527   26.1065   10.0205 LP  0  0  0  0  0  0  0  0  0  0  0  0  # atno 27236 bound_to 18592
  236.6258   24.2721    8.1085 LP  0  0  0  0  0  0  0  0  0  0  0  0  # atno 27237 bound_to 18809
  232.5356   19.0073   10.9330 LP  0  0  0  0  0  0  0  0  0  0  0  0  # atno 27238 bound_to 18918
  233.9236   18.8683    9.9062 LP  0  0  0  0  0  0  0  0  0  0  0  0  # atno 27239 bound_to 18918
  231.6957   19.4263    7.2959 LP  0  0  0  0  0  0  0  0  0  0  0  0  # atno 27240 bound_to 19008
  233.1555   18.6843    6.7315 LP  0  0  0  0  0  0  0  0  0  0  0  0  # atno 27241 bound_to 19008
  234.5291   21.3309    7.3805 LP  0  0  0  0  0  0  0  0  0  0  0  0  # atno 27242 bound_to 19061
  222.5911   31.6441    7.7682 LP  0  0  0  0  0  0  0  0  0  0  0  0  # atno 27243 bound_to 17178
  221.5978   31.7893    9.1797 LP  0  0  0  0  0  0  0  0  0  0  0  0  # atno 27244 bound_to 17178
  233.3496   34.1423   11.7661 LP  0  0  0  0  0  0  0  0  0  0  0  0  # atno 27245 bound_to 18364
  232.3491   35.5558   11.7995 LP  0  0  0  0  0  0  0  0  0  0  0  0  # atno 27246 bound_to 18364
  233.4798   34.9003    9.8913 LP  0  0  0  0  0  0  0  0  0  0  0  0  # atno 27247 bound_to 18453
  221.2263   29.3286   10.5069 LP  0  0  0  0  0  0  0  0  0  0  0  0  # atno 27248 bound_to 11412
  220.5752   28.1270   11.5708 LP  0  0  0  0  0  0  0  0  0  0  0  0  # atno 27249 bound_to 11412
  224.7465   34.9856   11.3301 LP  0  0  0  0  0  0  0  0  0  0  0  0  # atno 27250 bound_to 18206
  223.0953   34.8156   10.8356 LP  0  0  0  0  0  0  0  0  0  0  0  0  # atno 27251 bound_to 18206
  221.3927   33.9337   10.9513 LP  0  0  0  0  0  0  0  0  0  0  0  0  # atno 27254 bound_to 17222
  220.4809   33.5275   12.3669 LP  0  0  0  0  0  0  0  0  0  0  0  0  # atno 27255 bound_to 17222
  224.3280   38.4121   10.6742 LP  0  0  0  0  0  0  0  0  0  0  0  0  # atno 27256 bound_to 18273
  228.2274   36.3912   10.2734 LP  0  0  0  0  0  0  0  0  0  0  0  0  # atno 27257 bound_to 18313
  231.7930   37.0152   11.2603 LP  0  0  0  0  0  0  0  0  0  0  0  0  # atno 27258 bound_to 18361
  229.9799   38.6996    8.4285 LP  0  0  0  0  0  0  0  0  0  0  0  0  # atno 27259 bound_to 18316
  230.3007   37.0455    8.0272 LP  0  0  0  0  0  0  0  0  0  0  0  0  # atno 27260 bound_to 18316
  237.1668   33.4440   10.0167 LP  0  0  0  0  0  0  0  0  0  0  0  0  # atno 27261 bound_to 18456
  236.1179   34.7475   10.4650 LP  0  0  0  0  0  0  0  0  0  0  0  0  # atno 27262 bound_to 18456
  233.5001   35.9777   20.1022 LP  0  0  0  0  0  0  0  0  0  0  0  0  # atno 27263 bound_to 7513
  226.9510   39.7182   10.1923 LP  0  0  0  0  0  0  0  0  0  0  0  0  # atno 27264 bound_to 18276
  226.7916   39.3911   11.8857 LP  0  0  0  0  0  0  0  0  0  0  0  0  # atno 27265 bound_to 18276
  232.2056   34.1145   19.7782 LP  0  0  0  0  0  0  0  0  0  0  0  0  # atno 27266 bound_to 7455
  232.5055   34.4808    4.8304 LP  0  0  0  0  0  0  0  0  0  0  0  0  # atno 27267 bound_to 17016
  231.1700   33.8956    5.7652 LP  0  0  0  0  0  0  0  0  0  0  0  0  # atno 27268 bound_to 17016
  238.8342   30.3552   11.8292 LP  0  0  0  0  0  0  0  0  0  0  0  0  # atno 27269 bound_to 18589
  229.8456   41.3743   13.2980 LP  0  0  0  0  0  0  0  0  0  0  0  0  # atno 27270 bound_to 10094
  230.4171   42.1773   11.9960 LP  0  0  0  0  0  0  0  0  0  0  0  0  # atno 27271 bound_to 10094
  225.5673   38.2759    7.2702 LP  0  0  0  0  0  0  0  0  0  0  0  0  # atno 27272 bound_to 18278
  226.1697   38.9438    8.6331 LP  0  0  0  0  0  0  0  0  0  0  0  0  # atno 27273 bound_to 18278
  220.1784   27.9912    8.9912 LP  0  0  0  0  0  0  0  0  0  0  0  0  # atno 27274 bound_to 11459
  232.7214   30.3730    3.4755 LP  0  0  0  0  0  0  0  0  0  0  0  0  # atno 27275 bound_to 16948
  231.0950   30.2940    4.0661 LP  0  0  0  0  0  0  0  0  0  0  0  0  # atno 27276 bound_to 16948

> <Gold.Score>
     Fitness  S(hb_ext) S(vdw_ext)  S(hb_int)    S(int)      intcor
     25.08       1.76      18.30       0.00      -1.85      -0.79

> <Gold.Goldscore.Fitness>
25.0822

> <Gold.Goldscore.Internal.Vdw>
-2.2726

> <Gold.Goldscore.Internal.Torsion>
-0.3668

> <Gold.Goldscore.External.Vdw>
18.3039

> <Gold.Goldscore.Internal.HBond>
0.0000

> <Gold.Goldscore.External.HBond>
1.7625

> <Gold.Goldscore.Internal.Correction>
-0.7912

> <Gold.Goldscore.Hbonds>
donor molecule, donor type, donor heavy atom, donor atom, acceptor molecule, acceptor atom, score
      L1  H     8    22       P1 26869  0.29

> <Gold.Goldscore.Internal.Vdw.Weighted>
-2.2726

> <Gold.Goldscore.Internal.Torsion.Weighted>
-0.3668

> <Gold.Goldscore.External.Vdw.Weighted>
25.1679

> <Gold.Goldscore.Internal.HBond.Weighted>
0.0000

> <Gold.Goldscore.External.HBond.Weighted>
1.7625

> <Gold.Goldscore.Internal.Correction.Weighted>
-0.7912

> <Gold.Rescore>
     Score     S(PLP)   S(hbond)     S(cho)   S(metal)  DE(clash)   DE(tors)     intcor
     18.21     -18.74       0.40       0.00       0.00       0.14       0.80       ----

> <Gold.PLP.Fitness>
18.2072

> <Gold.PLP.PLP>
-18.7447

> <Gold.PLP.part.hbond>
-1.1532

> <Gold.PLP.part.metal>
0.0000

> <Gold.PLP.part.buried>
-6.4331

> <Gold.PLP.part.nonpolar>
-14.0086

> <Gold.PLP.part.repulsive>
2.4536

> <Gold.PLP.ligand.clash>
0.1435

> <Gold.PLP.ligand.torsion>
0.8015

> <Gold.PLP.Chemscore.Hbond>
0.4030

> <Gold.PLP.Chemscore.CHOScore>
0.0000

> <Gold.PLP.Chemscore.Metal>
0.0000

> <Gold.PLP.Chemscore.Internal.Correction>
   9.000000E+99

