#       Name:                GA Fitting Points
#       Creating user name   hitesit
#       Creation time:       Sun Apr 16 22:59:35 2023


#       Fitting Points Used by GA Software.
#

@<TRIPOS>MOLECULE
GA Fitting Points
  5674    0    0
SMALL
NO_CHARGES


@<TRIPOS>ATOM
      1 ****       220.0000  25.0000  16.5000 Du        
      2 ****       220.2500  24.7500  16.2500 Du        
      3 ****       220.2500  25.0000  16.5000 Du        
      4 ****       220.5000  24.7500  16.2500 Du        
      5 ****       220.5000  25.0000  16.2500 Du        
      6 ****       220.7500  24.7500  16.2500 Du        
      7 ****       220.7500  25.0000  16.2500 Du        
      8 ****       221.2500  24.7500  16.5000 Du        
      9 ****       221.7500  23.7500  17.2500 Du        
     10 ****       221.7500  23.7500  17.5000 Du        
     11 ****       222.0000  23.5000  17.5000 Du        
     12 ****       222.0000  23.7500  17.2500 Du        
     13 ****       222.0000  23.7500  17.5000 Du        
     14 ****       222.0000  24.0000  17.0000 Du        
     15 ****       222.0000  24.0000  17.2500 Du        
     16 ****       222.2500  23.0000  17.5000 Du        
     17 ****       222.2500  23.2500  17.5000 Du        
     18 ****       222.2500  23.5000  17.2500 Du        
     19 ****       222.2500  23.5000  17.5000 Du        
     20 ****       222.2500  23.5000  17.7500 Du        
     21 ****       222.2500  23.7500  17.0000 Du        
     22 ****       222.2500  23.7500  17.2500 Du        
     23 ****       222.2500  23.7500  17.5000 Du        
     24 ****       222.2500  23.7500  17.7500 Du        
     25 ****       222.2500  24.0000  17.0000 Du        
     26 ****       222.2500  24.0000  17.2500 Du        
     27 ****       222.5000  22.7500  17.5000 Du        
     28 ****       222.5000  23.0000  17.2500 Du        
     29 ****       222.5000  23.0000  17.5000 Du        
     30 ****       222.5000  23.0000  17.7500 Du        
     31 ****       222.5000  23.2500  17.2500 Du        
     32 ****       222.5000  23.2500  17.5000 Du        
     33 ****       222.5000  23.2500  17.7500 Du        
     34 ****       222.5000  23.5000  17.5000 Du        
     35 ****       222.5000  23.5000  17.7500 Du        
     36 ****       222.5000  23.5000  18.0000 Du        
     37 ****       222.5000  23.7500  17.2500 Du        
     38 ****       222.5000  23.7500  17.5000 Du        
     39 ****       222.5000  23.7500  17.7500 Du        
     40 ****       222.5000  23.7500  18.0000 Du        
     41 ****       222.5000  24.0000  17.2500 Du        
     42 ****       222.5000  26.5000  13.0000 Du        
     43 ****       222.5000  26.5000  13.2500 Du        
     44 ****       222.5000  26.7500  12.7500 Du        
     45 ****       222.7500  22.2500  17.2500 Du        
     46 ****       222.7500  22.5000  17.5000 Du        
     47 ****       222.7500  22.7500  17.5000 Du        
     48 ****       222.7500  22.7500  17.7500 Du        
     49 ****       222.7500  23.0000  17.0000 Du        
     50 ****       222.7500  23.0000  17.2500 Du        
     51 ****       222.7500  23.0000  17.5000 Du        
     52 ****       222.7500  23.0000  17.7500 Du        
     53 ****       222.7500  23.0000  18.0000 Du        
     54 ****       222.7500  23.2500  17.2500 Du        
     55 ****       222.7500  23.2500  17.5000 Du        
     56 ****       222.7500  23.2500  17.7500 Du        
     57 ****       222.7500  23.2500  18.0000 Du        
     58 ****       222.7500  23.5000  17.5000 Du        
     59 ****       222.7500  23.5000  17.7500 Du        
     60 ****       222.7500  23.5000  18.0000 Du        
     61 ****       222.7500  23.5000  18.2500 Du        
     62 ****       222.7500  23.7500  17.2500 Du        
     63 ****       222.7500  23.7500  17.5000 Du        
     64 ****       222.7500  23.7500  17.7500 Du        
     65 ****       222.7500  23.7500  18.0000 Du        
     66 ****       222.7500  23.7500  18.2500 Du        
     67 ****       222.7500  24.0000  17.2500 Du        
     68 ****       222.7500  24.0000  17.5000 Du        
     69 ****       222.7500  24.0000  17.7500 Du        
     70 ****       222.7500  24.0000  18.0000 Du        
     71 ****       222.7500  25.2500  13.0000 Du        
     72 ****       222.7500  25.2500  13.2500 Du        
     73 ****       222.7500  25.5000  12.7500 Du        
     74 ****       222.7500  25.5000  13.0000 Du        
     75 ****       222.7500  25.5000  13.2500 Du        
     76 ****       222.7500  25.5000  13.7500 Du        
     77 ****       222.7500  25.5000  14.0000 Du        
     78 ****       222.7500  25.7500  12.7500 Du        
     79 ****       222.7500  25.7500  13.0000 Du        
     80 ****       222.7500  25.7500  13.2500 Du        
     81 ****       222.7500  25.7500  13.5000 Du        
     82 ****       222.7500  25.7500  13.7500 Du        
     83 ****       222.7500  25.7500  14.0000 Du        
     84 ****       222.7500  25.7500  14.2500 Du        
     85 ****       222.7500  25.7500  14.7500 Du        
     86 ****       222.7500  25.7500  15.0000 Du        
     87 ****       222.7500  26.0000  12.7500 Du        
     88 ****       222.7500  26.0000  13.0000 Du        
     89 ****       222.7500  26.0000  13.2500 Du        
     90 ****       222.7500  26.0000  13.5000 Du        
     91 ****       222.7500  26.0000  13.7500 Du        
     92 ****       222.7500  26.0000  14.0000 Du        
     93 ****       222.7500  26.0000  14.2500 Du        
     94 ****       222.7500  26.0000  14.7500 Du        
     95 ****       222.7500  26.0000  15.0000 Du        
     96 ****       222.7500  26.0000  15.2500 Du        
     97 ****       222.7500  26.2500  12.5000 Du        
     98 ****       222.7500  26.2500  12.7500 Du        
     99 ****       222.7500  26.2500  13.0000 Du        
    100 ****       222.7500  26.2500  13.2500 Du        
    101 ****       222.7500  26.2500  13.5000 Du        
    102 ****       222.7500  26.2500  13.7500 Du        
    103 ****       222.7500  26.2500  14.0000 Du        
    104 ****       222.7500  26.2500  14.2500 Du        
    105 ****       222.7500  26.5000  12.2500 Du        
    106 ****       222.7500  26.5000  12.5000 Du        
    107 ****       222.7500  26.5000  12.7500 Du        
    108 ****       222.7500  26.5000  13.0000 Du        
    109 ****       222.7500  26.5000  13.2500 Du        
    110 ****       222.7500  26.5000  13.5000 Du        
    111 ****       222.7500  26.5000  13.7500 Du        
    112 ****       222.7500  26.5000  14.0000 Du        
    113 ****       222.7500  26.7500  12.2500 Du        
    114 ****       222.7500  26.7500  12.5000 Du        
    115 ****       222.7500  26.7500  12.7500 Du        
    116 ****       222.7500  26.7500  13.0000 Du        
    117 ****       222.7500  26.7500  13.2500 Du        
    118 ****       222.7500  26.7500  13.5000 Du        
    119 ****       222.7500  27.0000  12.2500 Du        
    120 ****       222.7500  27.0000  12.5000 Du        
    121 ****       222.7500  27.0000  12.7500 Du        
    122 ****       222.7500  27.0000  13.0000 Du        
    123 ****       222.7500  27.0000  13.2500 Du        
    124 ****       222.7500  27.2500  12.7500 Du        
    125 ****       223.0000  22.0000  17.0000 Du        
    126 ****       223.0000  22.0000  17.2500 Du        
    127 ****       223.0000  22.2500  17.2500 Du        
    128 ****       223.0000  22.2500  17.5000 Du        
    129 ****       223.0000  22.5000  17.5000 Du        
    130 ****       223.0000  22.7500  17.2500 Du        
    131 ****       223.0000  22.7500  17.5000 Du        
    132 ****       223.0000  22.7500  17.7500 Du        
    133 ****       223.0000  22.7500  18.0000 Du        
    134 ****       223.0000  23.0000  17.2500 Du        
    135 ****       223.0000  23.0000  17.5000 Du        
    136 ****       223.0000  23.0000  17.7500 Du        
    137 ****       223.0000  23.0000  18.0000 Du        
    138 ****       223.0000  23.0000  18.2500 Du        
    139 ****       223.0000  23.2500  17.2500 Du        
    140 ****       223.0000  23.2500  17.5000 Du        
    141 ****       223.0000  23.2500  17.7500 Du        
    142 ****       223.0000  23.2500  18.0000 Du        
    143 ****       223.0000  23.2500  18.2500 Du        
    144 ****       223.0000  23.2500  18.5000 Du        
    145 ****       223.0000  23.5000  17.2500 Du        
    146 ****       223.0000  23.5000  17.5000 Du        
    147 ****       223.0000  23.5000  17.7500 Du        
    148 ****       223.0000  23.5000  18.0000 Du        
    149 ****       223.0000  23.5000  18.2500 Du        
    150 ****       223.0000  23.5000  18.5000 Du        
    151 ****       223.0000  23.7500  17.2500 Du        
    152 ****       223.0000  23.7500  17.5000 Du        
    153 ****       223.0000  23.7500  17.7500 Du        
    154 ****       223.0000  23.7500  18.0000 Du        
    155 ****       223.0000  23.7500  18.2500 Du        
    156 ****       223.0000  23.7500  18.5000 Du        
    157 ****       223.0000  24.0000  17.2500 Du        
    158 ****       223.0000  24.0000  17.5000 Du        
    159 ****       223.0000  24.0000  17.7500 Du        
    160 ****       223.0000  24.0000  18.0000 Du        
    161 ****       223.0000  24.0000  18.2500 Du        
    162 ****       223.0000  24.2500  17.5000 Du        
    163 ****       223.0000  24.7500  13.0000 Du        
    164 ****       223.0000  24.7500  13.2500 Du        
    165 ****       223.0000  25.0000  12.7500 Du        
    166 ****       223.0000  25.0000  13.0000 Du        
    167 ****       223.0000  25.0000  13.2500 Du        
    168 ****       223.0000  25.2500  12.7500 Du        
    169 ****       223.0000  25.2500  13.0000 Du        
    170 ****       223.0000  25.2500  13.2500 Du        
    171 ****       223.0000  25.5000  12.2500 Du        
    172 ****       223.0000  25.5000  12.5000 Du        
    173 ****       223.0000  25.5000  12.7500 Du        
    174 ****       223.0000  25.5000  13.0000 Du        
    175 ****       223.0000  25.5000  13.2500 Du        
    176 ****       223.0000  25.5000  13.5000 Du        
    177 ****       223.0000  25.5000  13.7500 Du        
    178 ****       223.0000  25.5000  14.0000 Du        
    179 ****       223.0000  25.7500  12.2500 Du        
    180 ****       223.0000  25.7500  12.5000 Du        
    181 ****       223.0000  25.7500  12.7500 Du        
    182 ****       223.0000  25.7500  13.0000 Du        
    183 ****       223.0000  25.7500  13.2500 Du        
    184 ****       223.0000  25.7500  13.5000 Du        
    185 ****       223.0000  25.7500  13.7500 Du        
    186 ****       223.0000  25.7500  14.0000 Du        
    187 ****       223.0000  25.7500  14.2500 Du        
    188 ****       223.0000  25.7500  14.5000 Du        
    189 ****       223.0000  25.7500  14.7500 Du        
    190 ****       223.0000  26.0000  12.2500 Du        
    191 ****       223.0000  26.0000  12.5000 Du        
    192 ****       223.0000  26.0000  12.7500 Du        
    193 ****       223.0000  26.0000  13.0000 Du        
    194 ****       223.0000  26.0000  13.2500 Du        
    195 ****       223.0000  26.0000  13.5000 Du        
    196 ****       223.0000  26.0000  13.7500 Du        
    197 ****       223.0000  26.0000  14.0000 Du        
    198 ****       223.0000  26.0000  14.2500 Du        
    199 ****       223.0000  26.0000  14.5000 Du        
    200 ****       223.0000  26.0000  14.7500 Du        
    201 ****       223.0000  26.0000  15.0000 Du        
    202 ****       223.0000  26.0000  15.2500 Du        
    203 ****       223.0000  26.2500  12.2500 Du        
    204 ****       223.0000  26.2500  12.5000 Du        
    205 ****       223.0000  26.2500  12.7500 Du        
    206 ****       223.0000  26.2500  13.0000 Du        
    207 ****       223.0000  26.2500  13.2500 Du        
    208 ****       223.0000  26.2500  13.5000 Du        
    209 ****       223.0000  26.2500  13.7500 Du        
    210 ****       223.0000  26.2500  14.0000 Du        
    211 ****       223.0000  26.2500  14.2500 Du        
    212 ****       223.0000  26.2500  14.5000 Du        
    213 ****       223.0000  26.2500  14.7500 Du        
    214 ****       223.0000  26.2500  15.0000 Du        
    215 ****       223.0000  26.2500  15.2500 Du        
    216 ****       223.0000  26.5000  12.2500 Du        
    217 ****       223.0000  26.5000  12.5000 Du        
    218 ****       223.0000  26.5000  12.7500 Du        
    219 ****       223.0000  26.5000  13.0000 Du        
    220 ****       223.0000  26.5000  13.2500 Du        
    221 ****       223.0000  26.5000  13.5000 Du        
    222 ****       223.0000  26.5000  13.7500 Du        
    223 ****       223.0000  26.5000  14.0000 Du        
    224 ****       223.0000  26.5000  14.2500 Du        
    225 ****       223.0000  26.5000  14.5000 Du        
    226 ****       223.0000  26.5000  14.7500 Du        
    227 ****       223.0000  26.5000  15.0000 Du        
    228 ****       223.0000  26.5000  15.2500 Du        
    229 ****       223.0000  26.5000  15.5000 Du        
    230 ****       223.0000  26.5000  15.7500 Du        
    231 ****       223.0000  26.7500  12.2500 Du        
    232 ****       223.0000  26.7500  12.5000 Du        
    233 ****       223.0000  26.7500  12.7500 Du        
    234 ****       223.0000  26.7500  13.0000 Du        
    235 ****       223.0000  26.7500  13.2500 Du        
    236 ****       223.0000  26.7500  13.5000 Du        
    237 ****       223.0000  26.7500  13.7500 Du        
    238 ****       223.0000  26.7500  14.0000 Du        
    239 ****       223.0000  26.7500  14.2500 Du        
    240 ****       223.0000  26.7500  15.0000 Du        
    241 ****       223.0000  26.7500  15.2500 Du        
    242 ****       223.0000  26.7500  15.5000 Du        
    243 ****       223.0000  26.7500  15.7500 Du        
    244 ****       223.0000  27.0000  12.2500 Du        
    245 ****       223.0000  27.0000  12.5000 Du        
    246 ****       223.0000  27.0000  12.7500 Du        
    247 ****       223.0000  27.0000  13.0000 Du        
    248 ****       223.0000  27.0000  13.2500 Du        
    249 ****       223.0000  27.0000  13.5000 Du        
    250 ****       223.0000  27.0000  13.7500 Du        
    251 ****       223.0000  27.0000  14.0000 Du        
    252 ****       223.0000  27.0000  15.2500 Du        
    253 ****       223.0000  27.0000  15.5000 Du        
    254 ****       223.0000  27.0000  15.7500 Du        
    255 ****       223.0000  27.2500  12.5000 Du        
    256 ****       223.0000  27.2500  12.7500 Du        
    257 ****       223.0000  27.2500  13.0000 Du        
    258 ****       223.0000  27.2500  13.2500 Du        
    259 ****       223.2500  22.0000  17.0000 Du        
    260 ****       223.2500  22.0000  17.2500 Du        
    261 ****       223.2500  22.0000  17.5000 Du        
    262 ****       223.2500  22.2500  17.2500 Du        
    263 ****       223.2500  22.2500  17.5000 Du        
    264 ****       223.2500  22.2500  17.7500 Du        
    265 ****       223.2500  22.5000  17.5000 Du        
    266 ****       223.2500  22.5000  17.7500 Du        
    267 ****       223.2500  22.7500  17.2500 Du        
    268 ****       223.2500  22.7500  17.5000 Du        
    269 ****       223.2500  22.7500  17.7500 Du        
    270 ****       223.2500  22.7500  18.0000 Du        
    271 ****       223.2500  23.0000  17.2500 Du        
    272 ****       223.2500  23.0000  17.5000 Du        
    273 ****       223.2500  23.0000  17.7500 Du        
    274 ****       223.2500  23.0000  18.0000 Du        
    275 ****       223.2500  23.0000  18.2500 Du        
    276 ****       223.2500  23.0000  18.5000 Du        
    277 ****       223.2500  23.2500  17.2500 Du        
    278 ****       223.2500  23.2500  17.5000 Du        
    279 ****       223.2500  23.2500  17.7500 Du        
    280 ****       223.2500  23.2500  18.0000 Du        
    281 ****       223.2500  23.2500  18.2500 Du        
    282 ****       223.2500  23.2500  18.5000 Du        
    283 ****       223.2500  23.5000  17.2500 Du        
    284 ****       223.2500  23.5000  17.5000 Du        
    285 ****       223.2500  23.5000  17.7500 Du        
    286 ****       223.2500  23.5000  18.0000 Du        
    287 ****       223.2500  23.5000  18.2500 Du        
    288 ****       223.2500  23.5000  18.5000 Du        
    289 ****       223.2500  23.5000  18.7500 Du        
    290 ****       223.2500  23.7500  17.2500 Du        
    291 ****       223.2500  23.7500  17.5000 Du        
    292 ****       223.2500  23.7500  17.7500 Du        
    293 ****       223.2500  23.7500  18.0000 Du        
    294 ****       223.2500  23.7500  18.2500 Du        
    295 ****       223.2500  23.7500  18.5000 Du        
    296 ****       223.2500  23.7500  18.7500 Du        
    297 ****       223.2500  24.0000  17.2500 Du        
    298 ****       223.2500  24.0000  17.5000 Du        
    299 ****       223.2500  24.0000  17.7500 Du        
    300 ****       223.2500  24.0000  18.0000 Du        
    301 ****       223.2500  24.0000  18.2500 Du        
    302 ****       223.2500  24.0000  18.5000 Du        
    303 ****       223.2500  24.2500  17.5000 Du        
    304 ****       223.2500  24.2500  17.7500 Du        
    305 ****       223.2500  24.2500  18.0000 Du        
    306 ****       223.2500  24.7500  12.7500 Du        
    307 ****       223.2500  24.7500  13.0000 Du        
    308 ****       223.2500  25.0000  12.5000 Du        
    309 ****       223.2500  25.0000  12.7500 Du        
    310 ****       223.2500  25.0000  13.0000 Du        
    311 ****       223.2500  25.0000  13.2500 Du        
    312 ****       223.2500  25.2500  12.2500 Du        
    313 ****       223.2500  25.2500  12.5000 Du        
    314 ****       223.2500  25.2500  12.7500 Du        
    315 ****       223.2500  25.2500  13.0000 Du        
    316 ****       223.2500  25.2500  13.2500 Du        
    317 ****       223.2500  25.5000  12.0000 Du        
    318 ****       223.2500  25.5000  12.2500 Du        
    319 ****       223.2500  25.5000  12.5000 Du        
    320 ****       223.2500  25.5000  12.7500 Du        
    321 ****       223.2500  25.5000  13.0000 Du        
    322 ****       223.2500  25.5000  13.2500 Du        
    323 ****       223.2500  25.5000  13.5000 Du        
    324 ****       223.2500  25.5000  13.7500 Du        
    325 ****       223.2500  25.7500  12.0000 Du        
    326 ****       223.2500  25.7500  12.2500 Du        
    327 ****       223.2500  25.7500  12.5000 Du        
    328 ****       223.2500  25.7500  12.7500 Du        
    329 ****       223.2500  25.7500  13.0000 Du        
    330 ****       223.2500  25.7500  13.2500 Du        
    331 ****       223.2500  25.7500  13.5000 Du        
    332 ****       223.2500  25.7500  13.7500 Du        
    333 ****       223.2500  25.7500  14.0000 Du        
    334 ****       223.2500  25.7500  14.2500 Du        
    335 ****       223.2500  25.7500  14.5000 Du        
    336 ****       223.2500  25.7500  14.7500 Du        
    337 ****       223.2500  26.0000  12.0000 Du        
    338 ****       223.2500  26.0000  12.2500 Du        
    339 ****       223.2500  26.0000  12.5000 Du        
    340 ****       223.2500  26.0000  12.7500 Du        
    341 ****       223.2500  26.0000  13.0000 Du        
    342 ****       223.2500  26.0000  13.2500 Du        
    343 ****       223.2500  26.0000  13.5000 Du        
    344 ****       223.2500  26.0000  13.7500 Du        
    345 ****       223.2500  26.0000  14.0000 Du        
    346 ****       223.2500  26.0000  14.2500 Du        
    347 ****       223.2500  26.0000  14.5000 Du        
    348 ****       223.2500  26.0000  14.7500 Du        
    349 ****       223.2500  26.0000  15.0000 Du        
    350 ****       223.2500  26.0000  15.2500 Du        
    351 ****       223.2500  26.2500  12.0000 Du        
    352 ****       223.2500  26.2500  12.2500 Du        
    353 ****       223.2500  26.2500  12.5000 Du        
    354 ****       223.2500  26.2500  12.7500 Du        
    355 ****       223.2500  26.2500  13.0000 Du        
    356 ****       223.2500  26.2500  13.2500 Du        
    357 ****       223.2500  26.2500  13.5000 Du        
    358 ****       223.2500  26.2500  13.7500 Du        
    359 ****       223.2500  26.2500  14.0000 Du        
    360 ****       223.2500  26.2500  14.2500 Du        
    361 ****       223.2500  26.2500  14.5000 Du        
    362 ****       223.2500  26.2500  14.7500 Du        
    363 ****       223.2500  26.2500  15.0000 Du        
    364 ****       223.2500  26.2500  15.2500 Du        
    365 ****       223.2500  26.5000  12.2500 Du        
    366 ****       223.2500  26.5000  12.5000 Du        
    367 ****       223.2500  26.5000  12.7500 Du        
    368 ****       223.2500  26.5000  13.0000 Du        
    369 ****       223.2500  26.5000  13.2500 Du        
    370 ****       223.2500  26.5000  13.5000 Du        
    371 ****       223.2500  26.5000  13.7500 Du        
    372 ****       223.2500  26.5000  14.0000 Du        
    373 ****       223.2500  26.5000  14.2500 Du        
    374 ****       223.2500  26.5000  14.5000 Du        
    375 ****       223.2500  26.5000  14.7500 Du        
    376 ****       223.2500  26.5000  15.0000 Du        
    377 ****       223.2500  26.5000  15.2500 Du        
    378 ****       223.2500  26.5000  15.5000 Du        
    379 ****       223.2500  26.7500  12.2500 Du        
    380 ****       223.2500  26.7500  12.5000 Du        
    381 ****       223.2500  26.7500  12.7500 Du        
    382 ****       223.2500  26.7500  13.0000 Du        
    383 ****       223.2500  26.7500  13.2500 Du        
    384 ****       223.2500  26.7500  13.5000 Du        
    385 ****       223.2500  26.7500  13.7500 Du        
    386 ****       223.2500  26.7500  14.0000 Du        
    387 ****       223.2500  26.7500  14.2500 Du        
    388 ****       223.2500  26.7500  14.5000 Du        
    389 ****       223.2500  26.7500  14.7500 Du        
    390 ****       223.2500  26.7500  15.0000 Du        
    391 ****       223.2500  26.7500  15.2500 Du        
    392 ****       223.2500  26.7500  15.5000 Du        
    393 ****       223.2500  27.0000  12.2500 Du        
    394 ****       223.2500  27.0000  12.5000 Du        
    395 ****       223.2500  27.0000  12.7500 Du        
    396 ****       223.2500  27.0000  13.0000 Du        
    397 ****       223.2500  27.0000  13.2500 Du        
    398 ****       223.2500  27.0000  13.5000 Du        
    399 ****       223.2500  27.0000  13.7500 Du        
    400 ****       223.2500  27.0000  14.0000 Du        
    401 ****       223.2500  27.0000  14.2500 Du        
    402 ****       223.2500  27.0000  14.5000 Du        
    403 ****       223.2500  27.0000  14.7500 Du        
    404 ****       223.2500  27.0000  15.0000 Du        
    405 ****       223.2500  27.0000  15.2500 Du        
    406 ****       223.2500  27.0000  15.5000 Du        
    407 ****       223.2500  27.2500  12.5000 Du        
    408 ****       223.2500  27.2500  12.7500 Du        
    409 ****       223.2500  27.2500  13.0000 Du        
    410 ****       223.2500  27.2500  13.2500 Du        
    411 ****       223.2500  27.2500  13.5000 Du        
    412 ****       223.2500  27.2500  13.7500 Du        
    413 ****       223.2500  27.2500  14.0000 Du        
    414 ****       223.2500  27.2500  14.7500 Du        
    415 ****       223.2500  27.2500  15.0000 Du        
    416 ****       223.2500  27.2500  15.2500 Du        
    417 ****       223.2500  27.2500  15.5000 Du        
    418 ****       223.2500  27.5000  15.0000 Du        
    419 ****       223.2500  27.5000  15.2500 Du        
    420 ****       223.2500  27.5000  15.5000 Du        
    421 ****       223.5000  21.7500  17.2500 Du        
    422 ****       223.5000  22.0000  17.2500 Du        
    423 ****       223.5000  22.0000  17.5000 Du        
    424 ****       223.5000  22.2500  17.2500 Du        
    425 ****       223.5000  22.2500  17.5000 Du        
    426 ****       223.5000  22.2500  17.7500 Du        
    427 ****       223.5000  22.5000  17.5000 Du        
    428 ****       223.5000  22.5000  17.7500 Du        
    429 ****       223.5000  22.5000  18.0000 Du        
    430 ****       223.5000  22.7500  17.2500 Du        
    431 ****       223.5000  22.7500  17.5000 Du        
    432 ****       223.5000  22.7500  17.7500 Du        
    433 ****       223.5000  22.7500  18.0000 Du        
    434 ****       223.5000  22.7500  18.2500 Du        
    435 ****       223.5000  23.0000  17.2500 Du        
    436 ****       223.5000  23.0000  17.5000 Du        
    437 ****       223.5000  23.0000  17.7500 Du        
    438 ****       223.5000  23.0000  18.0000 Du        
    439 ****       223.5000  23.0000  18.2500 Du        
    440 ****       223.5000  23.0000  18.5000 Du        
    441 ****       223.5000  23.2500  17.2500 Du        
    442 ****       223.5000  23.2500  17.5000 Du        
    443 ****       223.5000  23.2500  17.7500 Du        
    444 ****       223.5000  23.2500  18.0000 Du        
    445 ****       223.5000  23.2500  18.2500 Du        
    446 ****       223.5000  23.2500  18.5000 Du        
    447 ****       223.5000  23.2500  18.7500 Du        
    448 ****       223.5000  23.5000  17.2500 Du        
    449 ****       223.5000  23.5000  17.5000 Du        
    450 ****       223.5000  23.5000  17.7500 Du        
    451 ****       223.5000  23.5000  18.0000 Du        
    452 ****       223.5000  23.5000  18.2500 Du        
    453 ****       223.5000  23.5000  18.5000 Du        
    454 ****       223.5000  23.5000  18.7500 Du        
    455 ****       223.5000  23.7500  17.2500 Du        
    456 ****       223.5000  23.7500  17.5000 Du        
    457 ****       223.5000  23.7500  17.7500 Du        
    458 ****       223.5000  23.7500  18.0000 Du        
    459 ****       223.5000  23.7500  18.2500 Du        
    460 ****       223.5000  23.7500  18.5000 Du        
    461 ****       223.5000  23.7500  18.7500 Du        
    462 ****       223.5000  23.7500  19.0000 Du        
    463 ****       223.5000  24.0000  17.2500 Du        
    464 ****       223.5000  24.0000  17.5000 Du        
    465 ****       223.5000  24.0000  17.7500 Du        
    466 ****       223.5000  24.0000  18.0000 Du        
    467 ****       223.5000  24.0000  18.2500 Du        
    468 ****       223.5000  24.0000  18.5000 Du        
    469 ****       223.5000  24.0000  18.7500 Du        
    470 ****       223.5000  24.2500  17.5000 Du        
    471 ****       223.5000  24.2500  17.7500 Du        
    472 ****       223.5000  24.2500  18.0000 Du        
    473 ****       223.5000  24.2500  18.2500 Du        
    474 ****       223.5000  24.7500  13.0000 Du        
    475 ****       223.5000  25.0000  12.2500 Du        
    476 ****       223.5000  25.0000  12.5000 Du        
    477 ****       223.5000  25.0000  12.7500 Du        
    478 ****       223.5000  25.0000  13.0000 Du        
    479 ****       223.5000  25.0000  13.2500 Du        
    480 ****       223.5000  25.2500  12.2500 Du        
    481 ****       223.5000  25.2500  12.5000 Du        
    482 ****       223.5000  25.2500  12.7500 Du        
    483 ****       223.5000  25.2500  13.0000 Du        
    484 ****       223.5000  25.2500  13.2500 Du        
    485 ****       223.5000  25.5000  12.0000 Du        
    486 ****       223.5000  25.5000  12.2500 Du        
    487 ****       223.5000  25.5000  12.5000 Du        
    488 ****       223.5000  25.5000  12.7500 Du        
    489 ****       223.5000  25.5000  13.0000 Du        
    490 ****       223.5000  25.5000  13.2500 Du        
    491 ****       223.5000  25.5000  13.5000 Du        
    492 ****       223.5000  25.5000  13.7500 Du        
    493 ****       223.5000  25.7500  12.0000 Du        
    494 ****       223.5000  25.7500  12.2500 Du        
    495 ****       223.5000  25.7500  12.5000 Du        
    496 ****       223.5000  25.7500  12.7500 Du        
    497 ****       223.5000  25.7500  13.0000 Du        
    498 ****       223.5000  25.7500  13.2500 Du        
    499 ****       223.5000  25.7500  13.5000 Du        
    500 ****       223.5000  25.7500  13.7500 Du        
    501 ****       223.5000  25.7500  14.0000 Du        
    502 ****       223.5000  26.0000  12.2500 Du        
    503 ****       223.5000  26.0000  12.5000 Du        
    504 ****       223.5000  26.0000  12.7500 Du        
    505 ****       223.5000  26.0000  13.0000 Du        
    506 ****       223.5000  26.0000  13.2500 Du        
    507 ****       223.5000  26.0000  13.5000 Du        
    508 ****       223.5000  26.0000  13.7500 Du        
    509 ****       223.5000  26.0000  14.0000 Du        
    510 ****       223.5000  26.0000  14.2500 Du        
    511 ****       223.5000  26.0000  14.5000 Du        
    512 ****       223.5000  26.0000  14.7500 Du        
    513 ****       223.5000  26.0000  15.0000 Du        
    514 ****       223.5000  26.0000  15.2500 Du        
    515 ****       223.5000  26.2500  12.2500 Du        
    516 ****       223.5000  26.2500  12.5000 Du        
    517 ****       223.5000  26.2500  12.7500 Du        
    518 ****       223.5000  26.2500  13.0000 Du        
    519 ****       223.5000  26.2500  13.2500 Du        
    520 ****       223.5000  26.2500  13.5000 Du        
    521 ****       223.5000  26.2500  13.7500 Du        
    522 ****       223.5000  26.2500  14.0000 Du        
    523 ****       223.5000  26.2500  14.2500 Du        
    524 ****       223.5000  26.2500  14.5000 Du        
    525 ****       223.5000  26.2500  14.7500 Du        
    526 ****       223.5000  26.2500  15.0000 Du        
    527 ****       223.5000  26.2500  15.2500 Du        
    528 ****       223.5000  26.5000  12.2500 Du        
    529 ****       223.5000  26.5000  12.5000 Du        
    530 ****       223.5000  26.5000  12.7500 Du        
    531 ****       223.5000  26.5000  13.0000 Du        
    532 ****       223.5000  26.5000  13.2500 Du        
    533 ****       223.5000  26.5000  13.5000 Du        
    534 ****       223.5000  26.5000  13.7500 Du        
    535 ****       223.5000  26.5000  14.0000 Du        
    536 ****       223.5000  26.5000  14.2500 Du        
    537 ****       223.5000  26.5000  14.5000 Du        
    538 ****       223.5000  26.5000  14.7500 Du        
    539 ****       223.5000  26.5000  15.0000 Du        
    540 ****       223.5000  26.5000  15.2500 Du        
    541 ****       223.5000  26.7500  12.2500 Du        
    542 ****       223.5000  26.7500  12.5000 Du        
    543 ****       223.5000  26.7500  12.7500 Du        
    544 ****       223.5000  26.7500  13.0000 Du        
    545 ****       223.5000  26.7500  13.2500 Du        
    546 ****       223.5000  26.7500  13.5000 Du        
    547 ****       223.5000  26.7500  13.7500 Du        
    548 ****       223.5000  26.7500  14.0000 Du        
    549 ****       223.5000  26.7500  14.2500 Du        
    550 ****       223.5000  26.7500  14.5000 Du        
    551 ****       223.5000  26.7500  14.7500 Du        
    552 ****       223.5000  26.7500  15.0000 Du        
    553 ****       223.5000  26.7500  15.2500 Du        
    554 ****       223.5000  27.0000  12.5000 Du        
    555 ****       223.5000  27.0000  12.7500 Du        
    556 ****       223.5000  27.0000  13.0000 Du        
    557 ****       223.5000  27.0000  13.2500 Du        
    558 ****       223.5000  27.0000  13.5000 Du        
    559 ****       223.5000  27.0000  13.7500 Du        
    560 ****       223.5000  27.0000  14.0000 Du        
    561 ****       223.5000  27.0000  14.2500 Du        
    562 ****       223.5000  27.0000  14.5000 Du        
    563 ****       223.5000  27.0000  14.7500 Du        
    564 ****       223.5000  27.0000  15.0000 Du        
    565 ****       223.5000  27.0000  15.2500 Du        
    566 ****       223.5000  27.2500  13.7500 Du        
    567 ****       223.5000  27.2500  14.0000 Du        
    568 ****       223.5000  27.2500  14.2500 Du        
    569 ****       223.5000  27.2500  14.5000 Du        
    570 ****       223.5000  27.2500  14.7500 Du        
    571 ****       223.5000  27.2500  15.0000 Du        
    572 ****       223.5000  27.2500  15.2500 Du        
    573 ****       223.5000  27.5000  14.7500 Du        
    574 ****       223.5000  27.5000  15.0000 Du        
    575 ****       223.5000  27.5000  15.2500 Du        
    576 ****       223.5000  27.7500  15.0000 Du        
    577 ****       223.5000  27.7500  15.2500 Du        
    578 ****       223.7500  21.7500  17.2500 Du        
    579 ****       223.7500  22.0000  17.2500 Du        
    580 ****       223.7500  22.0000  17.5000 Du        
    581 ****       223.7500  22.2500  17.2500 Du        
    582 ****       223.7500  22.2500  17.5000 Du        
    583 ****       223.7500  22.5000  17.5000 Du        
    584 ****       223.7500  22.5000  17.7500 Du        
    585 ****       223.7500  22.7500  17.2500 Du        
    586 ****       223.7500  22.7500  17.5000 Du        
    587 ****       223.7500  22.7500  17.7500 Du        
    588 ****       223.7500  22.7500  18.0000 Du        
    589 ****       223.7500  23.0000  17.2500 Du        
    590 ****       223.7500  23.0000  17.5000 Du        
    591 ****       223.7500  23.0000  17.7500 Du        
    592 ****       223.7500  23.0000  18.0000 Du        
    593 ****       223.7500  23.0000  18.2500 Du        
    594 ****       223.7500  23.0000  18.5000 Du        
    595 ****       223.7500  23.2500  17.2500 Du        
    596 ****       223.7500  23.2500  17.5000 Du        
    597 ****       223.7500  23.2500  17.7500 Du        
    598 ****       223.7500  23.2500  18.0000 Du        
    599 ****       223.7500  23.2500  18.2500 Du        
    600 ****       223.7500  23.2500  18.5000 Du        
    601 ****       223.7500  23.5000  17.2500 Du        
    602 ****       223.7500  23.5000  17.5000 Du        
    603 ****       223.7500  23.5000  17.7500 Du        
    604 ****       223.7500  23.5000  18.0000 Du        
    605 ****       223.7500  23.5000  18.2500 Du        
    606 ****       223.7500  23.5000  18.5000 Du        
    607 ****       223.7500  23.5000  18.7500 Du        
    608 ****       223.7500  23.7500  17.2500 Du        
    609 ****       223.7500  23.7500  17.5000 Du        
    610 ****       223.7500  23.7500  17.7500 Du        
    611 ****       223.7500  23.7500  18.0000 Du        
    612 ****       223.7500  23.7500  18.2500 Du        
    613 ****       223.7500  23.7500  18.5000 Du        
    614 ****       223.7500  23.7500  18.7500 Du        
    615 ****       223.7500  23.7500  19.0000 Du        
    616 ****       223.7500  24.0000  17.2500 Du        
    617 ****       223.7500  24.0000  17.5000 Du        
    618 ****       223.7500  24.0000  17.7500 Du        
    619 ****       223.7500  24.0000  18.0000 Du        
    620 ****       223.7500  24.0000  18.2500 Du        
    621 ****       223.7500  24.0000  18.5000 Du        
    622 ****       223.7500  24.0000  18.7500 Du        
    623 ****       223.7500  24.0000  19.0000 Du        
    624 ****       223.7500  24.2500  17.2500 Du        
    625 ****       223.7500  24.2500  17.5000 Du        
    626 ****       223.7500  24.2500  17.7500 Du        
    627 ****       223.7500  24.2500  18.0000 Du        
    628 ****       223.7500  24.2500  18.2500 Du        
    629 ****       223.7500  24.2500  18.5000 Du        
    630 ****       223.7500  24.5000  17.5000 Du        
    631 ****       223.7500  25.0000  12.2500 Du        
    632 ****       223.7500  25.0000  12.5000 Du        
    633 ****       223.7500  25.0000  12.7500 Du        
    634 ****       223.7500  25.0000  13.0000 Du        
    635 ****       223.7500  25.0000  13.2500 Du        
    636 ****       223.7500  25.2500  12.2500 Du        
    637 ****       223.7500  25.2500  12.5000 Du        
    638 ****       223.7500  25.2500  12.7500 Du        
    639 ****       223.7500  25.2500  13.0000 Du        
    640 ****       223.7500  25.2500  13.2500 Du        
    641 ****       223.7500  25.5000  12.2500 Du        
    642 ****       223.7500  25.5000  12.5000 Du        
    643 ****       223.7500  25.5000  12.7500 Du        
    644 ****       223.7500  25.5000  13.0000 Du        
    645 ****       223.7500  25.5000  13.2500 Du        
    646 ****       223.7500  25.5000  13.5000 Du        
    647 ****       223.7500  25.7500  12.2500 Du        
    648 ****       223.7500  25.7500  12.5000 Du        
    649 ****       223.7500  25.7500  12.7500 Du        
    650 ****       223.7500  25.7500  13.0000 Du        
    651 ****       223.7500  25.7500  13.2500 Du        
    652 ****       223.7500  25.7500  13.5000 Du        
    653 ****       223.7500  25.7500  13.7500 Du        
    654 ****       223.7500  25.7500  14.0000 Du        
    655 ****       223.7500  25.7500  14.2500 Du        
    656 ****       223.7500  26.0000  12.2500 Du        
    657 ****       223.7500  26.0000  12.5000 Du        
    658 ****       223.7500  26.0000  12.7500 Du        
    659 ****       223.7500  26.0000  13.0000 Du        
    660 ****       223.7500  26.0000  13.2500 Du        
    661 ****       223.7500  26.0000  13.5000 Du        
    662 ****       223.7500  26.0000  13.7500 Du        
    663 ****       223.7500  26.0000  14.0000 Du        
    664 ****       223.7500  26.0000  14.2500 Du        
    665 ****       223.7500  26.0000  14.5000 Du        
    666 ****       223.7500  26.0000  14.7500 Du        
    667 ****       223.7500  26.0000  15.0000 Du        
    668 ****       223.7500  26.2500  12.5000 Du        
    669 ****       223.7500  26.2500  12.7500 Du        
    670 ****       223.7500  26.2500  13.0000 Du        
    671 ****       223.7500  26.2500  13.2500 Du        
    672 ****       223.7500  26.2500  13.5000 Du        
    673 ****       223.7500  26.2500  13.7500 Du        
    674 ****       223.7500  26.2500  14.0000 Du        
    675 ****       223.7500  26.2500  14.2500 Du        
    676 ****       223.7500  26.2500  14.5000 Du        
    677 ****       223.7500  26.2500  14.7500 Du        
    678 ****       223.7500  26.2500  15.0000 Du        
    679 ****       223.7500  26.5000  12.5000 Du        
    680 ****       223.7500  26.5000  12.7500 Du        
    681 ****       223.7500  26.5000  13.0000 Du        
    682 ****       223.7500  26.5000  13.2500 Du        
    683 ****       223.7500  26.5000  13.5000 Du        
    684 ****       223.7500  26.5000  13.7500 Du        
    685 ****       223.7500  26.5000  14.0000 Du        
    686 ****       223.7500  26.5000  14.2500 Du        
    687 ****       223.7500  26.5000  14.5000 Du        
    688 ****       223.7500  26.5000  14.7500 Du        
    689 ****       223.7500  26.5000  15.0000 Du        
    690 ****       223.7500  26.5000  15.2500 Du        
    691 ****       223.7500  26.7500  12.5000 Du        
    692 ****       223.7500  26.7500  12.7500 Du        
    693 ****       223.7500  26.7500  13.0000 Du        
    694 ****       223.7500  26.7500  13.2500 Du        
    695 ****       223.7500  26.7500  13.5000 Du        
    696 ****       223.7500  26.7500  13.7500 Du        
    697 ****       223.7500  26.7500  14.0000 Du        
    698 ****       223.7500  26.7500  14.2500 Du        
    699 ****       223.7500  26.7500  14.5000 Du        
    700 ****       223.7500  26.7500  14.7500 Du        
    701 ****       223.7500  26.7500  15.0000 Du        
    702 ****       223.7500  26.7500  15.2500 Du        
    703 ****       223.7500  27.0000  12.5000 Du        
    704 ****       223.7500  27.0000  12.7500 Du        
    705 ****       223.7500  27.0000  13.0000 Du        
    706 ****       223.7500  27.0000  13.2500 Du        
    707 ****       223.7500  27.0000  13.5000 Du        
    708 ****       223.7500  27.0000  13.7500 Du        
    709 ****       223.7500  27.0000  14.0000 Du        
    710 ****       223.7500  27.0000  14.2500 Du        
    711 ****       223.7500  27.0000  14.5000 Du        
    712 ****       223.7500  27.0000  14.7500 Du        
    713 ****       223.7500  27.0000  15.0000 Du        
    714 ****       223.7500  27.0000  15.2500 Du        
    715 ****       223.7500  27.2500  14.0000 Du        
    716 ****       223.7500  27.2500  14.2500 Du        
    717 ****       223.7500  27.2500  14.5000 Du        
    718 ****       223.7500  27.2500  14.7500 Du        
    719 ****       223.7500  27.2500  15.0000 Du        
    720 ****       223.7500  27.2500  15.2500 Du        
    721 ****       223.7500  27.5000  14.5000 Du        
    722 ****       223.7500  27.5000  14.7500 Du        
    723 ****       223.7500  27.5000  15.0000 Du        
    724 ****       223.7500  27.5000  15.2500 Du        
    725 ****       223.7500  27.7500  15.0000 Du        
    726 ****       223.7500  27.7500  15.2500 Du        
    727 ****       224.0000  22.5000  17.5000 Du        
    728 ****       224.0000  22.7500  17.5000 Du        
    729 ****       224.0000  22.7500  17.7500 Du        
    730 ****       224.0000  23.0000  17.2500 Du        
    731 ****       224.0000  23.0000  17.5000 Du        
    732 ****       224.0000  23.0000  17.7500 Du        
    733 ****       224.0000  23.0000  18.0000 Du        
    734 ****       224.0000  23.0000  18.2500 Du        
    735 ****       224.0000  23.2500  17.2500 Du        
    736 ****       224.0000  23.2500  17.5000 Du        
    737 ****       224.0000  23.2500  17.7500 Du        
    738 ****       224.0000  23.2500  18.0000 Du        
    739 ****       224.0000  23.2500  18.2500 Du        
    740 ****       224.0000  23.2500  18.5000 Du        
    741 ****       224.0000  23.5000  17.2500 Du        
    742 ****       224.0000  23.5000  17.5000 Du        
    743 ****       224.0000  23.5000  17.7500 Du        
    744 ****       224.0000  23.5000  18.0000 Du        
    745 ****       224.0000  23.5000  18.2500 Du        
    746 ****       224.0000  23.5000  18.5000 Du        
    747 ****       224.0000  23.5000  18.7500 Du        
    748 ****       224.0000  23.7500  17.2500 Du        
    749 ****       224.0000  23.7500  17.5000 Du        
    750 ****       224.0000  23.7500  17.7500 Du        
    751 ****       224.0000  23.7500  18.0000 Du        
    752 ****       224.0000  23.7500  18.2500 Du        
    753 ****       224.0000  23.7500  18.5000 Du        
    754 ****       224.0000  23.7500  18.7500 Du        
    755 ****       224.0000  23.7500  19.0000 Du        
    756 ****       224.0000  24.0000  17.0000 Du        
    757 ****       224.0000  24.0000  17.2500 Du        
    758 ****       224.0000  24.0000  17.5000 Du        
    759 ****       224.0000  24.0000  17.7500 Du        
    760 ****       224.0000  24.0000  18.0000 Du        
    761 ****       224.0000  24.0000  18.2500 Du        
    762 ****       224.0000  24.0000  18.5000 Du        
    763 ****       224.0000  24.0000  18.7500 Du        
    764 ****       224.0000  24.0000  19.0000 Du        
    765 ****       224.0000  24.2500  17.2500 Du        
    766 ****       224.0000  24.2500  17.5000 Du        
    767 ****       224.0000  24.2500  17.7500 Du        
    768 ****       224.0000  24.2500  18.0000 Du        
    769 ****       224.0000  24.2500  18.2500 Du        
    770 ****       224.0000  24.2500  18.5000 Du        
    771 ****       224.0000  24.2500  18.7500 Du        
    772 ****       224.0000  25.0000  12.7500 Du        
    773 ****       224.0000  25.0000  13.0000 Du        
    774 ****       224.0000  25.2500  12.5000 Du        
    775 ****       224.0000  25.2500  12.7500 Du        
    776 ****       224.0000  25.2500  13.0000 Du        
    777 ****       224.0000  25.2500  13.2500 Du        
    778 ****       224.0000  25.5000  12.5000 Du        
    779 ****       224.0000  25.5000  12.7500 Du        
    780 ****       224.0000  25.5000  13.0000 Du        
    781 ****       224.0000  25.5000  13.2500 Du        
    782 ****       224.0000  25.5000  13.5000 Du        
    783 ****       224.0000  25.7500  12.5000 Du        
    784 ****       224.0000  25.7500  12.7500 Du        
    785 ****       224.0000  25.7500  13.0000 Du        
    786 ****       224.0000  25.7500  13.2500 Du        
    787 ****       224.0000  25.7500  13.5000 Du        
    788 ****       224.0000  25.7500  13.7500 Du        
    789 ****       224.0000  25.7500  14.0000 Du        
    790 ****       224.0000  26.0000  12.5000 Du        
    791 ****       224.0000  26.0000  12.7500 Du        
    792 ****       224.0000  26.0000  13.0000 Du        
    793 ****       224.0000  26.0000  13.2500 Du        
    794 ****       224.0000  26.0000  13.5000 Du        
    795 ****       224.0000  26.0000  13.7500 Du        
    796 ****       224.0000  26.0000  14.0000 Du        
    797 ****       224.0000  26.0000  14.2500 Du        
    798 ****       224.0000  26.0000  14.7500 Du        
    799 ****       224.0000  26.0000  15.0000 Du        
    800 ****       224.0000  26.2500  12.5000 Du        
    801 ****       224.0000  26.2500  12.7500 Du        
    802 ****       224.0000  26.2500  13.0000 Du        
    803 ****       224.0000  26.2500  13.2500 Du        
    804 ****       224.0000  26.2500  13.5000 Du        
    805 ****       224.0000  26.2500  13.7500 Du        
    806 ****       224.0000  26.2500  14.0000 Du        
    807 ****       224.0000  26.2500  14.2500 Du        
    808 ****       224.0000  26.2500  14.5000 Du        
    809 ****       224.0000  26.2500  14.7500 Du        
    810 ****       224.0000  26.2500  15.0000 Du        
    811 ****       224.0000  26.5000  12.5000 Du        
    812 ****       224.0000  26.5000  12.7500 Du        
    813 ****       224.0000  26.5000  13.0000 Du        
    814 ****       224.0000  26.5000  13.2500 Du        
    815 ****       224.0000  26.5000  13.5000 Du        
    816 ****       224.0000  26.5000  13.7500 Du        
    817 ****       224.0000  26.5000  14.0000 Du        
    818 ****       224.0000  26.5000  14.2500 Du        
    819 ****       224.0000  26.5000  14.5000 Du        
    820 ****       224.0000  26.5000  14.7500 Du        
    821 ****       224.0000  26.5000  15.0000 Du        
    822 ****       224.0000  26.7500  12.7500 Du        
    823 ****       224.0000  26.7500  13.0000 Du        
    824 ****       224.0000  26.7500  13.2500 Du        
    825 ****       224.0000  26.7500  13.5000 Du        
    826 ****       224.0000  26.7500  13.7500 Du        
    827 ****       224.0000  26.7500  14.0000 Du        
    828 ****       224.0000  26.7500  14.2500 Du        
    829 ****       224.0000  26.7500  14.5000 Du        
    830 ****       224.0000  26.7500  14.7500 Du        
    831 ****       224.0000  26.7500  15.0000 Du        
    832 ****       224.0000  26.7500  15.2500 Du        
    833 ****       224.0000  27.0000  12.7500 Du        
    834 ****       224.0000  27.0000  13.0000 Du        
    835 ****       224.0000  27.0000  13.2500 Du        
    836 ****       224.0000  27.0000  13.5000 Du        
    837 ****       224.0000  27.0000  13.7500 Du        
    838 ****       224.0000  27.0000  14.0000 Du        
    839 ****       224.0000  27.0000  14.2500 Du        
    840 ****       224.0000  27.0000  14.5000 Du        
    841 ****       224.0000  27.0000  14.7500 Du        
    842 ****       224.0000  27.0000  15.0000 Du        
    843 ****       224.0000  27.0000  15.2500 Du        
    844 ****       224.0000  27.2500  14.0000 Du        
    845 ****       224.0000  27.2500  14.2500 Du        
    846 ****       224.0000  27.2500  14.5000 Du        
    847 ****       224.0000  27.2500  14.7500 Du        
    848 ****       224.0000  27.2500  15.0000 Du        
    849 ****       224.0000  27.5000  14.5000 Du        
    850 ****       224.0000  27.5000  14.7500 Du        
    851 ****       224.0000  27.5000  15.0000 Du        
    852 ****       224.0000  27.7500  15.0000 Du        
    853 ****       224.2500  22.7500  17.5000 Du        
    854 ****       224.2500  23.0000  17.2500 Du        
    855 ****       224.2500  23.0000  17.5000 Du        
    856 ****       224.2500  23.0000  17.7500 Du        
    857 ****       224.2500  23.2500  17.2500 Du        
    858 ****       224.2500  23.2500  17.5000 Du        
    859 ****       224.2500  23.2500  17.7500 Du        
    860 ****       224.2500  23.2500  18.0000 Du        
    861 ****       224.2500  23.5000  17.5000 Du        
    862 ****       224.2500  23.5000  17.7500 Du        
    863 ****       224.2500  23.5000  18.0000 Du        
    864 ****       224.2500  23.5000  18.2500 Du        
    865 ****       224.2500  23.5000  18.5000 Du        
    866 ****       224.2500  23.7500  17.5000 Du        
    867 ****       224.2500  23.7500  17.7500 Du        
    868 ****       224.2500  23.7500  18.0000 Du        
    869 ****       224.2500  23.7500  18.2500 Du        
    870 ****       224.2500  23.7500  18.5000 Du        
    871 ****       224.2500  23.7500  18.7500 Du        
    872 ****       224.2500  24.0000  17.5000 Du        
    873 ****       224.2500  24.0000  17.7500 Du        
    874 ****       224.2500  24.0000  18.0000 Du        
    875 ****       224.2500  24.0000  18.2500 Du        
    876 ****       224.2500  24.0000  18.5000 Du        
    877 ****       224.2500  24.0000  18.7500 Du        
    878 ****       224.2500  25.0000  12.7500 Du        
    879 ****       224.2500  25.2500  12.7500 Du        
    880 ****       224.2500  25.2500  13.0000 Du        
    881 ****       224.2500  25.5000  12.5000 Du        
    882 ****       224.2500  25.5000  12.7500 Du        
    883 ****       224.2500  25.5000  13.0000 Du        
    884 ****       224.2500  25.5000  13.2500 Du        
    885 ****       224.2500  25.7500  12.7500 Du        
    886 ****       224.2500  25.7500  13.0000 Du        
    887 ****       224.2500  25.7500  13.2500 Du        
    888 ****       224.2500  25.7500  13.5000 Du        
    889 ****       224.2500  25.7500  13.7500 Du        
    890 ****       224.2500  26.0000  12.7500 Du        
    891 ****       224.2500  26.0000  13.0000 Du        
    892 ****       224.2500  26.0000  13.2500 Du        
    893 ****       224.2500  26.0000  13.5000 Du        
    894 ****       224.2500  26.0000  13.7500 Du        
    895 ****       224.2500  26.0000  14.0000 Du        
    896 ****       224.2500  26.0000  14.2500 Du        
    897 ****       224.2500  26.2500  12.7500 Du        
    898 ****       224.2500  26.2500  13.0000 Du        
    899 ****       224.2500  26.2500  13.2500 Du        
    900 ****       224.2500  26.2500  13.5000 Du        
    901 ****       224.2500  26.2500  13.7500 Du        
    902 ****       224.2500  26.2500  14.0000 Du        
    903 ****       224.2500  26.2500  14.2500 Du        
    904 ****       224.2500  26.2500  14.5000 Du        
    905 ****       224.2500  26.2500  14.7500 Du        
    906 ****       224.2500  26.2500  15.0000 Du        
    907 ****       224.2500  26.5000  12.7500 Du        
    908 ****       224.2500  26.5000  13.0000 Du        
    909 ****       224.2500  26.5000  13.2500 Du        
    910 ****       224.2500  26.5000  13.5000 Du        
    911 ****       224.2500  26.5000  13.7500 Du        
    912 ****       224.2500  26.5000  14.0000 Du        
    913 ****       224.2500  26.5000  14.2500 Du        
    914 ****       224.2500  26.5000  14.5000 Du        
    915 ****       224.2500  26.5000  14.7500 Du        
    916 ****       224.2500  26.5000  15.0000 Du        
    917 ****       224.2500  26.7500  12.7500 Du        
    918 ****       224.2500  26.7500  13.0000 Du        
    919 ****       224.2500  26.7500  13.2500 Du        
    920 ****       224.2500  26.7500  13.5000 Du        
    921 ****       224.2500  26.7500  13.7500 Du        
    922 ****       224.2500  26.7500  14.0000 Du        
    923 ****       224.2500  26.7500  14.2500 Du        
    924 ****       224.2500  26.7500  14.5000 Du        
    925 ****       224.2500  26.7500  14.7500 Du        
    926 ****       224.2500  26.7500  15.0000 Du        
    927 ****       224.2500  27.0000  13.0000 Du        
    928 ****       224.2500  27.0000  13.2500 Du        
    929 ****       224.2500  27.0000  13.5000 Du        
    930 ****       224.2500  27.0000  13.7500 Du        
    931 ****       224.2500  27.0000  14.0000 Du        
    932 ****       224.2500  27.0000  14.2500 Du        
    933 ****       224.2500  27.0000  14.5000 Du        
    934 ****       224.2500  27.0000  14.7500 Du        
    935 ****       224.2500  27.0000  15.0000 Du        
    936 ****       224.2500  27.2500  14.2500 Du        
    937 ****       224.2500  27.2500  14.5000 Du        
    938 ****       224.2500  27.2500  14.7500 Du        
    939 ****       224.2500  27.2500  15.0000 Du        
    940 ****       224.2500  27.5000  14.5000 Du        
    941 ****       224.2500  27.5000  14.7500 Du        
    942 ****       224.2500  27.5000  15.0000 Du        
    943 ****       224.2500  27.7500  15.0000 Du        
    944 ****       224.5000  23.0000  17.5000 Du        
    945 ****       224.5000  23.2500  17.5000 Du        
    946 ****       224.5000  23.2500  17.7500 Du        
    947 ****       224.5000  23.5000  17.5000 Du        
    948 ****       224.5000  23.5000  17.7500 Du        
    949 ****       224.5000  23.7500  17.5000 Du        
    950 ****       224.5000  25.5000  13.0000 Du        
    951 ****       224.5000  25.7500  13.0000 Du        
    952 ****       224.5000  25.7500  13.2500 Du        
    953 ****       224.5000  26.0000  13.0000 Du        
    954 ****       224.5000  26.0000  13.2500 Du        
    955 ****       224.5000  26.0000  13.7500 Du        
    956 ****       224.5000  26.0000  14.0000 Du        
    957 ****       224.5000  26.2500  13.0000 Du        
    958 ****       224.5000  26.2500  13.2500 Du        
    959 ****       224.5000  26.2500  13.5000 Du        
    960 ****       224.5000  26.2500  13.7500 Du        
    961 ****       224.5000  26.2500  14.0000 Du        
    962 ****       224.5000  26.2500  14.2500 Du        
    963 ****       224.5000  26.5000  13.0000 Du        
    964 ****       224.5000  26.5000  13.2500 Du        
    965 ****       224.5000  26.5000  13.7500 Du        
    966 ****       224.5000  26.5000  14.0000 Du        
    967 ****       224.5000  26.5000  14.2500 Du        
    968 ****       224.5000  26.5000  14.5000 Du        
    969 ****       224.5000  26.5000  14.7500 Du        
    970 ****       224.5000  26.7500  13.0000 Du        
    971 ****       224.5000  26.7500  13.2500 Du        
    972 ****       224.5000  26.7500  13.7500 Du        
    973 ****       224.5000  26.7500  14.0000 Du        
    974 ****       224.5000  26.7500  14.2500 Du        
    975 ****       224.5000  26.7500  14.5000 Du        
    976 ****       224.5000  26.7500  14.7500 Du        
    977 ****       224.5000  26.7500  15.0000 Du        
    978 ****       224.5000  27.0000  14.0000 Du        
    979 ****       224.5000  27.0000  14.2500 Du        
    980 ****       224.5000  27.0000  14.5000 Du        
    981 ****       224.5000  27.0000  14.7500 Du        
    982 ****       224.5000  27.2500  14.2500 Du        
    983 ****       224.5000  27.2500  14.5000 Du        
    984 ****       224.5000  27.2500  14.7500 Du        
    985 ****       224.5000  27.5000  14.7500 Du        
    986 ****       224.7500  26.0000  13.0000 Du        
    987 ****       224.7500  26.0000  13.2500 Du        
    988 ****       224.7500  26.0000  13.7500 Du        
    989 ****       224.7500  26.0000  14.0000 Du        
    990 ****       224.7500  26.2500  13.2500 Du        
    991 ****       224.7500  26.2500  13.5000 Du        
    992 ****       224.7500  26.2500  13.7500 Du        
    993 ****       224.7500  26.2500  14.0000 Du        
    994 ****       224.7500  26.5000  13.2500 Du        
    995 ****       224.7500  26.5000  14.0000 Du        
    996 ****       224.7500  26.5000  14.2500 Du        
    997 ****       224.7500  26.5000  14.5000 Du        
    998 ****       224.7500  26.5000  14.7500 Du        
    999 ****       224.7500  26.7500  13.2500 Du        
   1000 ****       224.7500  26.7500  13.7500 Du        
   1001 ****       224.7500  26.7500  14.0000 Du        
   1002 ****       224.7500  26.7500  14.2500 Du        
   1003 ****       224.7500  26.7500  14.5000 Du        
   1004 ****       224.7500  26.7500  14.7500 Du        
   1005 ****       224.7500  27.0000  14.0000 Du        
   1006 ****       224.7500  27.0000  14.2500 Du        
   1007 ****       224.7500  27.0000  14.5000 Du        
   1008 ****       224.7500  27.0000  14.7500 Du        
   1009 ****       224.7500  27.2500  14.2500 Du        
   1010 ****       224.7500  27.2500  14.5000 Du        
   1011 ****       224.7500  27.2500  14.7500 Du        
   1012 ****       224.7500  27.5000  14.7500 Du        
   1013 ****       225.0000  26.0000  13.2500 Du        
   1014 ****       225.0000  26.0000  13.7500 Du        
   1015 ****       225.0000  26.0000  14.0000 Du        
   1016 ****       225.0000  26.2500  13.2500 Du        
   1017 ****       225.0000  26.2500  13.5000 Du        
   1018 ****       225.0000  26.2500  13.7500 Du        
   1019 ****       225.0000  26.2500  14.0000 Du        
   1020 ****       225.0000  26.5000  13.2500 Du        
   1021 ****       225.0000  26.5000  13.7500 Du        
   1022 ****       225.0000  26.5000  14.2500 Du        
   1023 ****       225.0000  26.5000  14.5000 Du        
   1024 ****       225.0000  26.7500  13.2500 Du        
   1025 ****       225.0000  26.7500  13.7500 Du        
   1026 ****       225.0000  26.7500  14.0000 Du        
   1027 ****       225.0000  26.7500  14.2500 Du        
   1028 ****       225.0000  26.7500  14.5000 Du        
   1029 ****       225.0000  26.7500  14.7500 Du        
   1030 ****       225.0000  27.0000  14.0000 Du        
   1031 ****       225.0000  27.0000  14.2500 Du        
   1032 ****       225.0000  27.0000  14.5000 Du        
   1033 ****       225.0000  27.0000  14.7500 Du        
   1034 ****       225.0000  27.2500  14.2500 Du        
   1035 ****       225.0000  27.2500  14.5000 Du        
   1036 ****       225.0000  27.2500  14.7500 Du        
   1037 ****       225.0000  27.5000  14.7500 Du        
   1038 ****       225.2500  26.7500  14.5000 Du        
   1039 ****       225.2500  26.7500  14.7500 Du        
   1040 ****       225.2500  27.0000  14.2500 Du        
   1041 ****       225.2500  27.0000  14.5000 Du        
   1042 ****       225.2500  27.0000  14.7500 Du        
   1043 ****       225.2500  27.2500  14.5000 Du        
   1044 ****       225.2500  27.2500  14.7500 Du        
   1045 ****       225.2500  27.5000  14.7500 Du        
   1046 ****       225.5000  20.0000  16.7500 Du        
   1047 ****       225.5000  20.2500  16.7500 Du        
   1048 ****       225.5000  27.0000  14.5000 Du        
   1049 ****       225.5000  27.2500  14.7500 Du        
   1050 ****       225.5000  27.5000  14.5000 Du        
   1051 ****       225.5000  27.5000  14.7500 Du        
   1052 ****       225.7500  20.0000  16.5000 Du        
   1053 ****       225.7500  20.0000  16.7500 Du        
   1054 ****       225.7500  20.2500  16.5000 Du        
   1055 ****       225.7500  20.2500  16.7500 Du        
   1056 ****       225.7500  27.0000  14.7500 Du        
   1057 ****       225.7500  27.2500  14.5000 Du        
   1058 ****       225.7500  27.2500  14.7500 Du        
   1059 ****       225.7500  27.5000  14.2500 Du        
   1060 ****       225.7500  27.5000  14.5000 Du        
   1061 ****       225.7500  27.5000  14.7500 Du        
   1062 ****       225.7500  27.5000  15.0000 Du        
   1063 ****       225.7500  27.7500  14.5000 Du        
   1064 ****       225.7500  27.7500  14.7500 Du        
   1065 ****       226.0000  20.0000  16.2500 Du        
   1066 ****       226.0000  20.0000  16.5000 Du        
   1067 ****       226.0000  20.0000  16.7500 Du        
   1068 ****       226.0000  20.2500  16.5000 Du        
   1069 ****       226.0000  20.2500  16.7500 Du        
   1070 ****       226.0000  20.5000  16.5000 Du        
   1071 ****       226.0000  20.5000  16.7500 Du        
   1072 ****       226.0000  20.7500  16.5000 Du        
   1073 ****       226.0000  20.7500  16.7500 Du        
   1074 ****       226.0000  27.0000  14.5000 Du        
   1075 ****       226.0000  27.0000  14.7500 Du        
   1076 ****       226.0000  27.2500  14.5000 Du        
   1077 ****       226.0000  27.2500  14.7500 Du        
   1078 ****       226.0000  27.5000  14.2500 Du        
   1079 ****       226.0000  27.5000  14.5000 Du        
   1080 ****       226.0000  27.5000  14.7500 Du        
   1081 ****       226.0000  27.5000  15.0000 Du        
   1082 ****       226.0000  27.7500  14.5000 Du        
   1083 ****       226.0000  27.7500  14.7500 Du        
   1084 ****       226.0000  27.7500  15.0000 Du        
   1085 ****       226.0000  28.0000  14.7500 Du        
   1086 ****       226.2500  20.0000  16.2500 Du        
   1087 ****       226.2500  20.0000  16.5000 Du        
   1088 ****       226.2500  20.0000  16.7500 Du        
   1089 ****       226.2500  20.2500  16.5000 Du        
   1090 ****       226.2500  20.2500  16.7500 Du        
   1091 ****       226.2500  20.5000  16.5000 Du        
   1092 ****       226.2500  20.5000  16.7500 Du        
   1093 ****       226.2500  20.7500  16.5000 Du        
   1094 ****       226.2500  20.7500  16.7500 Du        
   1095 ****       226.2500  21.0000  16.5000 Du        
   1096 ****       226.2500  27.5000  14.0000 Du        
   1097 ****       226.2500  27.5000  14.2500 Du        
   1098 ****       226.2500  27.5000  14.5000 Du        
   1099 ****       226.2500  27.5000  14.7500 Du        
   1100 ****       226.2500  27.7500  14.2500 Du        
   1101 ****       226.2500  27.7500  14.5000 Du        
   1102 ****       226.2500  27.7500  14.7500 Du        
   1103 ****       226.2500  27.7500  15.0000 Du        
   1104 ****       226.2500  28.0000  14.5000 Du        
   1105 ****       226.2500  28.0000  14.7500 Du        
   1106 ****       226.5000  19.5000  16.0000 Du        
   1107 ****       226.5000  19.5000  16.2500 Du        
   1108 ****       226.5000  19.7500  16.0000 Du        
   1109 ****       226.5000  19.7500  16.2500 Du        
   1110 ****       226.5000  20.0000  16.0000 Du        
   1111 ****       226.5000  20.0000  16.2500 Du        
   1112 ****       226.5000  20.0000  16.5000 Du        
   1113 ****       226.5000  20.0000  16.7500 Du        
   1114 ****       226.5000  20.0000  17.0000 Du        
   1115 ****       226.5000  20.2500  16.5000 Du        
   1116 ****       226.5000  20.2500  16.7500 Du        
   1117 ****       226.5000  20.5000  16.5000 Du        
   1118 ****       226.5000  20.5000  16.7500 Du        
   1119 ****       226.5000  20.7500  16.5000 Du        
   1120 ****       226.5000  20.7500  16.7500 Du        
   1121 ****       226.5000  27.7500  14.2500 Du        
   1122 ****       226.5000  33.5000  12.5000 Du        
   1123 ****       226.5000  33.5000  12.7500 Du        
   1124 ****       226.5000  33.7500  12.2500 Du        
   1125 ****       226.5000  33.7500  12.5000 Du        
   1126 ****       226.5000  33.7500  12.7500 Du        
   1127 ****       226.5000  34.0000  12.2500 Du        
   1128 ****       226.5000  34.0000  12.5000 Du        
   1129 ****       226.5000  34.0000  12.7500 Du        
   1130 ****       226.5000  34.2500  12.5000 Du        
   1131 ****       226.7500  19.5000  16.0000 Du        
   1132 ****       226.7500  19.5000  16.2500 Du        
   1133 ****       226.7500  19.7500  16.0000 Du        
   1134 ****       226.7500  19.7500  16.2500 Du        
   1135 ****       226.7500  20.0000  16.0000 Du        
   1136 ****       226.7500  20.0000  16.2500 Du        
   1137 ****       226.7500  20.0000  16.5000 Du        
   1138 ****       226.7500  20.0000  16.7500 Du        
   1139 ****       226.7500  20.0000  17.0000 Du        
   1140 ****       226.7500  20.2500  16.2500 Du        
   1141 ****       226.7500  20.2500  16.5000 Du        
   1142 ****       226.7500  20.2500  16.7500 Du        
   1143 ****       226.7500  20.2500  17.0000 Du        
   1144 ****       226.7500  20.5000  16.2500 Du        
   1145 ****       226.7500  20.5000  16.5000 Du        
   1146 ****       226.7500  20.5000  16.7500 Du        
   1147 ****       226.7500  20.7500  16.5000 Du        
   1148 ****       226.7500  20.7500  16.7500 Du        
   1149 ****       226.7500  21.0000  16.5000 Du        
   1150 ****       226.7500  21.0000  16.7500 Du        
   1151 ****       226.7500  21.2500  16.5000 Du        
   1152 ****       226.7500  21.2500  16.7500 Du        
   1153 ****       226.7500  28.0000  13.7500 Du        
   1154 ****       226.7500  28.0000  14.0000 Du        
   1155 ****       226.7500  33.2500  12.2500 Du        
   1156 ****       226.7500  33.2500  12.5000 Du        
   1157 ****       226.7500  33.2500  12.7500 Du        
   1158 ****       226.7500  33.2500  13.0000 Du        
   1159 ****       226.7500  33.5000  12.0000 Du        
   1160 ****       226.7500  33.5000  12.2500 Du        
   1161 ****       226.7500  33.5000  12.5000 Du        
   1162 ****       226.7500  33.5000  12.7500 Du        
   1163 ****       226.7500  33.5000  13.0000 Du        
   1164 ****       226.7500  33.7500  12.0000 Du        
   1165 ****       226.7500  33.7500  12.2500 Du        
   1166 ****       226.7500  33.7500  12.5000 Du        
   1167 ****       226.7500  33.7500  12.7500 Du        
   1168 ****       226.7500  33.7500  13.0000 Du        
   1169 ****       226.7500  34.0000  12.0000 Du        
   1170 ****       226.7500  34.0000  12.2500 Du        
   1171 ****       226.7500  34.0000  12.5000 Du        
   1172 ****       226.7500  34.0000  12.7500 Du        
   1173 ****       226.7500  34.0000  13.0000 Du        
   1174 ****       226.7500  34.2500  12.2500 Du        
   1175 ****       226.7500  34.2500  12.5000 Du        
   1176 ****       226.7500  34.2500  12.7500 Du        
   1177 ****       226.7500  34.2500  13.0000 Du        
   1178 ****       226.7500  34.5000  12.5000 Du        
   1179 ****       226.7500  34.5000  12.7500 Du        
   1180 ****       227.0000  19.0000  14.7500 Du        
   1181 ****       227.0000  19.0000  15.0000 Du        
   1182 ****       227.0000  19.0000  15.2500 Du        
   1183 ****       227.0000  19.5000  16.0000 Du        
   1184 ****       227.0000  19.5000  16.2500 Du        
   1185 ****       227.0000  19.7500  16.0000 Du        
   1186 ****       227.0000  19.7500  16.2500 Du        
   1187 ****       227.0000  20.0000  16.2500 Du        
   1188 ****       227.0000  20.0000  16.5000 Du        
   1189 ****       227.0000  20.0000  16.7500 Du        
   1190 ****       227.0000  20.0000  17.0000 Du        
   1191 ****       227.0000  20.2500  16.2500 Du        
   1192 ****       227.0000  20.2500  16.5000 Du        
   1193 ****       227.0000  20.2500  16.7500 Du        
   1194 ****       227.0000  20.2500  17.0000 Du        
   1195 ****       227.0000  20.5000  16.0000 Du        
   1196 ****       227.0000  20.5000  16.2500 Du        
   1197 ****       227.0000  20.5000  16.5000 Du        
   1198 ****       227.0000  20.5000  16.7500 Du        
   1199 ****       227.0000  20.5000  17.0000 Du        
   1200 ****       227.0000  20.7500  16.2500 Du        
   1201 ****       227.0000  20.7500  16.5000 Du        
   1202 ****       227.0000  20.7500  16.7500 Du        
   1203 ****       227.0000  20.7500  17.0000 Du        
   1204 ****       227.0000  21.0000  16.0000 Du        
   1205 ****       227.0000  21.0000  16.2500 Du        
   1206 ****       227.0000  21.0000  16.5000 Du        
   1207 ****       227.0000  21.0000  16.7500 Du        
   1208 ****       227.0000  21.2500  16.5000 Du        
   1209 ****       227.0000  21.2500  16.7500 Du        
   1210 ****       227.0000  28.0000  13.2500 Du        
   1211 ****       227.0000  28.0000  13.5000 Du        
   1212 ****       227.0000  32.0000  14.7500 Du        
   1213 ****       227.0000  32.7500  13.2500 Du        
   1214 ****       227.0000  32.7500  13.5000 Du        
   1215 ****       227.0000  32.7500  13.7500 Du        
   1216 ****       227.0000  33.0000  12.2500 Du        
   1217 ****       227.0000  33.0000  12.5000 Du        
   1218 ****       227.0000  33.0000  12.7500 Du        
   1219 ****       227.0000  33.0000  13.0000 Du        
   1220 ****       227.0000  33.0000  13.2500 Du        
   1221 ****       227.0000  33.0000  13.5000 Du        
   1222 ****       227.0000  33.2500  12.0000 Du        
   1223 ****       227.0000  33.2500  12.2500 Du        
   1224 ****       227.0000  33.2500  12.5000 Du        
   1225 ****       227.0000  33.2500  12.7500 Du        
   1226 ****       227.0000  33.2500  13.0000 Du        
   1227 ****       227.0000  33.2500  13.2500 Du        
   1228 ****       227.0000  33.2500  13.5000 Du        
   1229 ****       227.0000  33.5000  12.0000 Du        
   1230 ****       227.0000  33.5000  12.2500 Du        
   1231 ****       227.0000  33.5000  12.5000 Du        
   1232 ****       227.0000  33.5000  12.7500 Du        
   1233 ****       227.0000  33.5000  13.0000 Du        
   1234 ****       227.0000  33.5000  13.2500 Du        
   1235 ****       227.0000  33.7500  12.0000 Du        
   1236 ****       227.0000  33.7500  12.2500 Du        
   1237 ****       227.0000  33.7500  12.5000 Du        
   1238 ****       227.0000  33.7500  12.7500 Du        
   1239 ****       227.0000  33.7500  13.0000 Du        
   1240 ****       227.0000  33.7500  13.2500 Du        
   1241 ****       227.0000  34.0000  12.0000 Du        
   1242 ****       227.0000  34.0000  12.2500 Du        
   1243 ****       227.0000  34.0000  12.5000 Du        
   1244 ****       227.0000  34.0000  12.7500 Du        
   1245 ****       227.0000  34.0000  13.0000 Du        
   1246 ****       227.0000  34.0000  13.2500 Du        
   1247 ****       227.0000  34.2500  12.2500 Du        
   1248 ****       227.0000  34.2500  12.5000 Du        
   1249 ****       227.0000  34.2500  12.7500 Du        
   1250 ****       227.0000  34.2500  13.0000 Du        
   1251 ****       227.0000  34.2500  13.2500 Du        
   1252 ****       227.0000  34.5000  12.5000 Du        
   1253 ****       227.0000  34.5000  12.7500 Du        
   1254 ****       227.0000  34.5000  13.0000 Du        
   1255 ****       227.0000  34.5000  13.2500 Du        
   1256 ****       227.0000  34.7500  12.7500 Du        
   1257 ****       227.0000  34.7500  13.0000 Du        
   1258 ****       227.0000  34.7500  13.2500 Du        
   1259 ****       227.0000  35.0000  13.0000 Du        
   1260 ****       227.2500  19.0000  14.7500 Du        
   1261 ****       227.2500  19.0000  15.0000 Du        
   1262 ****       227.2500  19.5000  16.2500 Du        
   1263 ****       227.2500  19.7500  16.2500 Du        
   1264 ****       227.2500  20.0000  16.2500 Du        
   1265 ****       227.2500  20.0000  16.5000 Du        
   1266 ****       227.2500  20.0000  16.7500 Du        
   1267 ****       227.2500  20.0000  17.0000 Du        
   1268 ****       227.2500  20.2500  16.5000 Du        
   1269 ****       227.2500  20.2500  16.7500 Du        
   1270 ****       227.2500  20.2500  17.0000 Du        
   1271 ****       227.2500  20.5000  16.2500 Du        
   1272 ****       227.2500  20.5000  16.5000 Du        
   1273 ****       227.2500  20.5000  16.7500 Du        
   1274 ****       227.2500  20.5000  17.0000 Du        
   1275 ****       227.2500  20.7500  16.0000 Du        
   1276 ****       227.2500  20.7500  16.2500 Du        
   1277 ****       227.2500  20.7500  16.5000 Du        
   1278 ****       227.2500  20.7500  16.7500 Du        
   1279 ****       227.2500  20.7500  17.0000 Du        
   1280 ****       227.2500  21.0000  16.2500 Du        
   1281 ****       227.2500  21.0000  16.5000 Du        
   1282 ****       227.2500  21.0000  16.7500 Du        
   1283 ****       227.2500  28.0000  12.7500 Du        
   1284 ****       227.2500  28.0000  13.0000 Du        
   1285 ****       227.2500  28.0000  13.2500 Du        
   1286 ****       227.2500  28.2500  12.7500 Du        
   1287 ****       227.2500  28.2500  13.0000 Du        
   1288 ****       227.2500  28.2500  13.2500 Du        
   1289 ****       227.2500  28.2500  13.5000 Du        
   1290 ****       227.2500  28.5000  12.5000 Du        
   1291 ****       227.2500  28.5000  12.7500 Du        
   1292 ****       227.2500  28.5000  13.0000 Du        
   1293 ****       227.2500  28.5000  13.2500 Du        
   1294 ****       227.2500  28.5000  13.5000 Du        
   1295 ****       227.2500  28.5000  13.7500 Du        
   1296 ****       227.2500  28.7500  12.5000 Du        
   1297 ****       227.2500  28.7500  12.7500 Du        
   1298 ****       227.2500  28.7500  13.0000 Du        
   1299 ****       227.2500  28.7500  13.5000 Du        
   1300 ****       227.2500  31.2500  15.0000 Du        
   1301 ****       227.2500  31.5000  14.7500 Du        
   1302 ****       227.2500  31.5000  15.0000 Du        
   1303 ****       227.2500  31.7500  14.2500 Du        
   1304 ****       227.2500  31.7500  14.5000 Du        
   1305 ****       227.2500  31.7500  14.7500 Du        
   1306 ****       227.2500  31.7500  15.0000 Du        
   1307 ****       227.2500  32.0000  14.0000 Du        
   1308 ****       227.2500  32.0000  14.2500 Du        
   1309 ****       227.2500  32.0000  14.5000 Du        
   1310 ****       227.2500  32.0000  14.7500 Du        
   1311 ****       227.2500  32.0000  15.0000 Du        
   1312 ****       227.2500  32.2500  13.7500 Du        
   1313 ****       227.2500  32.2500  14.0000 Du        
   1314 ****       227.2500  32.2500  14.2500 Du        
   1315 ****       227.2500  32.2500  14.5000 Du        
   1316 ****       227.2500  32.2500  14.7500 Du        
   1317 ****       227.2500  32.2500  15.0000 Du        
   1318 ****       227.2500  32.5000  13.0000 Du        
   1319 ****       227.2500  32.5000  13.2500 Du        
   1320 ****       227.2500  32.5000  13.5000 Du        
   1321 ****       227.2500  32.5000  13.7500 Du        
   1322 ****       227.2500  32.5000  14.0000 Du        
   1323 ****       227.2500  32.5000  14.2500 Du        
   1324 ****       227.2500  32.5000  14.5000 Du        
   1325 ****       227.2500  32.5000  14.7500 Du        
   1326 ****       227.2500  32.7500  12.2500 Du        
   1327 ****       227.2500  32.7500  12.5000 Du        
   1328 ****       227.2500  32.7500  12.7500 Du        
   1329 ****       227.2500  32.7500  13.0000 Du        
   1330 ****       227.2500  32.7500  13.2500 Du        
   1331 ****       227.2500  32.7500  13.5000 Du        
   1332 ****       227.2500  32.7500  13.7500 Du        
   1333 ****       227.2500  32.7500  14.0000 Du        
   1334 ****       227.2500  32.7500  14.2500 Du        
   1335 ****       227.2500  33.0000  12.0000 Du        
   1336 ****       227.2500  33.0000  12.2500 Du        
   1337 ****       227.2500  33.0000  12.5000 Du        
   1338 ****       227.2500  33.0000  12.7500 Du        
   1339 ****       227.2500  33.0000  13.0000 Du        
   1340 ****       227.2500  33.0000  13.2500 Du        
   1341 ****       227.2500  33.0000  13.5000 Du        
   1342 ****       227.2500  33.0000  13.7500 Du        
   1343 ****       227.2500  33.0000  14.0000 Du        
   1344 ****       227.2500  33.2500  12.0000 Du        
   1345 ****       227.2500  33.2500  12.2500 Du        
   1346 ****       227.2500  33.2500  12.5000 Du        
   1347 ****       227.2500  33.2500  12.7500 Du        
   1348 ****       227.2500  33.2500  13.0000 Du        
   1349 ****       227.2500  33.2500  13.2500 Du        
   1350 ****       227.2500  33.2500  13.5000 Du        
   1351 ****       227.2500  33.2500  13.7500 Du        
   1352 ****       227.2500  33.2500  14.0000 Du        
   1353 ****       227.2500  33.5000  12.0000 Du        
   1354 ****       227.2500  33.5000  12.2500 Du        
   1355 ****       227.2500  33.5000  12.5000 Du        
   1356 ****       227.2500  33.5000  12.7500 Du        
   1357 ****       227.2500  33.5000  13.0000 Du        
   1358 ****       227.2500  33.5000  13.2500 Du        
   1359 ****       227.2500  33.5000  13.5000 Du        
   1360 ****       227.2500  33.5000  13.7500 Du        
   1361 ****       227.2500  33.7500  12.0000 Du        
   1362 ****       227.2500  33.7500  12.2500 Du        
   1363 ****       227.2500  33.7500  12.5000 Du        
   1364 ****       227.2500  33.7500  12.7500 Du        
   1365 ****       227.2500  33.7500  13.0000 Du        
   1366 ****       227.2500  33.7500  13.2500 Du        
   1367 ****       227.2500  33.7500  13.5000 Du        
   1368 ****       227.2500  33.7500  13.7500 Du        
   1369 ****       227.2500  34.0000  12.0000 Du        
   1370 ****       227.2500  34.0000  12.2500 Du        
   1371 ****       227.2500  34.0000  12.5000 Du        
   1372 ****       227.2500  34.0000  12.7500 Du        
   1373 ****       227.2500  34.0000  13.0000 Du        
   1374 ****       227.2500  34.0000  13.2500 Du        
   1375 ****       227.2500  34.0000  13.5000 Du        
   1376 ****       227.2500  34.2500  12.2500 Du        
   1377 ****       227.2500  34.2500  12.5000 Du        
   1378 ****       227.2500  34.2500  12.7500 Du        
   1379 ****       227.2500  34.2500  13.0000 Du        
   1380 ****       227.2500  34.2500  13.2500 Du        
   1381 ****       227.2500  34.2500  13.5000 Du        
   1382 ****       227.2500  34.5000  12.5000 Du        
   1383 ****       227.2500  34.5000  12.7500 Du        
   1384 ****       227.2500  34.5000  13.0000 Du        
   1385 ****       227.2500  34.5000  13.2500 Du        
   1386 ****       227.2500  34.5000  13.5000 Du        
   1387 ****       227.2500  34.7500  12.7500 Du        
   1388 ****       227.2500  34.7500  13.0000 Du        
   1389 ****       227.2500  34.7500  13.2500 Du        
   1390 ****       227.2500  34.7500  13.5000 Du        
   1391 ****       227.2500  35.0000  12.7500 Du        
   1392 ****       227.2500  35.0000  13.0000 Du        
   1393 ****       227.2500  35.0000  13.2500 Du        
   1394 ****       227.2500  35.0000  13.5000 Du        
   1395 ****       227.5000  18.5000  13.7500 Du        
   1396 ****       227.5000  18.7500  13.7500 Du        
   1397 ****       227.5000  19.0000  14.0000 Du        
   1398 ****       227.5000  19.0000  14.2500 Du        
   1399 ****       227.5000  19.0000  14.5000 Du        
   1400 ****       227.5000  19.0000  14.7500 Du        
   1401 ****       227.5000  19.0000  15.0000 Du        
   1402 ****       227.5000  19.0000  15.2500 Du        
   1403 ****       227.5000  19.0000  15.5000 Du        
   1404 ****       227.5000  19.0000  15.7500 Du        
   1405 ****       227.5000  19.2500  14.0000 Du        
   1406 ****       227.5000  19.2500  14.2500 Du        
   1407 ****       227.5000  19.2500  14.5000 Du        
   1408 ****       227.5000  19.2500  15.0000 Du        
   1409 ****       227.5000  19.2500  15.7500 Du        
   1410 ****       227.5000  19.5000  16.5000 Du        
   1411 ****       227.5000  19.5000  16.7500 Du        
   1412 ****       227.5000  19.7500  16.5000 Du        
   1413 ****       227.5000  19.7500  16.7500 Du        
   1414 ****       227.5000  20.0000  16.5000 Du        
   1415 ****       227.5000  20.0000  16.7500 Du        
   1416 ****       227.5000  20.0000  17.0000 Du        
   1417 ****       227.5000  20.2500  16.5000 Du        
   1418 ****       227.5000  20.2500  16.7500 Du        
   1419 ****       227.5000  20.2500  17.0000 Du        
   1420 ****       227.5000  28.0000  12.7500 Du        
   1421 ****       227.5000  28.0000  13.0000 Du        
   1422 ****       227.5000  28.2500  12.2500 Du        
   1423 ****       227.5000  28.2500  12.5000 Du        
   1424 ****       227.5000  28.2500  12.7500 Du        
   1425 ****       227.5000  28.2500  13.0000 Du        
   1426 ****       227.5000  28.2500  13.2500 Du        
   1427 ****       227.5000  28.5000  12.0000 Du        
   1428 ****       227.5000  28.5000  12.2500 Du        
   1429 ****       227.5000  28.5000  12.5000 Du        
   1430 ****       227.5000  28.5000  12.7500 Du        
   1431 ****       227.5000  28.5000  13.0000 Du        
   1432 ****       227.5000  28.5000  13.2500 Du        
   1433 ****       227.5000  28.5000  13.5000 Du        
   1434 ****       227.5000  28.7500  11.7500 Du        
   1435 ****       227.5000  28.7500  12.0000 Du        
   1436 ****       227.5000  28.7500  12.2500 Du        
   1437 ****       227.5000  28.7500  12.5000 Du        
   1438 ****       227.5000  28.7500  12.7500 Du        
   1439 ****       227.5000  28.7500  13.0000 Du        
   1440 ****       227.5000  28.7500  13.2500 Du        
   1441 ****       227.5000  28.7500  13.5000 Du        
   1442 ****       227.5000  29.0000  11.5000 Du        
   1443 ****       227.5000  29.0000  11.7500 Du        
   1444 ****       227.5000  29.0000  12.0000 Du        
   1445 ****       227.5000  29.0000  12.2500 Du        
   1446 ****       227.5000  29.0000  12.5000 Du        
   1447 ****       227.5000  29.0000  12.7500 Du        
   1448 ****       227.5000  29.0000  13.0000 Du        
   1449 ****       227.5000  29.0000  13.2500 Du        
   1450 ****       227.5000  29.0000  13.5000 Du        
   1451 ****       227.5000  29.2500  11.2500 Du        
   1452 ****       227.5000  29.2500  11.5000 Du        
   1453 ****       227.5000  29.2500  11.7500 Du        
   1454 ****       227.5000  29.2500  12.0000 Du        
   1455 ****       227.5000  29.2500  12.2500 Du        
   1456 ****       227.5000  29.2500  12.5000 Du        
   1457 ****       227.5000  29.2500  12.7500 Du        
   1458 ****       227.5000  29.2500  13.0000 Du        
   1459 ****       227.5000  29.2500  13.2500 Du        
   1460 ****       227.5000  29.2500  13.5000 Du        
   1461 ****       227.5000  29.5000  11.0000 Du        
   1462 ****       227.5000  29.5000  11.2500 Du        
   1463 ****       227.5000  29.5000  11.5000 Du        
   1464 ****       227.5000  29.5000  11.7500 Du        
   1465 ****       227.5000  29.5000  12.0000 Du        
   1466 ****       227.5000  29.5000  12.2500 Du        
   1467 ****       227.5000  29.5000  12.5000 Du        
   1468 ****       227.5000  29.5000  12.7500 Du        
   1469 ****       227.5000  29.7500  11.2500 Du        
   1470 ****       227.5000  29.7500  11.5000 Du        
   1471 ****       227.5000  29.7500  11.7500 Du        
   1472 ****       227.5000  30.7500  14.5000 Du        
   1473 ****       227.5000  30.7500  14.7500 Du        
   1474 ****       227.5000  31.0000  14.2500 Du        
   1475 ****       227.5000  31.0000  14.5000 Du        
   1476 ****       227.5000  31.0000  14.7500 Du        
   1477 ****       227.5000  31.0000  15.0000 Du        
   1478 ****       227.5000  31.2500  14.0000 Du        
   1479 ****       227.5000  31.2500  14.2500 Du        
   1480 ****       227.5000  31.2500  14.5000 Du        
   1481 ****       227.5000  31.2500  14.7500 Du        
   1482 ****       227.5000  31.2500  15.0000 Du        
   1483 ****       227.5000  31.5000  14.0000 Du        
   1484 ****       227.5000  31.5000  14.2500 Du        
   1485 ****       227.5000  31.5000  14.5000 Du        
   1486 ****       227.5000  31.5000  14.7500 Du        
   1487 ****       227.5000  31.5000  15.0000 Du        
   1488 ****       227.5000  31.7500  13.7500 Du        
   1489 ****       227.5000  31.7500  14.0000 Du        
   1490 ****       227.5000  31.7500  14.2500 Du        
   1491 ****       227.5000  31.7500  14.5000 Du        
   1492 ****       227.5000  31.7500  14.7500 Du        
   1493 ****       227.5000  31.7500  15.0000 Du        
   1494 ****       227.5000  32.0000  13.2500 Du        
   1495 ****       227.5000  32.0000  13.5000 Du        
   1496 ****       227.5000  32.0000  13.7500 Du        
   1497 ****       227.5000  32.0000  14.0000 Du        
   1498 ****       227.5000  32.0000  14.2500 Du        
   1499 ****       227.5000  32.0000  14.5000 Du        
   1500 ****       227.5000  32.0000  14.7500 Du        
   1501 ****       227.5000  32.0000  15.0000 Du        
   1502 ****       227.5000  32.2500  12.7500 Du        
   1503 ****       227.5000  32.2500  13.0000 Du        
   1504 ****       227.5000  32.2500  13.2500 Du        
   1505 ****       227.5000  32.2500  13.5000 Du        
   1506 ****       227.5000  32.2500  13.7500 Du        
   1507 ****       227.5000  32.2500  14.0000 Du        
   1508 ****       227.5000  32.2500  14.2500 Du        
   1509 ****       227.5000  32.2500  14.5000 Du        
   1510 ****       227.5000  32.2500  14.7500 Du        
   1511 ****       227.5000  32.2500  15.0000 Du        
   1512 ****       227.5000  32.5000  12.5000 Du        
   1513 ****       227.5000  32.5000  12.7500 Du        
   1514 ****       227.5000  32.5000  13.0000 Du        
   1515 ****       227.5000  32.5000  13.2500 Du        
   1516 ****       227.5000  32.5000  13.5000 Du        
   1517 ****       227.5000  32.5000  13.7500 Du        
   1518 ****       227.5000  32.5000  14.0000 Du        
   1519 ****       227.5000  32.5000  14.2500 Du        
   1520 ****       227.5000  32.5000  14.5000 Du        
   1521 ****       227.5000  32.5000  14.7500 Du        
   1522 ****       227.5000  32.5000  15.0000 Du        
   1523 ****       227.5000  32.7500  12.2500 Du        
   1524 ****       227.5000  32.7500  12.5000 Du        
   1525 ****       227.5000  32.7500  12.7500 Du        
   1526 ****       227.5000  32.7500  13.0000 Du        
   1527 ****       227.5000  32.7500  13.2500 Du        
   1528 ****       227.5000  32.7500  13.5000 Du        
   1529 ****       227.5000  32.7500  13.7500 Du        
   1530 ****       227.5000  32.7500  14.0000 Du        
   1531 ****       227.5000  32.7500  14.2500 Du        
   1532 ****       227.5000  32.7500  14.5000 Du        
   1533 ****       227.5000  32.7500  14.7500 Du        
   1534 ****       227.5000  33.0000  12.0000 Du        
   1535 ****       227.5000  33.0000  12.2500 Du        
   1536 ****       227.5000  33.0000  12.5000 Du        
   1537 ****       227.5000  33.0000  12.7500 Du        
   1538 ****       227.5000  33.0000  13.0000 Du        
   1539 ****       227.5000  33.0000  13.2500 Du        
   1540 ****       227.5000  33.0000  13.5000 Du        
   1541 ****       227.5000  33.0000  13.7500 Du        
   1542 ****       227.5000  33.0000  14.0000 Du        
   1543 ****       227.5000  33.0000  14.2500 Du        
   1544 ****       227.5000  33.0000  14.5000 Du        
   1545 ****       227.5000  33.2500  12.0000 Du        
   1546 ****       227.5000  33.2500  12.2500 Du        
   1547 ****       227.5000  33.2500  12.5000 Du        
   1548 ****       227.5000  33.2500  12.7500 Du        
   1549 ****       227.5000  33.2500  13.0000 Du        
   1550 ****       227.5000  33.2500  13.2500 Du        
   1551 ****       227.5000  33.2500  13.5000 Du        
   1552 ****       227.5000  33.2500  13.7500 Du        
   1553 ****       227.5000  33.2500  14.0000 Du        
   1554 ****       227.5000  33.2500  14.2500 Du        
   1555 ****       227.5000  33.5000  12.0000 Du        
   1556 ****       227.5000  33.5000  12.2500 Du        
   1557 ****       227.5000  33.5000  12.5000 Du        
   1558 ****       227.5000  33.5000  12.7500 Du        
   1559 ****       227.5000  33.5000  13.0000 Du        
   1560 ****       227.5000  33.5000  13.2500 Du        
   1561 ****       227.5000  33.5000  13.5000 Du        
   1562 ****       227.5000  33.5000  13.7500 Du        
   1563 ****       227.5000  33.5000  14.0000 Du        
   1564 ****       227.5000  33.5000  14.2500 Du        
   1565 ****       227.5000  33.7500  12.0000 Du        
   1566 ****       227.5000  33.7500  12.2500 Du        
   1567 ****       227.5000  33.7500  12.5000 Du        
   1568 ****       227.5000  33.7500  12.7500 Du        
   1569 ****       227.5000  33.7500  13.0000 Du        
   1570 ****       227.5000  33.7500  13.2500 Du        
   1571 ****       227.5000  33.7500  13.5000 Du        
   1572 ****       227.5000  33.7500  13.7500 Du        
   1573 ****       227.5000  33.7500  14.0000 Du        
   1574 ****       227.5000  34.0000  12.0000 Du        
   1575 ****       227.5000  34.0000  12.2500 Du        
   1576 ****       227.5000  34.0000  12.5000 Du        
   1577 ****       227.5000  34.0000  12.7500 Du        
   1578 ****       227.5000  34.0000  13.0000 Du        
   1579 ****       227.5000  34.0000  13.2500 Du        
   1580 ****       227.5000  34.0000  13.5000 Du        
   1581 ****       227.5000  34.0000  13.7500 Du        
   1582 ****       227.5000  34.0000  14.0000 Du        
   1583 ****       227.5000  34.2500  12.2500 Du        
   1584 ****       227.5000  34.2500  12.5000 Du        
   1585 ****       227.5000  34.2500  12.7500 Du        
   1586 ****       227.5000  34.2500  13.0000 Du        
   1587 ****       227.5000  34.2500  13.2500 Du        
   1588 ****       227.5000  34.2500  13.5000 Du        
   1589 ****       227.5000  34.2500  13.7500 Du        
   1590 ****       227.5000  34.2500  14.0000 Du        
   1591 ****       227.5000  34.5000  12.5000 Du        
   1592 ****       227.5000  34.5000  12.7500 Du        
   1593 ****       227.5000  34.5000  13.0000 Du        
   1594 ****       227.5000  34.5000  13.2500 Du        
   1595 ****       227.5000  34.5000  13.5000 Du        
   1596 ****       227.5000  34.5000  13.7500 Du        
   1597 ****       227.5000  34.7500  12.7500 Du        
   1598 ****       227.5000  34.7500  13.0000 Du        
   1599 ****       227.5000  34.7500  13.2500 Du        
   1600 ****       227.5000  34.7500  13.5000 Du        
   1601 ****       227.5000  34.7500  13.7500 Du        
   1602 ****       227.5000  35.0000  12.7500 Du        
   1603 ****       227.5000  35.0000  13.0000 Du        
   1604 ****       227.5000  35.0000  13.2500 Du        
   1605 ****       227.5000  35.0000  13.5000 Du        
   1606 ****       227.5000  35.2500  13.0000 Du        
   1607 ****       227.5000  35.2500  13.2500 Du        
   1608 ****       227.7500  18.5000  13.7500 Du        
   1609 ****       227.7500  18.7500  13.7500 Du        
   1610 ****       227.7500  19.0000  13.7500 Du        
   1611 ****       227.7500  19.0000  14.0000 Du        
   1612 ****       227.7500  19.0000  14.2500 Du        
   1613 ****       227.7500  19.0000  14.5000 Du        
   1614 ****       227.7500  19.0000  14.7500 Du        
   1615 ****       227.7500  19.0000  15.0000 Du        
   1616 ****       227.7500  19.2500  13.7500 Du        
   1617 ****       227.7500  19.2500  14.0000 Du        
   1618 ****       227.7500  19.2500  14.2500 Du        
   1619 ****       227.7500  19.2500  14.7500 Du        
   1620 ****       227.7500  27.7500  12.7500 Du        
   1621 ****       227.7500  28.0000  12.2500 Du        
   1622 ****       227.7500  28.0000  12.5000 Du        
   1623 ****       227.7500  28.0000  12.7500 Du        
   1624 ****       227.7500  28.0000  13.0000 Du        
   1625 ****       227.7500  28.2500  12.0000 Du        
   1626 ****       227.7500  28.2500  12.2500 Du        
   1627 ****       227.7500  28.2500  12.5000 Du        
   1628 ****       227.7500  28.2500  12.7500 Du        
   1629 ****       227.7500  28.2500  13.0000 Du        
   1630 ****       227.7500  28.2500  13.2500 Du        
   1631 ****       227.7500  28.5000  11.7500 Du        
   1632 ****       227.7500  28.5000  12.0000 Du        
   1633 ****       227.7500  28.5000  12.2500 Du        
   1634 ****       227.7500  28.5000  12.5000 Du        
   1635 ****       227.7500  28.5000  12.7500 Du        
   1636 ****       227.7500  28.5000  13.0000 Du        
   1637 ****       227.7500  28.5000  13.2500 Du        
   1638 ****       227.7500  28.7500  11.5000 Du        
   1639 ****       227.7500  28.7500  11.7500 Du        
   1640 ****       227.7500  28.7500  12.0000 Du        
   1641 ****       227.7500  28.7500  12.2500 Du        
   1642 ****       227.7500  28.7500  12.5000 Du        
   1643 ****       227.7500  28.7500  12.7500 Du        
   1644 ****       227.7500  28.7500  13.0000 Du        
   1645 ****       227.7500  28.7500  13.2500 Du        
   1646 ****       227.7500  28.7500  13.5000 Du        
   1647 ****       227.7500  29.0000  11.2500 Du        
   1648 ****       227.7500  29.0000  11.5000 Du        
   1649 ****       227.7500  29.0000  11.7500 Du        
   1650 ****       227.7500  29.0000  12.0000 Du        
   1651 ****       227.7500  29.0000  12.2500 Du        
   1652 ****       227.7500  29.0000  12.5000 Du        
   1653 ****       227.7500  29.0000  12.7500 Du        
   1654 ****       227.7500  29.0000  13.0000 Du        
   1655 ****       227.7500  29.0000  13.2500 Du        
   1656 ****       227.7500  29.0000  13.5000 Du        
   1657 ****       227.7500  29.2500  11.0000 Du        
   1658 ****       227.7500  29.2500  11.2500 Du        
   1659 ****       227.7500  29.2500  11.5000 Du        
   1660 ****       227.7500  29.2500  11.7500 Du        
   1661 ****       227.7500  29.2500  12.0000 Du        
   1662 ****       227.7500  29.2500  12.2500 Du        
   1663 ****       227.7500  29.2500  12.5000 Du        
   1664 ****       227.7500  29.2500  12.7500 Du        
   1665 ****       227.7500  29.2500  13.0000 Du        
   1666 ****       227.7500  29.2500  13.2500 Du        
   1667 ****       227.7500  29.2500  13.5000 Du        
   1668 ****       227.7500  29.5000  11.0000 Du        
   1669 ****       227.7500  29.5000  11.2500 Du        
   1670 ****       227.7500  29.5000  11.5000 Du        
   1671 ****       227.7500  29.5000  11.7500 Du        
   1672 ****       227.7500  29.5000  12.0000 Du        
   1673 ****       227.7500  29.5000  12.2500 Du        
   1674 ****       227.7500  29.5000  12.5000 Du        
   1675 ****       227.7500  29.5000  12.7500 Du        
   1676 ****       227.7500  29.5000  13.0000 Du        
   1677 ****       227.7500  29.5000  13.2500 Du        
   1678 ****       227.7500  29.5000  13.5000 Du        
   1679 ****       227.7500  29.5000  13.7500 Du        
   1680 ****       227.7500  29.7500  11.2500 Du        
   1681 ****       227.7500  29.7500  11.5000 Du        
   1682 ****       227.7500  29.7500  11.7500 Du        
   1683 ****       227.7500  29.7500  12.0000 Du        
   1684 ****       227.7500  29.7500  12.2500 Du        
   1685 ****       227.7500  29.7500  12.5000 Du        
   1686 ****       227.7500  29.7500  12.7500 Du        
   1687 ****       227.7500  29.7500  13.0000 Du        
   1688 ****       227.7500  29.7500  13.2500 Du        
   1689 ****       227.7500  29.7500  13.5000 Du        
   1690 ****       227.7500  29.7500  13.7500 Du        
   1691 ****       227.7500  30.0000  11.5000 Du        
   1692 ****       227.7500  30.0000  11.7500 Du        
   1693 ****       227.7500  30.0000  12.0000 Du        
   1694 ****       227.7500  30.0000  12.2500 Du        
   1695 ****       227.7500  30.0000  12.5000 Du        
   1696 ****       227.7500  30.0000  12.7500 Du        
   1697 ****       227.7500  30.0000  13.0000 Du        
   1698 ****       227.7500  30.0000  13.2500 Du        
   1699 ****       227.7500  30.0000  13.5000 Du        
   1700 ****       227.7500  30.0000  13.7500 Du        
   1701 ****       227.7500  30.0000  14.0000 Du        
   1702 ****       227.7500  30.2500  12.5000 Du        
   1703 ****       227.7500  30.2500  12.7500 Du        
   1704 ****       227.7500  30.2500  13.0000 Du        
   1705 ****       227.7500  30.2500  13.2500 Du        
   1706 ****       227.7500  30.2500  13.5000 Du        
   1707 ****       227.7500  30.2500  13.7500 Du        
   1708 ****       227.7500  30.2500  14.0000 Du        
   1709 ****       227.7500  30.5000  13.2500 Du        
   1710 ****       227.7500  30.5000  13.5000 Du        
   1711 ****       227.7500  30.5000  13.7500 Du        
   1712 ****       227.7500  30.5000  14.0000 Du        
   1713 ****       227.7500  30.5000  14.2500 Du        
   1714 ****       227.7500  30.7500  13.2500 Du        
   1715 ****       227.7500  30.7500  13.5000 Du        
   1716 ****       227.7500  30.7500  13.7500 Du        
   1717 ****       227.7500  30.7500  14.0000 Du        
   1718 ****       227.7500  30.7500  14.2500 Du        
   1719 ****       227.7500  30.7500  14.5000 Du        
   1720 ****       227.7500  30.7500  14.7500 Du        
   1721 ****       227.7500  31.0000  13.2500 Du        
   1722 ****       227.7500  31.0000  13.5000 Du        
   1723 ****       227.7500  31.0000  13.7500 Du        
   1724 ****       227.7500  31.0000  14.0000 Du        
   1725 ****       227.7500  31.0000  14.2500 Du        
   1726 ****       227.7500  31.0000  14.5000 Du        
   1727 ****       227.7500  31.0000  14.7500 Du        
   1728 ****       227.7500  31.2500  13.2500 Du        
   1729 ****       227.7500  31.2500  13.5000 Du        
   1730 ****       227.7500  31.2500  13.7500 Du        
   1731 ****       227.7500  31.2500  14.0000 Du        
   1732 ****       227.7500  31.2500  14.2500 Du        
   1733 ****       227.7500  31.2500  14.5000 Du        
   1734 ****       227.7500  31.2500  14.7500 Du        
   1735 ****       227.7500  31.2500  15.0000 Du        
   1736 ****       227.7500  31.5000  13.0000 Du        
   1737 ****       227.7500  31.5000  13.2500 Du        
   1738 ****       227.7500  31.5000  13.5000 Du        
   1739 ****       227.7500  31.5000  13.7500 Du        
   1740 ****       227.7500  31.5000  14.0000 Du        
   1741 ****       227.7500  31.5000  14.2500 Du        
   1742 ****       227.7500  31.5000  14.5000 Du        
   1743 ****       227.7500  31.5000  14.7500 Du        
   1744 ****       227.7500  31.5000  15.0000 Du        
   1745 ****       227.7500  31.7500  12.7500 Du        
   1746 ****       227.7500  31.7500  13.0000 Du        
   1747 ****       227.7500  31.7500  13.2500 Du        
   1748 ****       227.7500  31.7500  13.5000 Du        
   1749 ****       227.7500  31.7500  13.7500 Du        
   1750 ****       227.7500  31.7500  14.0000 Du        
   1751 ****       227.7500  31.7500  14.2500 Du        
   1752 ****       227.7500  31.7500  14.5000 Du        
   1753 ****       227.7500  31.7500  14.7500 Du        
   1754 ****       227.7500  31.7500  15.0000 Du        
   1755 ****       227.7500  32.0000  12.5000 Du        
   1756 ****       227.7500  32.0000  12.7500 Du        
   1757 ****       227.7500  32.0000  13.0000 Du        
   1758 ****       227.7500  32.0000  13.2500 Du        
   1759 ****       227.7500  32.0000  13.5000 Du        
   1760 ****       227.7500  32.0000  13.7500 Du        
   1761 ****       227.7500  32.0000  14.0000 Du        
   1762 ****       227.7500  32.0000  14.2500 Du        
   1763 ****       227.7500  32.0000  14.5000 Du        
   1764 ****       227.7500  32.0000  14.7500 Du        
   1765 ****       227.7500  32.0000  15.0000 Du        
   1766 ****       227.7500  32.2500  12.5000 Du        
   1767 ****       227.7500  32.2500  12.7500 Du        
   1768 ****       227.7500  32.2500  13.0000 Du        
   1769 ****       227.7500  32.2500  13.2500 Du        
   1770 ****       227.7500  32.2500  13.5000 Du        
   1771 ****       227.7500  32.2500  13.7500 Du        
   1772 ****       227.7500  32.2500  14.0000 Du        
   1773 ****       227.7500  32.2500  14.2500 Du        
   1774 ****       227.7500  32.2500  14.5000 Du        
   1775 ****       227.7500  32.2500  14.7500 Du        
   1776 ****       227.7500  32.2500  15.0000 Du        
   1777 ****       227.7500  32.5000  12.2500 Du        
   1778 ****       227.7500  32.5000  12.5000 Du        
   1779 ****       227.7500  32.5000  12.7500 Du        
   1780 ****       227.7500  32.5000  13.0000 Du        
   1781 ****       227.7500  32.5000  13.2500 Du        
   1782 ****       227.7500  32.5000  13.5000 Du        
   1783 ****       227.7500  32.5000  13.7500 Du        
   1784 ****       227.7500  32.5000  14.0000 Du        
   1785 ****       227.7500  32.5000  14.2500 Du        
   1786 ****       227.7500  32.5000  14.5000 Du        
   1787 ****       227.7500  32.5000  14.7500 Du        
   1788 ****       227.7500  32.5000  15.0000 Du        
   1789 ****       227.7500  32.7500  12.2500 Du        
   1790 ****       227.7500  32.7500  12.5000 Du        
   1791 ****       227.7500  32.7500  12.7500 Du        
   1792 ****       227.7500  32.7500  13.0000 Du        
   1793 ****       227.7500  32.7500  13.2500 Du        
   1794 ****       227.7500  32.7500  13.5000 Du        
   1795 ****       227.7500  32.7500  13.7500 Du        
   1796 ****       227.7500  32.7500  14.0000 Du        
   1797 ****       227.7500  32.7500  14.2500 Du        
   1798 ****       227.7500  32.7500  14.5000 Du        
   1799 ****       227.7500  32.7500  14.7500 Du        
   1800 ****       227.7500  32.7500  15.0000 Du        
   1801 ****       227.7500  33.0000  12.0000 Du        
   1802 ****       227.7500  33.0000  12.2500 Du        
   1803 ****       227.7500  33.0000  12.5000 Du        
   1804 ****       227.7500  33.0000  12.7500 Du        
   1805 ****       227.7500  33.0000  13.0000 Du        
   1806 ****       227.7500  33.0000  13.2500 Du        
   1807 ****       227.7500  33.0000  13.5000 Du        
   1808 ****       227.7500  33.0000  13.7500 Du        
   1809 ****       227.7500  33.0000  14.0000 Du        
   1810 ****       227.7500  33.0000  14.2500 Du        
   1811 ****       227.7500  33.0000  14.5000 Du        
   1812 ****       227.7500  33.0000  14.7500 Du        
   1813 ****       227.7500  33.2500  12.0000 Du        
   1814 ****       227.7500  33.2500  12.2500 Du        
   1815 ****       227.7500  33.2500  12.5000 Du        
   1816 ****       227.7500  33.2500  12.7500 Du        
   1817 ****       227.7500  33.2500  13.0000 Du        
   1818 ****       227.7500  33.2500  13.2500 Du        
   1819 ****       227.7500  33.2500  13.5000 Du        
   1820 ****       227.7500  33.2500  13.7500 Du        
   1821 ****       227.7500  33.2500  14.0000 Du        
   1822 ****       227.7500  33.2500  14.2500 Du        
   1823 ****       227.7500  33.2500  14.5000 Du        
   1824 ****       227.7500  33.2500  14.7500 Du        
   1825 ****       227.7500  33.5000  12.0000 Du        
   1826 ****       227.7500  33.5000  12.2500 Du        
   1827 ****       227.7500  33.5000  12.5000 Du        
   1828 ****       227.7500  33.5000  12.7500 Du        
   1829 ****       227.7500  33.5000  13.0000 Du        
   1830 ****       227.7500  33.5000  13.2500 Du        
   1831 ****       227.7500  33.5000  13.5000 Du        
   1832 ****       227.7500  33.5000  13.7500 Du        
   1833 ****       227.7500  33.5000  14.0000 Du        
   1834 ****       227.7500  33.5000  14.2500 Du        
   1835 ****       227.7500  33.5000  14.5000 Du        
   1836 ****       227.7500  33.5000  14.7500 Du        
   1837 ****       227.7500  33.7500  12.0000 Du        
   1838 ****       227.7500  33.7500  12.2500 Du        
   1839 ****       227.7500  33.7500  12.5000 Du        
   1840 ****       227.7500  33.7500  12.7500 Du        
   1841 ****       227.7500  33.7500  13.0000 Du        
   1842 ****       227.7500  33.7500  13.2500 Du        
   1843 ****       227.7500  33.7500  13.5000 Du        
   1844 ****       227.7500  33.7500  13.7500 Du        
   1845 ****       227.7500  33.7500  14.0000 Du        
   1846 ****       227.7500  33.7500  14.2500 Du        
   1847 ****       227.7500  33.7500  14.5000 Du        
   1848 ****       227.7500  34.0000  12.0000 Du        
   1849 ****       227.7500  34.0000  12.2500 Du        
   1850 ****       227.7500  34.0000  12.5000 Du        
   1851 ****       227.7500  34.0000  12.7500 Du        
   1852 ****       227.7500  34.0000  13.0000 Du        
   1853 ****       227.7500  34.0000  13.2500 Du        
   1854 ****       227.7500  34.0000  13.5000 Du        
   1855 ****       227.7500  34.0000  13.7500 Du        
   1856 ****       227.7500  34.0000  14.0000 Du        
   1857 ****       227.7500  34.0000  14.2500 Du        
   1858 ****       227.7500  34.2500  12.2500 Du        
   1859 ****       227.7500  34.2500  12.5000 Du        
   1860 ****       227.7500  34.2500  12.7500 Du        
   1861 ****       227.7500  34.2500  13.0000 Du        
   1862 ****       227.7500  34.2500  13.2500 Du        
   1863 ****       227.7500  34.2500  13.5000 Du        
   1864 ****       227.7500  34.2500  13.7500 Du        
   1865 ****       227.7500  34.2500  14.0000 Du        
   1866 ****       227.7500  34.2500  14.2500 Du        
   1867 ****       227.7500  34.5000  12.5000 Du        
   1868 ****       227.7500  34.5000  12.7500 Du        
   1869 ****       227.7500  34.5000  13.0000 Du        
   1870 ****       227.7500  34.5000  13.2500 Du        
   1871 ****       227.7500  34.5000  13.5000 Du        
   1872 ****       227.7500  34.5000  13.7500 Du        
   1873 ****       227.7500  34.5000  14.0000 Du        
   1874 ****       227.7500  34.7500  12.7500 Du        
   1875 ****       227.7500  34.7500  13.0000 Du        
   1876 ****       227.7500  34.7500  13.2500 Du        
   1877 ****       227.7500  34.7500  13.5000 Du        
   1878 ****       227.7500  34.7500  13.7500 Du        
   1879 ****       227.7500  35.0000  12.7500 Du        
   1880 ****       227.7500  35.0000  13.0000 Du        
   1881 ****       227.7500  35.0000  13.2500 Du        
   1882 ****       227.7500  35.0000  13.5000 Du        
   1883 ****       227.7500  35.2500  13.0000 Du        
   1884 ****       227.7500  35.2500  13.2500 Du        
   1885 ****       228.0000  18.5000  13.7500 Du        
   1886 ****       228.0000  18.5000  14.0000 Du        
   1887 ****       228.0000  18.5000  14.2500 Du        
   1888 ****       228.0000  18.7500  13.7500 Du        
   1889 ****       228.0000  18.7500  14.0000 Du        
   1890 ****       228.0000  18.7500  14.2500 Du        
   1891 ****       228.0000  19.0000  13.7500 Du        
   1892 ****       228.0000  19.0000  14.0000 Du        
   1893 ****       228.0000  19.0000  14.2500 Du        
   1894 ****       228.0000  19.0000  14.5000 Du        
   1895 ****       228.0000  19.0000  14.7500 Du        
   1896 ****       228.0000  19.2500  13.7500 Du        
   1897 ****       228.0000  19.2500  14.0000 Du        
   1898 ****       228.0000  19.2500  14.2500 Du        
   1899 ****       228.0000  20.7500  14.0000 Du        
   1900 ****       228.0000  21.0000  13.7500 Du        
   1901 ****       228.0000  21.0000  14.0000 Du        
   1902 ****       228.0000  21.2500  13.7500 Du        
   1903 ****       228.0000  21.2500  14.0000 Du        
   1904 ****       228.0000  21.7500  14.0000 Du        
   1905 ****       228.0000  21.7500  15.0000 Du        
   1906 ****       228.0000  22.0000  13.7500 Du        
   1907 ****       228.0000  22.0000  14.0000 Du        
   1908 ****       228.0000  22.0000  14.7500 Du        
   1909 ****       228.0000  22.0000  15.0000 Du        
   1910 ****       228.0000  22.2500  13.7500 Du        
   1911 ****       228.0000  22.2500  14.0000 Du        
   1912 ****       228.0000  22.2500  14.7500 Du        
   1913 ****       228.0000  22.2500  15.0000 Du        
   1914 ****       228.0000  22.7500  13.2500 Du        
   1915 ****       228.0000  22.7500  15.0000 Du        
   1916 ****       228.0000  23.0000  15.0000 Du        
   1917 ****       228.0000  23.0000  15.2500 Du        
   1918 ****       228.0000  23.2500  15.0000 Du        
   1919 ****       228.0000  24.5000  12.0000 Du        
   1920 ****       228.0000  24.7500  11.7500 Du        
   1921 ****       228.0000  24.7500  12.0000 Du        
   1922 ****       228.0000  24.7500  12.2500 Du        
   1923 ****       228.0000  25.0000  12.0000 Du        
   1924 ****       228.0000  25.0000  12.2500 Du        
   1925 ****       228.0000  27.7500  12.2500 Du        
   1926 ****       228.0000  27.7500  12.5000 Du        
   1927 ****       228.0000  28.0000  12.0000 Du        
   1928 ****       228.0000  28.0000  12.2500 Du        
   1929 ****       228.0000  28.0000  12.5000 Du        
   1930 ****       228.0000  28.0000  12.7500 Du        
   1931 ****       228.0000  28.0000  13.0000 Du        
   1932 ****       228.0000  28.2500  11.7500 Du        
   1933 ****       228.0000  28.2500  12.0000 Du        
   1934 ****       228.0000  28.2500  12.2500 Du        
   1935 ****       228.0000  28.2500  12.5000 Du        
   1936 ****       228.0000  28.2500  12.7500 Du        
   1937 ****       228.0000  28.2500  13.0000 Du        
   1938 ****       228.0000  28.5000  11.5000 Du        
   1939 ****       228.0000  28.5000  11.7500 Du        
   1940 ****       228.0000  28.5000  12.0000 Du        
   1941 ****       228.0000  28.5000  12.2500 Du        
   1942 ****       228.0000  28.5000  12.5000 Du        
   1943 ****       228.0000  28.5000  12.7500 Du        
   1944 ****       228.0000  28.5000  13.0000 Du        
   1945 ****       228.0000  28.5000  13.2500 Du        
   1946 ****       228.0000  28.7500  11.2500 Du        
   1947 ****       228.0000  28.7500  11.5000 Du        
   1948 ****       228.0000  28.7500  11.7500 Du        
   1949 ****       228.0000  28.7500  12.0000 Du        
   1950 ****       228.0000  28.7500  12.2500 Du        
   1951 ****       228.0000  28.7500  12.5000 Du        
   1952 ****       228.0000  28.7500  12.7500 Du        
   1953 ****       228.0000  28.7500  13.0000 Du        
   1954 ****       228.0000  28.7500  13.2500 Du        
   1955 ****       228.0000  29.0000  11.0000 Du        
   1956 ****       228.0000  29.0000  11.2500 Du        
   1957 ****       228.0000  29.0000  11.5000 Du        
   1958 ****       228.0000  29.0000  11.7500 Du        
   1959 ****       228.0000  29.0000  12.0000 Du        
   1960 ****       228.0000  29.0000  12.2500 Du        
   1961 ****       228.0000  29.0000  12.5000 Du        
   1962 ****       228.0000  29.0000  12.7500 Du        
   1963 ****       228.0000  29.0000  13.0000 Du        
   1964 ****       228.0000  29.0000  13.2500 Du        
   1965 ****       228.0000  29.0000  13.5000 Du        
   1966 ****       228.0000  29.2500  10.7500 Du        
   1967 ****       228.0000  29.2500  11.0000 Du        
   1968 ****       228.0000  29.2500  11.2500 Du        
   1969 ****       228.0000  29.2500  11.5000 Du        
   1970 ****       228.0000  29.2500  11.7500 Du        
   1971 ****       228.0000  29.2500  12.0000 Du        
   1972 ****       228.0000  29.2500  12.2500 Du        
   1973 ****       228.0000  29.2500  12.5000 Du        
   1974 ****       228.0000  29.2500  12.7500 Du        
   1975 ****       228.0000  29.2500  13.0000 Du        
   1976 ****       228.0000  29.2500  13.2500 Du        
   1977 ****       228.0000  29.2500  13.5000 Du        
   1978 ****       228.0000  29.5000  11.0000 Du        
   1979 ****       228.0000  29.5000  11.2500 Du        
   1980 ****       228.0000  29.5000  11.5000 Du        
   1981 ****       228.0000  29.5000  11.7500 Du        
   1982 ****       228.0000  29.5000  12.0000 Du        
   1983 ****       228.0000  29.5000  12.2500 Du        
   1984 ****       228.0000  29.5000  12.5000 Du        
   1985 ****       228.0000  29.5000  12.7500 Du        
   1986 ****       228.0000  29.5000  13.0000 Du        
   1987 ****       228.0000  29.5000  13.2500 Du        
   1988 ****       228.0000  29.5000  13.5000 Du        
   1989 ****       228.0000  29.7500  11.2500 Du        
   1990 ****       228.0000  29.7500  11.5000 Du        
   1991 ****       228.0000  29.7500  11.7500 Du        
   1992 ****       228.0000  29.7500  12.0000 Du        
   1993 ****       228.0000  29.7500  12.2500 Du        
   1994 ****       228.0000  29.7500  12.5000 Du        
   1995 ****       228.0000  29.7500  12.7500 Du        
   1996 ****       228.0000  29.7500  13.0000 Du        
   1997 ****       228.0000  29.7500  13.2500 Du        
   1998 ****       228.0000  29.7500  13.5000 Du        
   1999 ****       228.0000  29.7500  13.7500 Du        
   2000 ****       228.0000  30.0000  11.7500 Du        
   2001 ****       228.0000  30.0000  12.0000 Du        
   2002 ****       228.0000  30.0000  12.2500 Du        
   2003 ****       228.0000  30.0000  12.5000 Du        
   2004 ****       228.0000  30.0000  12.7500 Du        
   2005 ****       228.0000  30.0000  13.0000 Du        
   2006 ****       228.0000  30.0000  13.2500 Du        
   2007 ****       228.0000  30.0000  13.5000 Du        
   2008 ****       228.0000  30.0000  13.7500 Du        
   2009 ****       228.0000  30.2500  12.0000 Du        
   2010 ****       228.0000  30.2500  12.2500 Du        
   2011 ****       228.0000  30.2500  12.5000 Du        
   2012 ****       228.0000  30.2500  12.7500 Du        
   2013 ****       228.0000  30.2500  13.0000 Du        
   2014 ****       228.0000  30.2500  13.2500 Du        
   2015 ****       228.0000  30.2500  13.5000 Du        
   2016 ****       228.0000  30.2500  13.7500 Du        
   2017 ****       228.0000  30.2500  14.0000 Du        
   2018 ****       228.0000  30.5000  12.2500 Du        
   2019 ****       228.0000  30.5000  12.5000 Du        
   2020 ****       228.0000  30.5000  12.7500 Du        
   2021 ****       228.0000  30.5000  13.0000 Du        
   2022 ****       228.0000  30.5000  13.2500 Du        
   2023 ****       228.0000  30.5000  13.5000 Du        
   2024 ****       228.0000  30.5000  13.7500 Du        
   2025 ****       228.0000  30.5000  14.0000 Du        
   2026 ****       228.0000  30.5000  14.2500 Du        
   2027 ****       228.0000  30.7500  12.2500 Du        
   2028 ****       228.0000  30.7500  12.5000 Du        
   2029 ****       228.0000  30.7500  12.7500 Du        
   2030 ****       228.0000  30.7500  13.0000 Du        
   2031 ****       228.0000  30.7500  13.2500 Du        
   2032 ****       228.0000  30.7500  13.5000 Du        
   2033 ****       228.0000  30.7500  13.7500 Du        
   2034 ****       228.0000  30.7500  14.0000 Du        
   2035 ****       228.0000  30.7500  14.2500 Du        
   2036 ****       228.0000  30.7500  14.5000 Du        
   2037 ****       228.0000  31.0000  12.5000 Du        
   2038 ****       228.0000  31.0000  12.7500 Du        
   2039 ****       228.0000  31.0000  13.0000 Du        
   2040 ****       228.0000  31.0000  13.2500 Du        
   2041 ****       228.0000  31.0000  13.5000 Du        
   2042 ****       228.0000  31.0000  13.7500 Du        
   2043 ****       228.0000  31.0000  14.0000 Du        
   2044 ****       228.0000  31.0000  14.2500 Du        
   2045 ****       228.0000  31.0000  14.5000 Du        
   2046 ****       228.0000  31.0000  14.7500 Du        
   2047 ****       228.0000  31.2500  12.5000 Du        
   2048 ****       228.0000  31.2500  12.7500 Du        
   2049 ****       228.0000  31.2500  13.0000 Du        
   2050 ****       228.0000  31.2500  13.2500 Du        
   2051 ****       228.0000  31.2500  13.5000 Du        
   2052 ****       228.0000  31.2500  13.7500 Du        
   2053 ****       228.0000  31.2500  14.0000 Du        
   2054 ****       228.0000  31.2500  14.2500 Du        
   2055 ****       228.0000  31.2500  14.5000 Du        
   2056 ****       228.0000  31.2500  14.7500 Du        
   2057 ****       228.0000  31.5000  12.5000 Du        
   2058 ****       228.0000  31.5000  12.7500 Du        
   2059 ****       228.0000  31.5000  13.0000 Du        
   2060 ****       228.0000  31.5000  13.2500 Du        
   2061 ****       228.0000  31.5000  13.5000 Du        
   2062 ****       228.0000  31.5000  13.7500 Du        
   2063 ****       228.0000  31.5000  14.0000 Du        
   2064 ****       228.0000  31.5000  14.2500 Du        
   2065 ****       228.0000  31.5000  14.5000 Du        
   2066 ****       228.0000  31.5000  14.7500 Du        
   2067 ****       228.0000  31.5000  15.0000 Du        
   2068 ****       228.0000  31.7500  12.5000 Du        
   2069 ****       228.0000  31.7500  12.7500 Du        
   2070 ****       228.0000  31.7500  13.0000 Du        
   2071 ****       228.0000  31.7500  13.2500 Du        
   2072 ****       228.0000  31.7500  13.5000 Du        
   2073 ****       228.0000  31.7500  13.7500 Du        
   2074 ****       228.0000  31.7500  14.0000 Du        
   2075 ****       228.0000  31.7500  14.2500 Du        
   2076 ****       228.0000  31.7500  14.5000 Du        
   2077 ****       228.0000  31.7500  14.7500 Du        
   2078 ****       228.0000  31.7500  15.0000 Du        
   2079 ****       228.0000  32.0000  12.5000 Du        
   2080 ****       228.0000  32.0000  12.7500 Du        
   2081 ****       228.0000  32.0000  13.0000 Du        
   2082 ****       228.0000  32.0000  13.2500 Du        
   2083 ****       228.0000  32.0000  13.5000 Du        
   2084 ****       228.0000  32.0000  13.7500 Du        
   2085 ****       228.0000  32.0000  14.0000 Du        
   2086 ****       228.0000  32.0000  14.2500 Du        
   2087 ****       228.0000  32.0000  14.5000 Du        
   2088 ****       228.0000  32.0000  14.7500 Du        
   2089 ****       228.0000  32.0000  15.0000 Du        
   2090 ****       228.0000  32.2500  12.5000 Du        
   2091 ****       228.0000  32.2500  12.7500 Du        
   2092 ****       228.0000  32.2500  13.0000 Du        
   2093 ****       228.0000  32.2500  13.2500 Du        
   2094 ****       228.0000  32.2500  13.5000 Du        
   2095 ****       228.0000  32.2500  13.7500 Du        
   2096 ****       228.0000  32.2500  14.0000 Du        
   2097 ****       228.0000  32.2500  14.2500 Du        
   2098 ****       228.0000  32.2500  14.5000 Du        
   2099 ****       228.0000  32.2500  14.7500 Du        
   2100 ****       228.0000  32.2500  15.0000 Du        
   2101 ****       228.0000  32.5000  12.2500 Du        
   2102 ****       228.0000  32.5000  12.5000 Du        
   2103 ****       228.0000  32.5000  12.7500 Du        
   2104 ****       228.0000  32.5000  13.0000 Du        
   2105 ****       228.0000  32.5000  13.2500 Du        
   2106 ****       228.0000  32.5000  13.5000 Du        
   2107 ****       228.0000  32.5000  13.7500 Du        
   2108 ****       228.0000  32.5000  14.0000 Du        
   2109 ****       228.0000  32.5000  14.2500 Du        
   2110 ****       228.0000  32.5000  14.5000 Du        
   2111 ****       228.0000  32.5000  14.7500 Du        
   2112 ****       228.0000  32.5000  15.0000 Du        
   2113 ****       228.0000  32.7500  12.2500 Du        
   2114 ****       228.0000  32.7500  12.5000 Du        
   2115 ****       228.0000  32.7500  12.7500 Du        
   2116 ****       228.0000  32.7500  13.0000 Du        
   2117 ****       228.0000  32.7500  13.2500 Du        
   2118 ****       228.0000  32.7500  13.5000 Du        
   2119 ****       228.0000  32.7500  13.7500 Du        
   2120 ****       228.0000  32.7500  14.0000 Du        
   2121 ****       228.0000  32.7500  14.2500 Du        
   2122 ****       228.0000  32.7500  14.5000 Du        
   2123 ****       228.0000  32.7500  14.7500 Du        
   2124 ****       228.0000  32.7500  15.0000 Du        
   2125 ****       228.0000  33.0000  12.2500 Du        
   2126 ****       228.0000  33.0000  12.5000 Du        
   2127 ****       228.0000  33.0000  12.7500 Du        
   2128 ****       228.0000  33.0000  13.0000 Du        
   2129 ****       228.0000  33.0000  13.2500 Du        
   2130 ****       228.0000  33.0000  13.5000 Du        
   2131 ****       228.0000  33.0000  13.7500 Du        
   2132 ****       228.0000  33.0000  14.0000 Du        
   2133 ****       228.0000  33.0000  14.2500 Du        
   2134 ****       228.0000  33.0000  14.5000 Du        
   2135 ****       228.0000  33.0000  14.7500 Du        
   2136 ****       228.0000  33.0000  15.0000 Du        
   2137 ****       228.0000  33.2500  12.0000 Du        
   2138 ****       228.0000  33.2500  12.2500 Du        
   2139 ****       228.0000  33.2500  12.5000 Du        
   2140 ****       228.0000  33.2500  12.7500 Du        
   2141 ****       228.0000  33.2500  13.0000 Du        
   2142 ****       228.0000  33.2500  13.2500 Du        
   2143 ****       228.0000  33.2500  13.5000 Du        
   2144 ****       228.0000  33.2500  13.7500 Du        
   2145 ****       228.0000  33.2500  14.0000 Du        
   2146 ****       228.0000  33.2500  14.2500 Du        
   2147 ****       228.0000  33.2500  14.5000 Du        
   2148 ****       228.0000  33.2500  14.7500 Du        
   2149 ****       228.0000  33.2500  15.0000 Du        
   2150 ****       228.0000  33.5000  12.0000 Du        
   2151 ****       228.0000  33.5000  12.2500 Du        
   2152 ****       228.0000  33.5000  12.5000 Du        
   2153 ****       228.0000  33.5000  12.7500 Du        
   2154 ****       228.0000  33.5000  13.0000 Du        
   2155 ****       228.0000  33.5000  13.2500 Du        
   2156 ****       228.0000  33.5000  13.5000 Du        
   2157 ****       228.0000  33.5000  13.7500 Du        
   2158 ****       228.0000  33.5000  14.0000 Du        
   2159 ****       228.0000  33.5000  14.2500 Du        
   2160 ****       228.0000  33.5000  14.5000 Du        
   2161 ****       228.0000  33.5000  14.7500 Du        
   2162 ****       228.0000  33.7500  12.0000 Du        
   2163 ****       228.0000  33.7500  12.2500 Du        
   2164 ****       228.0000  33.7500  12.5000 Du        
   2165 ****       228.0000  33.7500  12.7500 Du        
   2166 ****       228.0000  33.7500  13.0000 Du        
   2167 ****       228.0000  33.7500  13.2500 Du        
   2168 ****       228.0000  33.7500  13.5000 Du        
   2169 ****       228.0000  33.7500  13.7500 Du        
   2170 ****       228.0000  33.7500  14.0000 Du        
   2171 ****       228.0000  33.7500  14.2500 Du        
   2172 ****       228.0000  33.7500  14.5000 Du        
   2173 ****       228.0000  33.7500  14.7500 Du        
   2174 ****       228.0000  34.0000  12.0000 Du        
   2175 ****       228.0000  34.0000  12.2500 Du        
   2176 ****       228.0000  34.0000  12.5000 Du        
   2177 ****       228.0000  34.0000  12.7500 Du        
   2178 ****       228.0000  34.0000  13.0000 Du        
   2179 ****       228.0000  34.0000  13.2500 Du        
   2180 ****       228.0000  34.0000  13.5000 Du        
   2181 ****       228.0000  34.0000  13.7500 Du        
   2182 ****       228.0000  34.0000  14.0000 Du        
   2183 ****       228.0000  34.0000  14.2500 Du        
   2184 ****       228.0000  34.0000  14.5000 Du        
   2185 ****       228.0000  34.2500  12.2500 Du        
   2186 ****       228.0000  34.2500  12.5000 Du        
   2187 ****       228.0000  34.2500  12.7500 Du        
   2188 ****       228.0000  34.2500  13.0000 Du        
   2189 ****       228.0000  34.2500  13.2500 Du        
   2190 ****       228.0000  34.2500  13.5000 Du        
   2191 ****       228.0000  34.2500  13.7500 Du        
   2192 ****       228.0000  34.2500  14.0000 Du        
   2193 ****       228.0000  34.2500  14.2500 Du        
   2194 ****       228.0000  34.5000  12.5000 Du        
   2195 ****       228.0000  34.5000  12.7500 Du        
   2196 ****       228.0000  34.5000  13.0000 Du        
   2197 ****       228.0000  34.5000  13.2500 Du        
   2198 ****       228.0000  34.5000  13.5000 Du        
   2199 ****       228.0000  34.5000  13.7500 Du        
   2200 ****       228.0000  34.5000  14.0000 Du        
   2201 ****       228.0000  34.7500  12.7500 Du        
   2202 ****       228.0000  34.7500  13.0000 Du        
   2203 ****       228.0000  34.7500  13.2500 Du        
   2204 ****       228.0000  34.7500  13.5000 Du        
   2205 ****       228.0000  34.7500  13.7500 Du        
   2206 ****       228.0000  35.0000  13.0000 Du        
   2207 ****       228.0000  35.0000  13.2500 Du        
   2208 ****       228.0000  35.0000  13.5000 Du        
   2209 ****       228.0000  35.2500  13.0000 Du        
   2210 ****       228.0000  35.2500  13.2500 Du        
   2211 ****       228.2500  18.5000  13.7500 Du        
   2212 ****       228.2500  18.5000  14.0000 Du        
   2213 ****       228.2500  18.5000  14.2500 Du        
   2214 ****       228.2500  18.7500  13.7500 Du        
   2215 ****       228.2500  18.7500  14.0000 Du        
   2216 ****       228.2500  18.7500  14.2500 Du        
   2217 ****       228.2500  19.0000  13.7500 Du        
   2218 ****       228.2500  19.0000  14.0000 Du        
   2219 ****       228.2500  19.0000  14.2500 Du        
   2220 ****       228.2500  19.2500  13.7500 Du        
   2221 ****       228.2500  19.2500  14.0000 Du        
   2222 ****       228.2500  21.0000  13.7500 Du        
   2223 ****       228.2500  21.0000  14.0000 Du        
   2224 ****       228.2500  21.2500  13.7500 Du        
   2225 ****       228.2500  21.2500  14.0000 Du        
   2226 ****       228.2500  21.5000  14.0000 Du        
   2227 ****       228.2500  21.5000  14.2500 Du        
   2228 ****       228.2500  21.7500  14.0000 Du        
   2229 ****       228.2500  21.7500  14.2500 Du        
   2230 ****       228.2500  21.7500  14.5000 Du        
   2231 ****       228.2500  21.7500  14.7500 Du        
   2232 ****       228.2500  21.7500  15.0000 Du        
   2233 ****       228.2500  22.0000  13.7500 Du        
   2234 ****       228.2500  22.0000  14.0000 Du        
   2235 ****       228.2500  22.0000  14.2500 Du        
   2236 ****       228.2500  22.0000  14.5000 Du        
   2237 ****       228.2500  22.0000  14.7500 Du        
   2238 ****       228.2500  22.0000  15.0000 Du        
   2239 ****       228.2500  22.2500  13.7500 Du        
   2240 ****       228.2500  22.2500  14.0000 Du        
   2241 ****       228.2500  22.2500  14.2500 Du        
   2242 ****       228.2500  22.2500  14.5000 Du        
   2243 ****       228.2500  22.2500  14.7500 Du        
   2244 ****       228.2500  22.2500  15.0000 Du        
   2245 ****       228.2500  22.5000  14.0000 Du        
   2246 ****       228.2500  22.5000  14.2500 Du        
   2247 ****       228.2500  22.5000  14.7500 Du        
   2248 ****       228.2500  22.5000  15.0000 Du        
   2249 ****       228.2500  22.7500  13.7500 Du        
   2250 ****       228.2500  22.7500  14.0000 Du        
   2251 ****       228.2500  22.7500  14.7500 Du        
   2252 ****       228.2500  22.7500  15.0000 Du        
   2253 ****       228.2500  23.0000  13.2500 Du        
   2254 ****       228.2500  23.0000  13.7500 Du        
   2255 ****       228.2500  23.0000  14.0000 Du        
   2256 ****       228.2500  23.0000  14.2500 Du        
   2257 ****       228.2500  23.0000  14.7500 Du        
   2258 ****       228.2500  23.0000  15.0000 Du        
   2259 ****       228.2500  23.2500  14.7500 Du        
   2260 ****       228.2500  23.2500  15.0000 Du        
   2261 ****       228.2500  24.7500  11.2500 Du        
   2262 ****       228.2500  24.7500  11.7500 Du        
   2263 ****       228.2500  24.7500  12.0000 Du        
   2264 ****       228.2500  24.7500  12.2500 Du        
   2265 ****       228.2500  25.0000  11.5000 Du        
   2266 ****       228.2500  25.0000  11.7500 Du        
   2267 ****       228.2500  25.0000  12.0000 Du        
   2268 ****       228.2500  25.0000  12.2500 Du        
   2269 ****       228.2500  25.2500  11.7500 Du        
   2270 ****       228.2500  25.2500  12.0000 Du        
   2271 ****       228.2500  25.2500  12.2500 Du        
   2272 ****       228.2500  25.5000  12.0000 Du        
   2273 ****       228.2500  27.5000  12.2500 Du        
   2274 ****       228.2500  27.7500  12.0000 Du        
   2275 ****       228.2500  27.7500  12.2500 Du        
   2276 ****       228.2500  27.7500  12.5000 Du        
   2277 ****       228.2500  28.0000  11.7500 Du        
   2278 ****       228.2500  28.0000  12.0000 Du        
   2279 ****       228.2500  28.0000  12.2500 Du        
   2280 ****       228.2500  28.0000  12.5000 Du        
   2281 ****       228.2500  28.0000  12.7500 Du        
   2282 ****       228.2500  28.2500  11.7500 Du        
   2283 ****       228.2500  28.2500  12.0000 Du        
   2284 ****       228.2500  28.2500  12.2500 Du        
   2285 ****       228.2500  28.2500  12.5000 Du        
   2286 ****       228.2500  28.2500  12.7500 Du        
   2287 ****       228.2500  28.2500  13.0000 Du        
   2288 ****       228.2500  28.5000  11.2500 Du        
   2289 ****       228.2500  28.5000  11.5000 Du        
   2290 ****       228.2500  28.5000  11.7500 Du        
   2291 ****       228.2500  28.5000  12.0000 Du        
   2292 ****       228.2500  28.5000  12.2500 Du        
   2293 ****       228.2500  28.5000  12.5000 Du        
   2294 ****       228.2500  28.5000  12.7500 Du        
   2295 ****       228.2500  28.5000  13.0000 Du        
   2296 ****       228.2500  28.7500  11.0000 Du        
   2297 ****       228.2500  28.7500  11.2500 Du        
   2298 ****       228.2500  28.7500  11.5000 Du        
   2299 ****       228.2500  28.7500  11.7500 Du        
   2300 ****       228.2500  28.7500  12.0000 Du        
   2301 ****       228.2500  28.7500  12.2500 Du        
   2302 ****       228.2500  28.7500  12.5000 Du        
   2303 ****       228.2500  28.7500  12.7500 Du        
   2304 ****       228.2500  28.7500  13.0000 Du        
   2305 ****       228.2500  29.0000  10.7500 Du        
   2306 ****       228.2500  29.0000  11.0000 Du        
   2307 ****       228.2500  29.0000  11.2500 Du        
   2308 ****       228.2500  29.0000  11.5000 Du        
   2309 ****       228.2500  29.0000  11.7500 Du        
   2310 ****       228.2500  29.0000  12.0000 Du        
   2311 ****       228.2500  29.0000  12.2500 Du        
   2312 ****       228.2500  29.0000  12.5000 Du        
   2313 ****       228.2500  29.0000  12.7500 Du        
   2314 ****       228.2500  29.0000  13.0000 Du        
   2315 ****       228.2500  29.0000  13.2500 Du        
   2316 ****       228.2500  29.2500  10.7500 Du        
   2317 ****       228.2500  29.2500  11.0000 Du        
   2318 ****       228.2500  29.2500  11.2500 Du        
   2319 ****       228.2500  29.2500  11.5000 Du        
   2320 ****       228.2500  29.2500  11.7500 Du        
   2321 ****       228.2500  29.2500  12.0000 Du        
   2322 ****       228.2500  29.2500  12.2500 Du        
   2323 ****       228.2500  29.2500  12.5000 Du        
   2324 ****       228.2500  29.2500  12.7500 Du        
   2325 ****       228.2500  29.2500  13.0000 Du        
   2326 ****       228.2500  29.2500  13.2500 Du        
   2327 ****       228.2500  29.5000  11.0000 Du        
   2328 ****       228.2500  29.5000  11.2500 Du        
   2329 ****       228.2500  29.5000  11.5000 Du        
   2330 ****       228.2500  29.5000  11.7500 Du        
   2331 ****       228.2500  29.5000  12.0000 Du        
   2332 ****       228.2500  29.5000  12.2500 Du        
   2333 ****       228.2500  29.5000  12.5000 Du        
   2334 ****       228.2500  29.5000  12.7500 Du        
   2335 ****       228.2500  29.5000  13.0000 Du        
   2336 ****       228.2500  29.5000  13.2500 Du        
   2337 ****       228.2500  29.7500  11.2500 Du        
   2338 ****       228.2500  29.7500  11.5000 Du        
   2339 ****       228.2500  29.7500  11.7500 Du        
   2340 ****       228.2500  29.7500  12.0000 Du        
   2341 ****       228.2500  29.7500  12.2500 Du        
   2342 ****       228.2500  29.7500  12.5000 Du        
   2343 ****       228.2500  29.7500  12.7500 Du        
   2344 ****       228.2500  29.7500  13.0000 Du        
   2345 ****       228.2500  29.7500  13.2500 Du        
   2346 ****       228.2500  29.7500  13.5000 Du        
   2347 ****       228.2500  30.0000  11.7500 Du        
   2348 ****       228.2500  30.0000  12.0000 Du        
   2349 ****       228.2500  30.0000  12.2500 Du        
   2350 ****       228.2500  30.0000  12.5000 Du        
   2351 ****       228.2500  30.0000  12.7500 Du        
   2352 ****       228.2500  30.0000  13.0000 Du        
   2353 ****       228.2500  30.0000  13.2500 Du        
   2354 ****       228.2500  30.0000  13.5000 Du        
   2355 ****       228.2500  30.0000  13.7500 Du        
   2356 ****       228.2500  30.2500  12.0000 Du        
   2357 ****       228.2500  30.2500  12.2500 Du        
   2358 ****       228.2500  30.2500  12.5000 Du        
   2359 ****       228.2500  30.2500  12.7500 Du        
   2360 ****       228.2500  30.2500  13.0000 Du        
   2361 ****       228.2500  30.2500  13.2500 Du        
   2362 ****       228.2500  30.2500  13.5000 Du        
   2363 ****       228.2500  30.2500  13.7500 Du        
   2364 ****       228.2500  30.5000  12.2500 Du        
   2365 ****       228.2500  30.5000  12.5000 Du        
   2366 ****       228.2500  30.5000  12.7500 Du        
   2367 ****       228.2500  30.5000  13.0000 Du        
   2368 ****       228.2500  30.5000  13.2500 Du        
   2369 ****       228.2500  30.5000  13.5000 Du        
   2370 ****       228.2500  30.5000  13.7500 Du        
   2371 ****       228.2500  30.5000  14.0000 Du        
   2372 ****       228.2500  30.7500  12.2500 Du        
   2373 ****       228.2500  30.7500  12.5000 Du        
   2374 ****       228.2500  30.7500  12.7500 Du        
   2375 ****       228.2500  30.7500  13.0000 Du        
   2376 ****       228.2500  30.7500  13.2500 Du        
   2377 ****       228.2500  30.7500  13.5000 Du        
   2378 ****       228.2500  30.7500  13.7500 Du        
   2379 ****       228.2500  30.7500  14.0000 Du        
   2380 ****       228.2500  30.7500  14.2500 Du        
   2381 ****       228.2500  31.0000  12.5000 Du        
   2382 ****       228.2500  31.0000  12.7500 Du        
   2383 ****       228.2500  31.0000  13.0000 Du        
   2384 ****       228.2500  31.0000  13.2500 Du        
   2385 ****       228.2500  31.0000  13.5000 Du        
   2386 ****       228.2500  31.0000  13.7500 Du        
   2387 ****       228.2500  31.0000  14.0000 Du        
   2388 ****       228.2500  31.0000  14.2500 Du        
   2389 ****       228.2500  31.0000  14.5000 Du        
   2390 ****       228.2500  31.2500  12.5000 Du        
   2391 ****       228.2500  31.2500  12.7500 Du        
   2392 ****       228.2500  31.2500  13.0000 Du        
   2393 ****       228.2500  31.2500  13.2500 Du        
   2394 ****       228.2500  31.2500  13.5000 Du        
   2395 ****       228.2500  31.2500  13.7500 Du        
   2396 ****       228.2500  31.2500  14.0000 Du        
   2397 ****       228.2500  31.2500  14.2500 Du        
   2398 ****       228.2500  31.2500  14.5000 Du        
   2399 ****       228.2500  31.2500  14.7500 Du        
   2400 ****       228.2500  31.5000  12.5000 Du        
   2401 ****       228.2500  31.5000  12.7500 Du        
   2402 ****       228.2500  31.5000  13.0000 Du        
   2403 ****       228.2500  31.5000  13.2500 Du        
   2404 ****       228.2500  31.5000  13.5000 Du        
   2405 ****       228.2500  31.5000  13.7500 Du        
   2406 ****       228.2500  31.5000  14.0000 Du        
   2407 ****       228.2500  31.5000  14.2500 Du        
   2408 ****       228.2500  31.5000  14.5000 Du        
   2409 ****       228.2500  31.5000  14.7500 Du        
   2410 ****       228.2500  31.7500  12.5000 Du        
   2411 ****       228.2500  31.7500  12.7500 Du        
   2412 ****       228.2500  31.7500  13.0000 Du        
   2413 ****       228.2500  31.7500  13.2500 Du        
   2414 ****       228.2500  31.7500  13.5000 Du        
   2415 ****       228.2500  31.7500  13.7500 Du        
   2416 ****       228.2500  31.7500  14.0000 Du        
   2417 ****       228.2500  31.7500  14.2500 Du        
   2418 ****       228.2500  31.7500  14.5000 Du        
   2419 ****       228.2500  31.7500  14.7500 Du        
   2420 ****       228.2500  32.0000  12.5000 Du        
   2421 ****       228.2500  32.0000  12.7500 Du        
   2422 ****       228.2500  32.0000  13.0000 Du        
   2423 ****       228.2500  32.0000  13.2500 Du        
   2424 ****       228.2500  32.0000  13.5000 Du        
   2425 ****       228.2500  32.0000  13.7500 Du        
   2426 ****       228.2500  32.0000  14.0000 Du        
   2427 ****       228.2500  32.0000  14.2500 Du        
   2428 ****       228.2500  32.0000  14.5000 Du        
   2429 ****       228.2500  32.0000  14.7500 Du        
   2430 ****       228.2500  32.0000  15.0000 Du        
   2431 ****       228.2500  32.2500  12.5000 Du        
   2432 ****       228.2500  32.2500  12.7500 Du        
   2433 ****       228.2500  32.2500  13.0000 Du        
   2434 ****       228.2500  32.2500  13.2500 Du        
   2435 ****       228.2500  32.2500  13.5000 Du        
   2436 ****       228.2500  32.2500  13.7500 Du        
   2437 ****       228.2500  32.2500  14.0000 Du        
   2438 ****       228.2500  32.2500  14.2500 Du        
   2439 ****       228.2500  32.2500  14.5000 Du        
   2440 ****       228.2500  32.2500  14.7500 Du        
   2441 ****       228.2500  32.2500  15.0000 Du        
   2442 ****       228.2500  32.5000  12.5000 Du        
   2443 ****       228.2500  32.5000  12.7500 Du        
   2444 ****       228.2500  32.5000  13.0000 Du        
   2445 ****       228.2500  32.5000  13.2500 Du        
   2446 ****       228.2500  32.5000  13.5000 Du        
   2447 ****       228.2500  32.5000  13.7500 Du        
   2448 ****       228.2500  32.5000  14.0000 Du        
   2449 ****       228.2500  32.5000  14.2500 Du        
   2450 ****       228.2500  32.5000  14.5000 Du        
   2451 ****       228.2500  32.5000  14.7500 Du        
   2452 ****       228.2500  32.5000  15.0000 Du        
   2453 ****       228.2500  32.7500  12.2500 Du        
   2454 ****       228.2500  32.7500  12.5000 Du        
   2455 ****       228.2500  32.7500  12.7500 Du        
   2456 ****       228.2500  32.7500  13.0000 Du        
   2457 ****       228.2500  32.7500  13.2500 Du        
   2458 ****       228.2500  32.7500  13.5000 Du        
   2459 ****       228.2500  32.7500  13.7500 Du        
   2460 ****       228.2500  32.7500  14.0000 Du        
   2461 ****       228.2500  32.7500  14.2500 Du        
   2462 ****       228.2500  32.7500  14.5000 Du        
   2463 ****       228.2500  32.7500  14.7500 Du        
   2464 ****       228.2500  32.7500  15.0000 Du        
   2465 ****       228.2500  33.0000  12.2500 Du        
   2466 ****       228.2500  33.0000  12.5000 Du        
   2467 ****       228.2500  33.0000  12.7500 Du        
   2468 ****       228.2500  33.0000  13.0000 Du        
   2469 ****       228.2500  33.0000  13.2500 Du        
   2470 ****       228.2500  33.0000  13.5000 Du        
   2471 ****       228.2500  33.0000  13.7500 Du        
   2472 ****       228.2500  33.0000  14.0000 Du        
   2473 ****       228.2500  33.0000  14.2500 Du        
   2474 ****       228.2500  33.0000  14.5000 Du        
   2475 ****       228.2500  33.0000  14.7500 Du        
   2476 ****       228.2500  33.0000  15.0000 Du        
   2477 ****       228.2500  33.2500  12.2500 Du        
   2478 ****       228.2500  33.2500  12.5000 Du        
   2479 ****       228.2500  33.2500  12.7500 Du        
   2480 ****       228.2500  33.2500  13.0000 Du        
   2481 ****       228.2500  33.2500  13.2500 Du        
   2482 ****       228.2500  33.2500  13.5000 Du        
   2483 ****       228.2500  33.2500  13.7500 Du        
   2484 ****       228.2500  33.2500  14.0000 Du        
   2485 ****       228.2500  33.2500  14.2500 Du        
   2486 ****       228.2500  33.2500  14.5000 Du        
   2487 ****       228.2500  33.2500  14.7500 Du        
   2488 ****       228.2500  33.2500  15.0000 Du        
   2489 ****       228.2500  33.5000  12.0000 Du        
   2490 ****       228.2500  33.5000  12.2500 Du        
   2491 ****       228.2500  33.5000  12.5000 Du        
   2492 ****       228.2500  33.5000  12.7500 Du        
   2493 ****       228.2500  33.5000  13.0000 Du        
   2494 ****       228.2500  33.5000  13.2500 Du        
   2495 ****       228.2500  33.5000  13.5000 Du        
   2496 ****       228.2500  33.5000  13.7500 Du        
   2497 ****       228.2500  33.5000  14.0000 Du        
   2498 ****       228.2500  33.5000  14.2500 Du        
   2499 ****       228.2500  33.5000  14.5000 Du        
   2500 ****       228.2500  33.5000  14.7500 Du        
   2501 ****       228.2500  33.7500  12.0000 Du        
   2502 ****       228.2500  33.7500  12.2500 Du        
   2503 ****       228.2500  33.7500  12.5000 Du        
   2504 ****       228.2500  33.7500  12.7500 Du        
   2505 ****       228.2500  33.7500  13.0000 Du        
   2506 ****       228.2500  33.7500  13.2500 Du        
   2507 ****       228.2500  33.7500  13.5000 Du        
   2508 ****       228.2500  33.7500  13.7500 Du        
   2509 ****       228.2500  33.7500  14.0000 Du        
   2510 ****       228.2500  33.7500  14.2500 Du        
   2511 ****       228.2500  33.7500  14.5000 Du        
   2512 ****       228.2500  33.7500  14.7500 Du        
   2513 ****       228.2500  34.0000  12.0000 Du        
   2514 ****       228.2500  34.0000  12.2500 Du        
   2515 ****       228.2500  34.0000  12.5000 Du        
   2516 ****       228.2500  34.0000  12.7500 Du        
   2517 ****       228.2500  34.0000  13.0000 Du        
   2518 ****       228.2500  34.0000  13.2500 Du        
   2519 ****       228.2500  34.0000  13.5000 Du        
   2520 ****       228.2500  34.0000  13.7500 Du        
   2521 ****       228.2500  34.0000  14.0000 Du        
   2522 ****       228.2500  34.0000  14.2500 Du        
   2523 ****       228.2500  34.0000  14.5000 Du        
   2524 ****       228.2500  34.2500  12.2500 Du        
   2525 ****       228.2500  34.2500  12.5000 Du        
   2526 ****       228.2500  34.2500  12.7500 Du        
   2527 ****       228.2500  34.2500  13.0000 Du        
   2528 ****       228.2500  34.2500  13.2500 Du        
   2529 ****       228.2500  34.2500  13.5000 Du        
   2530 ****       228.2500  34.2500  13.7500 Du        
   2531 ****       228.2500  34.2500  14.0000 Du        
   2532 ****       228.2500  34.2500  14.2500 Du        
   2533 ****       228.2500  34.5000  12.5000 Du        
   2534 ****       228.2500  34.5000  12.7500 Du        
   2535 ****       228.2500  34.5000  13.0000 Du        
   2536 ****       228.2500  34.5000  13.2500 Du        
   2537 ****       228.2500  34.5000  13.5000 Du        
   2538 ****       228.2500  34.5000  13.7500 Du        
   2539 ****       228.2500  34.5000  14.0000 Du        
   2540 ****       228.2500  34.7500  12.7500 Du        
   2541 ****       228.2500  34.7500  13.0000 Du        
   2542 ****       228.2500  34.7500  13.2500 Du        
   2543 ****       228.2500  34.7500  13.5000 Du        
   2544 ****       228.2500  34.7500  13.7500 Du        
   2545 ****       228.2500  35.0000  13.0000 Du        
   2546 ****       228.2500  35.0000  13.2500 Du        
   2547 ****       228.2500  35.0000  13.5000 Du        
   2548 ****       228.5000  18.5000  14.0000 Du        
   2549 ****       228.5000  18.7500  13.7500 Du        
   2550 ****       228.5000  18.7500  14.0000 Du        
   2551 ****       228.5000  19.7500  13.7500 Du        
   2552 ****       228.5000  20.0000  13.7500 Du        
   2553 ****       228.5000  20.2500  13.7500 Du        
   2554 ****       228.5000  20.2500  14.0000 Du        
   2555 ****       228.5000  20.5000  13.7500 Du        
   2556 ****       228.5000  20.5000  14.0000 Du        
   2557 ****       228.5000  20.7500  13.7500 Du        
   2558 ****       228.5000  20.7500  14.0000 Du        
   2559 ****       228.5000  21.0000  13.7500 Du        
   2560 ****       228.5000  21.0000  14.0000 Du        
   2561 ****       228.5000  21.0000  14.2500 Du        
   2562 ****       228.5000  21.2500  13.7500 Du        
   2563 ****       228.5000  21.2500  14.0000 Du        
   2564 ****       228.5000  21.2500  14.2500 Du        
   2565 ****       228.5000  21.5000  13.7500 Du        
   2566 ****       228.5000  21.5000  14.0000 Du        
   2567 ****       228.5000  21.5000  14.2500 Du        
   2568 ****       228.5000  21.5000  14.5000 Du        
   2569 ****       228.5000  21.7500  13.5000 Du        
   2570 ****       228.5000  21.7500  13.7500 Du        
   2571 ****       228.5000  21.7500  14.0000 Du        
   2572 ****       228.5000  21.7500  14.2500 Du        
   2573 ****       228.5000  21.7500  14.5000 Du        
   2574 ****       228.5000  21.7500  14.7500 Du        
   2575 ****       228.5000  22.0000  13.5000 Du        
   2576 ****       228.5000  22.0000  13.7500 Du        
   2577 ****       228.5000  22.0000  14.0000 Du        
   2578 ****       228.5000  22.0000  14.2500 Du        
   2579 ****       228.5000  22.0000  14.5000 Du        
   2580 ****       228.5000  22.0000  14.7500 Du        
   2581 ****       228.5000  22.0000  15.0000 Du        
   2582 ****       228.5000  22.2500  13.5000 Du        
   2583 ****       228.5000  22.2500  13.7500 Du        
   2584 ****       228.5000  22.2500  14.0000 Du        
   2585 ****       228.5000  22.2500  14.2500 Du        
   2586 ****       228.5000  22.2500  14.5000 Du        
   2587 ****       228.5000  22.2500  14.7500 Du        
   2588 ****       228.5000  22.2500  15.0000 Du        
   2589 ****       228.5000  22.5000  13.5000 Du        
   2590 ****       228.5000  22.5000  13.7500 Du        
   2591 ****       228.5000  22.5000  14.0000 Du        
   2592 ****       228.5000  22.5000  14.2500 Du        
   2593 ****       228.5000  22.5000  14.5000 Du        
   2594 ****       228.5000  22.5000  14.7500 Du        
   2595 ****       228.5000  22.5000  15.0000 Du        
   2596 ****       228.5000  22.7500  13.2500 Du        
   2597 ****       228.5000  22.7500  13.5000 Du        
   2598 ****       228.5000  22.7500  13.7500 Du        
   2599 ****       228.5000  22.7500  14.0000 Du        
   2600 ****       228.5000  22.7500  14.2500 Du        
   2601 ****       228.5000  22.7500  14.5000 Du        
   2602 ****       228.5000  22.7500  14.7500 Du        
   2603 ****       228.5000  22.7500  15.0000 Du        
   2604 ****       228.5000  23.0000  13.0000 Du        
   2605 ****       228.5000  23.0000  13.2500 Du        
   2606 ****       228.5000  23.0000  13.5000 Du        
   2607 ****       228.5000  23.0000  13.7500 Du        
   2608 ****       228.5000  23.0000  14.0000 Du        
   2609 ****       228.5000  23.0000  14.2500 Du        
   2610 ****       228.5000  23.0000  14.5000 Du        
   2611 ****       228.5000  23.0000  14.7500 Du        
   2612 ****       228.5000  23.0000  15.0000 Du        
   2613 ****       228.5000  23.2500  13.0000 Du        
   2614 ****       228.5000  23.2500  13.2500 Du        
   2615 ****       228.5000  23.2500  13.5000 Du        
   2616 ****       228.5000  23.2500  13.7500 Du        
   2617 ****       228.5000  23.2500  14.0000 Du        
   2618 ****       228.5000  23.2500  14.2500 Du        
   2619 ****       228.5000  23.2500  14.5000 Du        
   2620 ****       228.5000  23.2500  14.7500 Du        
   2621 ****       228.5000  23.2500  15.0000 Du        
   2622 ****       228.5000  23.5000  13.7500 Du        
   2623 ****       228.5000  23.5000  14.0000 Du        
   2624 ****       228.5000  23.5000  14.2500 Du        
   2625 ****       228.5000  23.5000  14.7500 Du        
   2626 ****       228.5000  23.7500  13.2500 Du        
   2627 ****       228.5000  24.0000  13.0000 Du        
   2628 ****       228.5000  24.0000  13.2500 Du        
   2629 ****       228.5000  24.2500  12.5000 Du        
   2630 ****       228.5000  24.5000  12.0000 Du        
   2631 ****       228.5000  24.7500  11.0000 Du        
   2632 ****       228.5000  24.7500  11.2500 Du        
   2633 ****       228.5000  24.7500  11.5000 Du        
   2634 ****       228.5000  24.7500  11.7500 Du        
   2635 ****       228.5000  24.7500  12.0000 Du        
   2636 ****       228.5000  24.7500  12.2500 Du        
   2637 ****       228.5000  25.0000  11.0000 Du        
   2638 ****       228.5000  25.0000  11.2500 Du        
   2639 ****       228.5000  25.0000  11.5000 Du        
   2640 ****       228.5000  25.0000  11.7500 Du        
   2641 ****       228.5000  25.0000  12.0000 Du        
   2642 ****       228.5000  25.0000  12.2500 Du        
   2643 ****       228.5000  25.2500  11.2500 Du        
   2644 ****       228.5000  25.2500  11.5000 Du        
   2645 ****       228.5000  25.2500  11.7500 Du        
   2646 ****       228.5000  25.2500  12.0000 Du        
   2647 ****       228.5000  25.2500  12.2500 Du        
   2648 ****       228.5000  25.5000  11.5000 Du        
   2649 ****       228.5000  25.5000  11.7500 Du        
   2650 ****       228.5000  25.5000  12.0000 Du        
   2651 ****       228.5000  25.5000  12.2500 Du        
   2652 ****       228.5000  25.7500  11.7500 Du        
   2653 ****       228.5000  25.7500  12.0000 Du        
   2654 ****       228.5000  25.7500  12.2500 Du        
   2655 ****       228.5000  26.0000  12.0000 Du        
   2656 ****       228.5000  26.0000  12.2500 Du        
   2657 ****       228.5000  26.2500  12.0000 Du        
   2658 ****       228.5000  26.7500  12.2500 Du        
   2659 ****       228.5000  27.0000  12.0000 Du        
   2660 ****       228.5000  27.0000  12.2500 Du        
   2661 ****       228.5000  27.2500  12.0000 Du        
   2662 ****       228.5000  27.2500  12.2500 Du        
   2663 ****       228.5000  27.5000  12.0000 Du        
   2664 ****       228.5000  27.5000  12.2500 Du        
   2665 ****       228.5000  27.5000  12.5000 Du        
   2666 ****       228.5000  27.7500  11.7500 Du        
   2667 ****       228.5000  27.7500  12.0000 Du        
   2668 ****       228.5000  27.7500  12.2500 Du        
   2669 ****       228.5000  27.7500  12.5000 Du        
   2670 ****       228.5000  28.0000  11.5000 Du        
   2671 ****       228.5000  28.0000  11.7500 Du        
   2672 ****       228.5000  28.0000  12.0000 Du        
   2673 ****       228.5000  28.0000  12.2500 Du        
   2674 ****       228.5000  28.0000  12.5000 Du        
   2675 ****       228.5000  28.0000  12.7500 Du        
   2676 ****       228.5000  28.2500  11.2500 Du        
   2677 ****       228.5000  28.2500  11.5000 Du        
   2678 ****       228.5000  28.2500  11.7500 Du        
   2679 ****       228.5000  28.2500  12.0000 Du        
   2680 ****       228.5000  28.2500  12.2500 Du        
   2681 ****       228.5000  28.2500  12.5000 Du        
   2682 ****       228.5000  28.2500  12.7500 Du        
   2683 ****       228.5000  28.5000  11.0000 Du        
   2684 ****       228.5000  28.5000  11.2500 Du        
   2685 ****       228.5000  28.5000  11.5000 Du        
   2686 ****       228.5000  28.5000  11.7500 Du        
   2687 ****       228.5000  28.5000  12.0000 Du        
   2688 ****       228.5000  28.5000  12.2500 Du        
   2689 ****       228.5000  28.5000  12.5000 Du        
   2690 ****       228.5000  28.5000  12.7500 Du        
   2691 ****       228.5000  28.7500  11.0000 Du        
   2692 ****       228.5000  28.7500  11.2500 Du        
   2693 ****       228.5000  28.7500  11.5000 Du        
   2694 ****       228.5000  28.7500  11.7500 Du        
   2695 ****       228.5000  28.7500  12.0000 Du        
   2696 ****       228.5000  28.7500  12.2500 Du        
   2697 ****       228.5000  28.7500  12.5000 Du        
   2698 ****       228.5000  28.7500  12.7500 Du        
   2699 ****       228.5000  28.7500  13.0000 Du        
   2700 ****       228.5000  29.0000  10.7500 Du        
   2701 ****       228.5000  29.0000  11.0000 Du        
   2702 ****       228.5000  29.0000  11.2500 Du        
   2703 ****       228.5000  29.0000  11.5000 Du        
   2704 ****       228.5000  29.0000  11.7500 Du        
   2705 ****       228.5000  29.0000  12.0000 Du        
   2706 ****       228.5000  29.0000  12.2500 Du        
   2707 ****       228.5000  29.0000  12.5000 Du        
   2708 ****       228.5000  29.0000  12.7500 Du        
   2709 ****       228.5000  29.0000  13.0000 Du        
   2710 ****       228.5000  29.2500  11.0000 Du        
   2711 ****       228.5000  29.2500  11.2500 Du        
   2712 ****       228.5000  29.2500  11.5000 Du        
   2713 ****       228.5000  29.2500  11.7500 Du        
   2714 ****       228.5000  29.2500  12.0000 Du        
   2715 ****       228.5000  29.2500  12.2500 Du        
   2716 ****       228.5000  29.2500  12.5000 Du        
   2717 ****       228.5000  29.2500  12.7500 Du        
   2718 ****       228.5000  29.2500  13.0000 Du        
   2719 ****       228.5000  29.5000  11.0000 Du        
   2720 ****       228.5000  29.5000  11.2500 Du        
   2721 ****       228.5000  29.5000  11.5000 Du        
   2722 ****       228.5000  29.5000  11.7500 Du        
   2723 ****       228.5000  29.5000  12.0000 Du        
   2724 ****       228.5000  29.5000  12.2500 Du        
   2725 ****       228.5000  29.5000  12.5000 Du        
   2726 ****       228.5000  29.5000  12.7500 Du        
   2727 ****       228.5000  29.5000  13.0000 Du        
   2728 ****       228.5000  29.5000  13.2500 Du        
   2729 ****       228.5000  29.7500  11.5000 Du        
   2730 ****       228.5000  29.7500  11.7500 Du        
   2731 ****       228.5000  29.7500  12.0000 Du        
   2732 ****       228.5000  29.7500  12.2500 Du        
   2733 ****       228.5000  29.7500  12.5000 Du        
   2734 ****       228.5000  29.7500  12.7500 Du        
   2735 ****       228.5000  29.7500  13.0000 Du        
   2736 ****       228.5000  29.7500  13.2500 Du        
   2737 ****       228.5000  30.0000  11.7500 Du        
   2738 ****       228.5000  30.0000  12.0000 Du        
   2739 ****       228.5000  30.0000  12.2500 Du        
   2740 ****       228.5000  30.0000  12.5000 Du        
   2741 ****       228.5000  30.0000  12.7500 Du        
   2742 ****       228.5000  30.0000  13.0000 Du        
   2743 ****       228.5000  30.0000  13.2500 Du        
   2744 ****       228.5000  30.2500  12.0000 Du        
   2745 ****       228.5000  30.2500  12.2500 Du        
   2746 ****       228.5000  30.2500  12.5000 Du        
   2747 ****       228.5000  30.2500  12.7500 Du        
   2748 ****       228.5000  30.2500  13.0000 Du        
   2749 ****       228.5000  30.2500  13.2500 Du        
   2750 ****       228.5000  30.2500  13.5000 Du        
   2751 ****       228.5000  30.5000  12.2500 Du        
   2752 ****       228.5000  30.5000  12.5000 Du        
   2753 ****       228.5000  30.5000  12.7500 Du        
   2754 ****       228.5000  30.5000  13.0000 Du        
   2755 ****       228.5000  30.5000  13.2500 Du        
   2756 ****       228.5000  30.5000  13.5000 Du        
   2757 ****       228.5000  30.5000  13.7500 Du        
   2758 ****       228.5000  30.7500  12.2500 Du        
   2759 ****       228.5000  30.7500  12.5000 Du        
   2760 ****       228.5000  30.7500  12.7500 Du        
   2761 ****       228.5000  30.7500  13.0000 Du        
   2762 ****       228.5000  30.7500  13.2500 Du        
   2763 ****       228.5000  30.7500  13.5000 Du        
   2764 ****       228.5000  30.7500  13.7500 Du        
   2765 ****       228.5000  30.7500  14.0000 Du        
   2766 ****       228.5000  31.0000  12.5000 Du        
   2767 ****       228.5000  31.0000  12.7500 Du        
   2768 ****       228.5000  31.0000  13.0000 Du        
   2769 ****       228.5000  31.0000  13.2500 Du        
   2770 ****       228.5000  31.0000  13.5000 Du        
   2771 ****       228.5000  31.0000  13.7500 Du        
   2772 ****       228.5000  31.0000  14.0000 Du        
   2773 ****       228.5000  31.0000  14.2500 Du        
   2774 ****       228.5000  31.2500  12.5000 Du        
   2775 ****       228.5000  31.2500  12.7500 Du        
   2776 ****       228.5000  31.2500  13.0000 Du        
   2777 ****       228.5000  31.2500  13.2500 Du        
   2778 ****       228.5000  31.2500  13.5000 Du        
   2779 ****       228.5000  31.2500  13.7500 Du        
   2780 ****       228.5000  31.2500  14.0000 Du        
   2781 ****       228.5000  31.2500  14.2500 Du        
   2782 ****       228.5000  31.2500  14.5000 Du        
   2783 ****       228.5000  31.5000  12.5000 Du        
   2784 ****       228.5000  31.5000  12.7500 Du        
   2785 ****       228.5000  31.5000  13.0000 Du        
   2786 ****       228.5000  31.5000  13.2500 Du        
   2787 ****       228.5000  31.5000  13.5000 Du        
   2788 ****       228.5000  31.5000  13.7500 Du        
   2789 ****       228.5000  31.5000  14.0000 Du        
   2790 ****       228.5000  31.5000  14.2500 Du        
   2791 ****       228.5000  31.5000  14.5000 Du        
   2792 ****       228.5000  31.5000  14.7500 Du        
   2793 ****       228.5000  31.7500  12.5000 Du        
   2794 ****       228.5000  31.7500  12.7500 Du        
   2795 ****       228.5000  31.7500  13.0000 Du        
   2796 ****       228.5000  31.7500  13.2500 Du        
   2797 ****       228.5000  31.7500  13.5000 Du        
   2798 ****       228.5000  31.7500  13.7500 Du        
   2799 ****       228.5000  31.7500  14.0000 Du        
   2800 ****       228.5000  31.7500  14.2500 Du        
   2801 ****       228.5000  31.7500  14.5000 Du        
   2802 ****       228.5000  31.7500  14.7500 Du        
   2803 ****       228.5000  32.0000  12.5000 Du        
   2804 ****       228.5000  32.0000  12.7500 Du        
   2805 ****       228.5000  32.0000  13.0000 Du        
   2806 ****       228.5000  32.0000  13.2500 Du        
   2807 ****       228.5000  32.0000  13.5000 Du        
   2808 ****       228.5000  32.0000  13.7500 Du        
   2809 ****       228.5000  32.0000  14.0000 Du        
   2810 ****       228.5000  32.0000  14.2500 Du        
   2811 ****       228.5000  32.0000  14.5000 Du        
   2812 ****       228.5000  32.0000  14.7500 Du        
   2813 ****       228.5000  32.2500  12.5000 Du        
   2814 ****       228.5000  32.2500  12.7500 Du        
   2815 ****       228.5000  32.2500  13.0000 Du        
   2816 ****       228.5000  32.2500  13.2500 Du        
   2817 ****       228.5000  32.2500  13.5000 Du        
   2818 ****       228.5000  32.2500  13.7500 Du        
   2819 ****       228.5000  32.2500  14.0000 Du        
   2820 ****       228.5000  32.2500  14.2500 Du        
   2821 ****       228.5000  32.2500  14.5000 Du        
   2822 ****       228.5000  32.2500  14.7500 Du        
   2823 ****       228.5000  32.5000  12.5000 Du        
   2824 ****       228.5000  32.5000  12.7500 Du        
   2825 ****       228.5000  32.5000  13.0000 Du        
   2826 ****       228.5000  32.5000  13.2500 Du        
   2827 ****       228.5000  32.5000  13.5000 Du        
   2828 ****       228.5000  32.5000  13.7500 Du        
   2829 ****       228.5000  32.5000  14.0000 Du        
   2830 ****       228.5000  32.5000  14.2500 Du        
   2831 ****       228.5000  32.5000  14.5000 Du        
   2832 ****       228.5000  32.5000  14.7500 Du        
   2833 ****       228.5000  32.7500  12.2500 Du        
   2834 ****       228.5000  32.7500  12.5000 Du        
   2835 ****       228.5000  32.7500  12.7500 Du        
   2836 ****       228.5000  32.7500  13.0000 Du        
   2837 ****       228.5000  32.7500  13.2500 Du        
   2838 ****       228.5000  32.7500  13.5000 Du        
   2839 ****       228.5000  32.7500  13.7500 Du        
   2840 ****       228.5000  32.7500  14.0000 Du        
   2841 ****       228.5000  32.7500  14.2500 Du        
   2842 ****       228.5000  32.7500  14.5000 Du        
   2843 ****       228.5000  32.7500  14.7500 Du        
   2844 ****       228.5000  33.0000  12.2500 Du        
   2845 ****       228.5000  33.0000  12.5000 Du        
   2846 ****       228.5000  33.0000  12.7500 Du        
   2847 ****       228.5000  33.0000  13.0000 Du        
   2848 ****       228.5000  33.0000  13.2500 Du        
   2849 ****       228.5000  33.0000  13.5000 Du        
   2850 ****       228.5000  33.0000  13.7500 Du        
   2851 ****       228.5000  33.0000  14.0000 Du        
   2852 ****       228.5000  33.0000  14.2500 Du        
   2853 ****       228.5000  33.0000  14.5000 Du        
   2854 ****       228.5000  33.0000  14.7500 Du        
   2855 ****       228.5000  33.2500  12.2500 Du        
   2856 ****       228.5000  33.2500  12.5000 Du        
   2857 ****       228.5000  33.2500  12.7500 Du        
   2858 ****       228.5000  33.2500  13.0000 Du        
   2859 ****       228.5000  33.2500  13.2500 Du        
   2860 ****       228.5000  33.2500  13.5000 Du        
   2861 ****       228.5000  33.2500  13.7500 Du        
   2862 ****       228.5000  33.2500  14.0000 Du        
   2863 ****       228.5000  33.2500  14.2500 Du        
   2864 ****       228.5000  33.2500  14.5000 Du        
   2865 ****       228.5000  33.2500  14.7500 Du        
   2866 ****       228.5000  33.5000  12.2500 Du        
   2867 ****       228.5000  33.5000  12.5000 Du        
   2868 ****       228.5000  33.5000  12.7500 Du        
   2869 ****       228.5000  33.5000  13.0000 Du        
   2870 ****       228.5000  33.5000  13.2500 Du        
   2871 ****       228.5000  33.5000  13.5000 Du        
   2872 ****       228.5000  33.5000  13.7500 Du        
   2873 ****       228.5000  33.5000  14.0000 Du        
   2874 ****       228.5000  33.5000  14.2500 Du        
   2875 ****       228.5000  33.5000  14.5000 Du        
   2876 ****       228.5000  33.5000  14.7500 Du        
   2877 ****       228.5000  33.7500  12.2500 Du        
   2878 ****       228.5000  33.7500  12.5000 Du        
   2879 ****       228.5000  33.7500  12.7500 Du        
   2880 ****       228.5000  33.7500  13.0000 Du        
   2881 ****       228.5000  33.7500  13.2500 Du        
   2882 ****       228.5000  33.7500  13.5000 Du        
   2883 ****       228.5000  33.7500  13.7500 Du        
   2884 ****       228.5000  33.7500  14.0000 Du        
   2885 ****       228.5000  33.7500  14.2500 Du        
   2886 ****       228.5000  33.7500  14.5000 Du        
   2887 ****       228.5000  33.7500  14.7500 Du        
   2888 ****       228.5000  34.0000  12.2500 Du        
   2889 ****       228.5000  34.0000  12.5000 Du        
   2890 ****       228.5000  34.0000  12.7500 Du        
   2891 ****       228.5000  34.0000  13.0000 Du        
   2892 ****       228.5000  34.0000  13.2500 Du        
   2893 ****       228.5000  34.0000  13.5000 Du        
   2894 ****       228.5000  34.0000  13.7500 Du        
   2895 ****       228.5000  34.0000  14.0000 Du        
   2896 ****       228.5000  34.0000  14.2500 Du        
   2897 ****       228.5000  34.0000  14.5000 Du        
   2898 ****       228.5000  34.2500  12.2500 Du        
   2899 ****       228.5000  34.2500  12.5000 Du        
   2900 ****       228.5000  34.2500  12.7500 Du        
   2901 ****       228.5000  34.2500  13.0000 Du        
   2902 ****       228.5000  34.2500  13.2500 Du        
   2903 ****       228.5000  34.2500  13.5000 Du        
   2904 ****       228.5000  34.2500  13.7500 Du        
   2905 ****       228.5000  34.2500  14.0000 Du        
   2906 ****       228.5000  34.2500  14.2500 Du        
   2907 ****       228.5000  34.5000  12.5000 Du        
   2908 ****       228.5000  34.5000  12.7500 Du        
   2909 ****       228.5000  34.5000  13.0000 Du        
   2910 ****       228.5000  34.5000  13.2500 Du        
   2911 ****       228.5000  34.5000  13.5000 Du        
   2912 ****       228.5000  34.5000  13.7500 Du        
   2913 ****       228.5000  34.5000  14.0000 Du        
   2914 ****       228.5000  34.7500  12.7500 Du        
   2915 ****       228.5000  34.7500  13.0000 Du        
   2916 ****       228.5000  34.7500  13.2500 Du        
   2917 ****       228.5000  34.7500  13.5000 Du        
   2918 ****       228.5000  34.7500  13.7500 Du        
   2919 ****       228.5000  35.0000  13.0000 Du        
   2920 ****       228.5000  35.0000  13.2500 Du        
   2921 ****       228.7500  20.7500  14.0000 Du        
   2922 ****       228.7500  21.0000  13.7500 Du        
   2923 ****       228.7500  21.0000  14.0000 Du        
   2924 ****       228.7500  21.2500  13.7500 Du        
   2925 ****       228.7500  21.2500  14.0000 Du        
   2926 ****       228.7500  21.5000  13.7500 Du        
   2927 ****       228.7500  21.5000  14.0000 Du        
   2928 ****       228.7500  21.5000  14.2500 Du        
   2929 ****       228.7500  21.7500  13.5000 Du        
   2930 ****       228.7500  21.7500  13.7500 Du        
   2931 ****       228.7500  21.7500  14.0000 Du        
   2932 ****       228.7500  21.7500  14.2500 Du        
   2933 ****       228.7500  21.7500  14.5000 Du        
   2934 ****       228.7500  22.0000  13.5000 Du        
   2935 ****       228.7500  22.0000  13.7500 Du        
   2936 ****       228.7500  22.0000  14.0000 Du        
   2937 ****       228.7500  22.0000  14.2500 Du        
   2938 ****       228.7500  22.0000  14.5000 Du        
   2939 ****       228.7500  22.0000  14.7500 Du        
   2940 ****       228.7500  22.2500  13.5000 Du        
   2941 ****       228.7500  22.2500  13.7500 Du        
   2942 ****       228.7500  22.2500  14.0000 Du        
   2943 ****       228.7500  22.2500  14.2500 Du        
   2944 ****       228.7500  22.2500  14.5000 Du        
   2945 ****       228.7500  22.2500  14.7500 Du        
   2946 ****       228.7500  22.2500  15.0000 Du        
   2947 ****       228.7500  22.5000  13.2500 Du        
   2948 ****       228.7500  22.5000  13.5000 Du        
   2949 ****       228.7500  22.5000  13.7500 Du        
   2950 ****       228.7500  22.5000  14.0000 Du        
   2951 ****       228.7500  22.5000  14.2500 Du        
   2952 ****       228.7500  22.5000  14.5000 Du        
   2953 ****       228.7500  22.5000  14.7500 Du        
   2954 ****       228.7500  22.5000  15.0000 Du        
   2955 ****       228.7500  22.7500  13.2500 Du        
   2956 ****       228.7500  22.7500  13.5000 Du        
   2957 ****       228.7500  22.7500  13.7500 Du        
   2958 ****       228.7500  22.7500  14.0000 Du        
   2959 ****       228.7500  22.7500  14.2500 Du        
   2960 ****       228.7500  22.7500  14.5000 Du        
   2961 ****       228.7500  22.7500  14.7500 Du        
   2962 ****       228.7500  22.7500  15.0000 Du        
   2963 ****       228.7500  23.0000  13.0000 Du        
   2964 ****       228.7500  23.0000  13.2500 Du        
   2965 ****       228.7500  23.0000  13.5000 Du        
   2966 ****       228.7500  23.0000  13.7500 Du        
   2967 ****       228.7500  23.0000  14.0000 Du        
   2968 ****       228.7500  23.0000  14.2500 Du        
   2969 ****       228.7500  23.0000  14.5000 Du        
   2970 ****       228.7500  23.0000  14.7500 Du        
   2971 ****       228.7500  23.0000  15.0000 Du        
   2972 ****       228.7500  23.2500  13.0000 Du        
   2973 ****       228.7500  23.2500  13.2500 Du        
   2974 ****       228.7500  23.2500  13.5000 Du        
   2975 ****       228.7500  23.2500  13.7500 Du        
   2976 ****       228.7500  23.2500  14.0000 Du        
   2977 ****       228.7500  23.2500  14.2500 Du        
   2978 ****       228.7500  23.2500  14.5000 Du        
   2979 ****       228.7500  23.2500  14.7500 Du        
   2980 ****       228.7500  23.2500  15.0000 Du        
   2981 ****       228.7500  23.5000  13.0000 Du        
   2982 ****       228.7500  23.5000  13.2500 Du        
   2983 ****       228.7500  23.5000  13.5000 Du        
   2984 ****       228.7500  23.5000  13.7500 Du        
   2985 ****       228.7500  23.5000  14.0000 Du        
   2986 ****       228.7500  23.5000  14.2500 Du        
   2987 ****       228.7500  23.5000  14.5000 Du        
   2988 ****       228.7500  23.5000  14.7500 Du        
   2989 ****       228.7500  23.5000  15.0000 Du        
   2990 ****       228.7500  23.7500  12.7500 Du        
   2991 ****       228.7500  23.7500  13.0000 Du        
   2992 ****       228.7500  23.7500  13.2500 Du        
   2993 ****       228.7500  23.7500  13.5000 Du        
   2994 ****       228.7500  23.7500  13.7500 Du        
   2995 ****       228.7500  23.7500  14.0000 Du        
   2996 ****       228.7500  23.7500  14.2500 Du        
   2997 ****       228.7500  24.0000  12.5000 Du        
   2998 ****       228.7500  24.0000  12.7500 Du        
   2999 ****       228.7500  24.0000  13.0000 Du        
   3000 ****       228.7500  24.0000  13.2500 Du        
   3001 ****       228.7500  24.0000  13.5000 Du        
   3002 ****       228.7500  24.2500  12.2500 Du        
   3003 ****       228.7500  24.2500  12.5000 Du        
   3004 ****       228.7500  24.2500  12.7500 Du        
   3005 ****       228.7500  24.2500  13.0000 Du        
   3006 ****       228.7500  24.2500  13.2500 Du        
   3007 ****       228.7500  24.5000  12.0000 Du        
   3008 ****       228.7500  24.5000  12.2500 Du        
   3009 ****       228.7500  24.5000  12.5000 Du        
   3010 ****       228.7500  24.5000  12.7500 Du        
   3011 ****       228.7500  24.5000  13.0000 Du        
   3012 ****       228.7500  24.7500  11.2500 Du        
   3013 ****       228.7500  24.7500  11.5000 Du        
   3014 ****       228.7500  24.7500  11.7500 Du        
   3015 ****       228.7500  24.7500  12.0000 Du        
   3016 ****       228.7500  24.7500  12.2500 Du        
   3017 ****       228.7500  24.7500  12.5000 Du        
   3018 ****       228.7500  24.7500  12.7500 Du        
   3019 ****       228.7500  24.7500  13.0000 Du        
   3020 ****       228.7500  25.0000  11.0000 Du        
   3021 ****       228.7500  25.0000  11.2500 Du        
   3022 ****       228.7500  25.0000  11.5000 Du        
   3023 ****       228.7500  25.0000  11.7500 Du        
   3024 ****       228.7500  25.0000  12.0000 Du        
   3025 ****       228.7500  25.0000  12.2500 Du        
   3026 ****       228.7500  25.0000  12.5000 Du        
   3027 ****       228.7500  25.2500  11.0000 Du        
   3028 ****       228.7500  25.2500  11.2500 Du        
   3029 ****       228.7500  25.2500  11.5000 Du        
   3030 ****       228.7500  25.2500  11.7500 Du        
   3031 ****       228.7500  25.2500  12.0000 Du        
   3032 ****       228.7500  25.2500  12.2500 Du        
   3033 ****       228.7500  25.2500  12.5000 Du        
   3034 ****       228.7500  25.5000  11.0000 Du        
   3035 ****       228.7500  25.5000  11.2500 Du        
   3036 ****       228.7500  25.5000  11.5000 Du        
   3037 ****       228.7500  25.5000  11.7500 Du        
   3038 ****       228.7500  25.5000  12.0000 Du        
   3039 ****       228.7500  25.5000  12.2500 Du        
   3040 ****       228.7500  25.7500  11.2500 Du        
   3041 ****       228.7500  25.7500  11.5000 Du        
   3042 ****       228.7500  25.7500  11.7500 Du        
   3043 ****       228.7500  25.7500  12.0000 Du        
   3044 ****       228.7500  25.7500  12.2500 Du        
   3045 ****       228.7500  26.0000  11.5000 Du        
   3046 ****       228.7500  26.0000  11.7500 Du        
   3047 ****       228.7500  26.0000  12.0000 Du        
   3048 ****       228.7500  26.0000  12.2500 Du        
   3049 ****       228.7500  26.2500  11.7500 Du        
   3050 ****       228.7500  26.2500  12.0000 Du        
   3051 ****       228.7500  26.2500  12.2500 Du        
   3052 ****       228.7500  26.5000  11.7500 Du        
   3053 ****       228.7500  26.5000  12.0000 Du        
   3054 ****       228.7500  26.5000  12.2500 Du        
   3055 ****       228.7500  26.7500  11.7500 Du        
   3056 ****       228.7500  26.7500  12.0000 Du        
   3057 ****       228.7500  26.7500  12.2500 Du        
   3058 ****       228.7500  27.0000  11.7500 Du        
   3059 ****       228.7500  27.0000  12.0000 Du        
   3060 ****       228.7500  27.0000  12.2500 Du        
   3061 ****       228.7500  27.2500  11.7500 Du        
   3062 ****       228.7500  27.2500  12.0000 Du        
   3063 ****       228.7500  27.2500  12.2500 Du        
   3064 ****       228.7500  27.5000  11.5000 Du        
   3065 ****       228.7500  27.5000  11.7500 Du        
   3066 ****       228.7500  27.5000  12.0000 Du        
   3067 ****       228.7500  27.5000  12.2500 Du        
   3068 ****       228.7500  27.5000  12.5000 Du        
   3069 ****       228.7500  27.7500  11.5000 Du        
   3070 ****       228.7500  27.7500  11.7500 Du        
   3071 ****       228.7500  27.7500  12.0000 Du        
   3072 ****       228.7500  27.7500  12.2500 Du        
   3073 ****       228.7500  27.7500  12.5000 Du        
   3074 ****       228.7500  28.0000  11.2500 Du        
   3075 ****       228.7500  28.0000  11.5000 Du        
   3076 ****       228.7500  28.0000  11.7500 Du        
   3077 ****       228.7500  28.0000  12.0000 Du        
   3078 ****       228.7500  28.0000  12.2500 Du        
   3079 ****       228.7500  28.0000  12.5000 Du        
   3080 ****       228.7500  28.2500  11.2500 Du        
   3081 ****       228.7500  28.2500  11.5000 Du        
   3082 ****       228.7500  28.2500  11.7500 Du        
   3083 ****       228.7500  28.2500  12.0000 Du        
   3084 ****       228.7500  28.2500  12.2500 Du        
   3085 ****       228.7500  28.2500  12.5000 Du        
   3086 ****       228.7500  28.5000  11.0000 Du        
   3087 ****       228.7500  28.5000  11.2500 Du        
   3088 ****       228.7500  28.5000  11.5000 Du        
   3089 ****       228.7500  28.5000  11.7500 Du        
   3090 ****       228.7500  28.5000  12.0000 Du        
   3091 ****       228.7500  28.5000  12.2500 Du        
   3092 ****       228.7500  28.5000  12.5000 Du        
   3093 ****       228.7500  28.7500  11.0000 Du        
   3094 ****       228.7500  28.7500  11.2500 Du        
   3095 ****       228.7500  28.7500  11.5000 Du        
   3096 ****       228.7500  28.7500  11.7500 Du        
   3097 ****       228.7500  28.7500  12.0000 Du        
   3098 ****       228.7500  28.7500  12.2500 Du        
   3099 ****       228.7500  28.7500  12.5000 Du        
   3100 ****       228.7500  29.0000  11.0000 Du        
   3101 ****       228.7500  29.0000  11.2500 Du        
   3102 ****       228.7500  29.0000  11.5000 Du        
   3103 ****       228.7500  29.0000  11.7500 Du        
   3104 ****       228.7500  29.0000  12.0000 Du        
   3105 ****       228.7500  29.0000  12.2500 Du        
   3106 ****       228.7500  29.0000  12.5000 Du        
   3107 ****       228.7500  29.2500  11.0000 Du        
   3108 ****       228.7500  29.2500  11.2500 Du        
   3109 ****       228.7500  29.2500  11.5000 Du        
   3110 ****       228.7500  29.2500  11.7500 Du        
   3111 ****       228.7500  29.2500  12.0000 Du        
   3112 ****       228.7500  29.2500  12.2500 Du        
   3113 ****       228.7500  29.2500  12.5000 Du        
   3114 ****       228.7500  29.5000  11.2500 Du        
   3115 ****       228.7500  29.5000  11.5000 Du        
   3116 ****       228.7500  29.5000  11.7500 Du        
   3117 ****       228.7500  29.5000  12.0000 Du        
   3118 ****       228.7500  29.5000  12.2500 Du        
   3119 ****       228.7500  29.5000  12.5000 Du        
   3120 ****       228.7500  29.5000  12.7500 Du        
   3121 ****       228.7500  29.7500  11.5000 Du        
   3122 ****       228.7500  29.7500  11.7500 Du        
   3123 ****       228.7500  29.7500  12.0000 Du        
   3124 ****       228.7500  29.7500  12.2500 Du        
   3125 ****       228.7500  29.7500  12.5000 Du        
   3126 ****       228.7500  29.7500  12.7500 Du        
   3127 ****       228.7500  29.7500  13.0000 Du        
   3128 ****       228.7500  30.0000  11.7500 Du        
   3129 ****       228.7500  30.0000  12.0000 Du        
   3130 ****       228.7500  30.0000  12.2500 Du        
   3131 ****       228.7500  30.0000  12.5000 Du        
   3132 ****       228.7500  30.0000  12.7500 Du        
   3133 ****       228.7500  30.0000  13.0000 Du        
   3134 ****       228.7500  30.0000  13.2500 Du        
   3135 ****       228.7500  30.2500  12.0000 Du        
   3136 ****       228.7500  30.2500  12.2500 Du        
   3137 ****       228.7500  30.2500  12.5000 Du        
   3138 ****       228.7500  30.2500  12.7500 Du        
   3139 ****       228.7500  30.2500  13.0000 Du        
   3140 ****       228.7500  30.2500  13.2500 Du        
   3141 ****       228.7500  30.5000  12.2500 Du        
   3142 ****       228.7500  30.5000  12.5000 Du        
   3143 ****       228.7500  30.5000  12.7500 Du        
   3144 ****       228.7500  30.5000  13.0000 Du        
   3145 ****       228.7500  30.5000  13.2500 Du        
   3146 ****       228.7500  30.5000  13.5000 Du        
   3147 ****       228.7500  30.5000  13.7500 Du        
   3148 ****       228.7500  30.7500  12.2500 Du        
   3149 ****       228.7500  30.7500  12.5000 Du        
   3150 ****       228.7500  30.7500  12.7500 Du        
   3151 ****       228.7500  30.7500  13.0000 Du        
   3152 ****       228.7500  30.7500  13.2500 Du        
   3153 ****       228.7500  30.7500  13.5000 Du        
   3154 ****       228.7500  30.7500  13.7500 Du        
   3155 ****       228.7500  30.7500  14.0000 Du        
   3156 ****       228.7500  31.0000  12.5000 Du        
   3157 ****       228.7500  31.0000  12.7500 Du        
   3158 ****       228.7500  31.0000  13.0000 Du        
   3159 ****       228.7500  31.0000  13.2500 Du        
   3160 ****       228.7500  31.0000  13.5000 Du        
   3161 ****       228.7500  31.0000  13.7500 Du        
   3162 ****       228.7500  31.0000  14.0000 Du        
   3163 ****       228.7500  31.0000  14.2500 Du        
   3164 ****       228.7500  31.2500  12.5000 Du        
   3165 ****       228.7500  31.2500  12.7500 Du        
   3166 ****       228.7500  31.2500  13.0000 Du        
   3167 ****       228.7500  31.2500  13.2500 Du        
   3168 ****       228.7500  31.2500  13.5000 Du        
   3169 ****       228.7500  31.2500  13.7500 Du        
   3170 ****       228.7500  31.2500  14.0000 Du        
   3171 ****       228.7500  31.2500  14.2500 Du        
   3172 ****       228.7500  31.2500  14.5000 Du        
   3173 ****       228.7500  31.5000  12.5000 Du        
   3174 ****       228.7500  31.5000  12.7500 Du        
   3175 ****       228.7500  31.5000  13.0000 Du        
   3176 ****       228.7500  31.5000  13.2500 Du        
   3177 ****       228.7500  31.5000  13.5000 Du        
   3178 ****       228.7500  31.5000  13.7500 Du        
   3179 ****       228.7500  31.5000  14.0000 Du        
   3180 ****       228.7500  31.5000  14.2500 Du        
   3181 ****       228.7500  31.5000  14.5000 Du        
   3182 ****       228.7500  31.7500  12.5000 Du        
   3183 ****       228.7500  31.7500  12.7500 Du        
   3184 ****       228.7500  31.7500  13.0000 Du        
   3185 ****       228.7500  31.7500  13.2500 Du        
   3186 ****       228.7500  31.7500  13.5000 Du        
   3187 ****       228.7500  31.7500  13.7500 Du        
   3188 ****       228.7500  31.7500  14.0000 Du        
   3189 ****       228.7500  31.7500  14.2500 Du        
   3190 ****       228.7500  31.7500  14.5000 Du        
   3191 ****       228.7500  32.0000  12.5000 Du        
   3192 ****       228.7500  32.0000  12.7500 Du        
   3193 ****       228.7500  32.0000  13.0000 Du        
   3194 ****       228.7500  32.0000  13.2500 Du        
   3195 ****       228.7500  32.0000  13.5000 Du        
   3196 ****       228.7500  32.0000  13.7500 Du        
   3197 ****       228.7500  32.0000  14.0000 Du        
   3198 ****       228.7500  32.0000  14.2500 Du        
   3199 ****       228.7500  32.0000  14.5000 Du        
   3200 ****       228.7500  32.0000  14.7500 Du        
   3201 ****       228.7500  32.2500  12.5000 Du        
   3202 ****       228.7500  32.2500  12.7500 Du        
   3203 ****       228.7500  32.2500  13.0000 Du        
   3204 ****       228.7500  32.2500  13.2500 Du        
   3205 ****       228.7500  32.2500  13.5000 Du        
   3206 ****       228.7500  32.2500  13.7500 Du        
   3207 ****       228.7500  32.2500  14.0000 Du        
   3208 ****       228.7500  32.2500  14.2500 Du        
   3209 ****       228.7500  32.2500  14.5000 Du        
   3210 ****       228.7500  32.2500  14.7500 Du        
   3211 ****       228.7500  32.5000  12.5000 Du        
   3212 ****       228.7500  32.5000  12.7500 Du        
   3213 ****       228.7500  32.5000  13.0000 Du        
   3214 ****       228.7500  32.5000  13.2500 Du        
   3215 ****       228.7500  32.5000  13.5000 Du        
   3216 ****       228.7500  32.5000  13.7500 Du        
   3217 ****       228.7500  32.5000  14.0000 Du        
   3218 ****       228.7500  32.5000  14.2500 Du        
   3219 ****       228.7500  32.5000  14.5000 Du        
   3220 ****       228.7500  32.5000  14.7500 Du        
   3221 ****       228.7500  32.7500  12.2500 Du        
   3222 ****       228.7500  32.7500  12.5000 Du        
   3223 ****       228.7500  32.7500  12.7500 Du        
   3224 ****       228.7500  32.7500  13.0000 Du        
   3225 ****       228.7500  32.7500  13.2500 Du        
   3226 ****       228.7500  32.7500  13.5000 Du        
   3227 ****       228.7500  32.7500  13.7500 Du        
   3228 ****       228.7500  32.7500  14.0000 Du        
   3229 ****       228.7500  32.7500  14.2500 Du        
   3230 ****       228.7500  32.7500  14.5000 Du        
   3231 ****       228.7500  32.7500  14.7500 Du        
   3232 ****       228.7500  33.0000  12.2500 Du        
   3233 ****       228.7500  33.0000  12.5000 Du        
   3234 ****       228.7500  33.0000  12.7500 Du        
   3235 ****       228.7500  33.0000  13.0000 Du        
   3236 ****       228.7500  33.0000  13.2500 Du        
   3237 ****       228.7500  33.0000  13.5000 Du        
   3238 ****       228.7500  33.0000  13.7500 Du        
   3239 ****       228.7500  33.0000  14.0000 Du        
   3240 ****       228.7500  33.0000  14.2500 Du        
   3241 ****       228.7500  33.0000  14.5000 Du        
   3242 ****       228.7500  33.0000  14.7500 Du        
   3243 ****       228.7500  33.2500  12.2500 Du        
   3244 ****       228.7500  33.2500  12.5000 Du        
   3245 ****       228.7500  33.2500  12.7500 Du        
   3246 ****       228.7500  33.2500  13.0000 Du        
   3247 ****       228.7500  33.2500  13.2500 Du        
   3248 ****       228.7500  33.2500  13.5000 Du        
   3249 ****       228.7500  33.2500  13.7500 Du        
   3250 ****       228.7500  33.2500  14.0000 Du        
   3251 ****       228.7500  33.2500  14.2500 Du        
   3252 ****       228.7500  33.2500  14.5000 Du        
   3253 ****       228.7500  33.2500  14.7500 Du        
   3254 ****       228.7500  33.5000  12.2500 Du        
   3255 ****       228.7500  33.5000  12.5000 Du        
   3256 ****       228.7500  33.5000  12.7500 Du        
   3257 ****       228.7500  33.5000  13.0000 Du        
   3258 ****       228.7500  33.5000  13.2500 Du        
   3259 ****       228.7500  33.5000  13.5000 Du        
   3260 ****       228.7500  33.5000  13.7500 Du        
   3261 ****       228.7500  33.5000  14.0000 Du        
   3262 ****       228.7500  33.5000  14.2500 Du        
   3263 ****       228.7500  33.5000  14.5000 Du        
   3264 ****       228.7500  33.5000  14.7500 Du        
   3265 ****       228.7500  33.7500  12.2500 Du        
   3266 ****       228.7500  33.7500  12.5000 Du        
   3267 ****       228.7500  33.7500  12.7500 Du        
   3268 ****       228.7500  33.7500  13.0000 Du        
   3269 ****       228.7500  33.7500  13.2500 Du        
   3270 ****       228.7500  33.7500  13.5000 Du        
   3271 ****       228.7500  33.7500  13.7500 Du        
   3272 ****       228.7500  33.7500  14.0000 Du        
   3273 ****       228.7500  33.7500  14.2500 Du        
   3274 ****       228.7500  33.7500  14.5000 Du        
   3275 ****       228.7500  33.7500  14.7500 Du        
   3276 ****       228.7500  34.0000  12.2500 Du        
   3277 ****       228.7500  34.0000  12.5000 Du        
   3278 ****       228.7500  34.0000  12.7500 Du        
   3279 ****       228.7500  34.0000  13.0000 Du        
   3280 ****       228.7500  34.0000  13.2500 Du        
   3281 ****       228.7500  34.0000  13.5000 Du        
   3282 ****       228.7500  34.0000  13.7500 Du        
   3283 ****       228.7500  34.0000  14.0000 Du        
   3284 ****       228.7500  34.0000  14.2500 Du        
   3285 ****       228.7500  34.0000  14.5000 Du        
   3286 ****       228.7500  34.2500  12.2500 Du        
   3287 ****       228.7500  34.2500  12.5000 Du        
   3288 ****       228.7500  34.2500  12.7500 Du        
   3289 ****       228.7500  34.2500  13.0000 Du        
   3290 ****       228.7500  34.2500  13.2500 Du        
   3291 ****       228.7500  34.2500  13.5000 Du        
   3292 ****       228.7500  34.2500  13.7500 Du        
   3293 ****       228.7500  34.2500  14.0000 Du        
   3294 ****       228.7500  34.2500  14.2500 Du        
   3295 ****       228.7500  34.5000  12.5000 Du        
   3296 ****       228.7500  34.5000  12.7500 Du        
   3297 ****       228.7500  34.5000  13.0000 Du        
   3298 ****       228.7500  34.5000  13.2500 Du        
   3299 ****       228.7500  34.5000  13.5000 Du        
   3300 ****       228.7500  34.5000  13.7500 Du        
   3301 ****       228.7500  34.5000  14.0000 Du        
   3302 ****       228.7500  34.7500  12.7500 Du        
   3303 ****       228.7500  34.7500  13.0000 Du        
   3304 ****       228.7500  34.7500  13.2500 Du        
   3305 ****       228.7500  34.7500  13.5000 Du        
   3306 ****       228.7500  35.0000  13.0000 Du        
   3307 ****       228.7500  35.0000  13.2500 Du        
   3308 ****       229.0000  21.0000  13.7500 Du        
   3309 ****       229.0000  21.0000  14.0000 Du        
   3310 ****       229.0000  21.2500  13.7500 Du        
   3311 ****       229.0000  21.2500  14.0000 Du        
   3312 ****       229.0000  21.5000  13.7500 Du        
   3313 ****       229.0000  21.5000  14.0000 Du        
   3314 ****       229.0000  21.5000  14.2500 Du        
   3315 ****       229.0000  21.7500  13.5000 Du        
   3316 ****       229.0000  21.7500  13.7500 Du        
   3317 ****       229.0000  21.7500  14.0000 Du        
   3318 ****       229.0000  21.7500  14.2500 Du        
   3319 ****       229.0000  22.0000  13.5000 Du        
   3320 ****       229.0000  22.0000  13.7500 Du        
   3321 ****       229.0000  22.0000  14.0000 Du        
   3322 ****       229.0000  22.0000  14.2500 Du        
   3323 ****       229.0000  22.0000  14.5000 Du        
   3324 ****       229.0000  22.0000  14.7500 Du        
   3325 ****       229.0000  22.2500  13.2500 Du        
   3326 ****       229.0000  22.2500  13.5000 Du        
   3327 ****       229.0000  22.2500  13.7500 Du        
   3328 ****       229.0000  22.2500  14.0000 Du        
   3329 ****       229.0000  22.2500  14.2500 Du        
   3330 ****       229.0000  22.2500  14.5000 Du        
   3331 ****       229.0000  22.2500  14.7500 Du        
   3332 ****       229.0000  22.5000  13.2500 Du        
   3333 ****       229.0000  22.5000  13.5000 Du        
   3334 ****       229.0000  22.5000  13.7500 Du        
   3335 ****       229.0000  22.5000  14.0000 Du        
   3336 ****       229.0000  22.5000  14.2500 Du        
   3337 ****       229.0000  22.5000  14.5000 Du        
   3338 ****       229.0000  22.5000  14.7500 Du        
   3339 ****       229.0000  22.7500  13.2500 Du        
   3340 ****       229.0000  22.7500  13.5000 Du        
   3341 ****       229.0000  22.7500  13.7500 Du        
   3342 ****       229.0000  22.7500  14.0000 Du        
   3343 ****       229.0000  22.7500  14.2500 Du        
   3344 ****       229.0000  22.7500  14.5000 Du        
   3345 ****       229.0000  22.7500  14.7500 Du        
   3346 ****       229.0000  22.7500  15.0000 Du        
   3347 ****       229.0000  23.0000  13.0000 Du        
   3348 ****       229.0000  23.0000  13.2500 Du        
   3349 ****       229.0000  23.0000  13.5000 Du        
   3350 ****       229.0000  23.0000  13.7500 Du        
   3351 ****       229.0000  23.0000  14.0000 Du        
   3352 ****       229.0000  23.0000  14.2500 Du        
   3353 ****       229.0000  23.0000  14.5000 Du        
   3354 ****       229.0000  23.0000  14.7500 Du        
   3355 ****       229.0000  23.0000  15.0000 Du        
   3356 ****       229.0000  23.2500  13.0000 Du        
   3357 ****       229.0000  23.2500  13.2500 Du        
   3358 ****       229.0000  23.2500  13.5000 Du        
   3359 ****       229.0000  23.2500  13.7500 Du        
   3360 ****       229.0000  23.2500  14.0000 Du        
   3361 ****       229.0000  23.2500  14.2500 Du        
   3362 ****       229.0000  23.2500  14.5000 Du        
   3363 ****       229.0000  23.2500  14.7500 Du        
   3364 ****       229.0000  23.2500  15.0000 Du        
   3365 ****       229.0000  23.5000  12.7500 Du        
   3366 ****       229.0000  23.5000  13.0000 Du        
   3367 ****       229.0000  23.5000  13.2500 Du        
   3368 ****       229.0000  23.5000  13.5000 Du        
   3369 ****       229.0000  23.5000  13.7500 Du        
   3370 ****       229.0000  23.5000  14.0000 Du        
   3371 ****       229.0000  23.5000  14.2500 Du        
   3372 ****       229.0000  23.5000  14.5000 Du        
   3373 ****       229.0000  23.5000  14.7500 Du        
   3374 ****       229.0000  23.5000  15.0000 Du        
   3375 ****       229.0000  23.7500  12.7500 Du        
   3376 ****       229.0000  23.7500  13.0000 Du        
   3377 ****       229.0000  23.7500  13.2500 Du        
   3378 ****       229.0000  23.7500  13.5000 Du        
   3379 ****       229.0000  23.7500  13.7500 Du        
   3380 ****       229.0000  23.7500  14.0000 Du        
   3381 ****       229.0000  23.7500  14.2500 Du        
   3382 ****       229.0000  24.0000  12.5000 Du        
   3383 ****       229.0000  24.0000  12.7500 Du        
   3384 ****       229.0000  24.0000  13.0000 Du        
   3385 ****       229.0000  24.0000  13.2500 Du        
   3386 ****       229.0000  24.0000  13.5000 Du        
   3387 ****       229.0000  24.0000  13.7500 Du        
   3388 ****       229.0000  24.2500  12.2500 Du        
   3389 ****       229.0000  24.2500  12.5000 Du        
   3390 ****       229.0000  24.2500  12.7500 Du        
   3391 ****       229.0000  24.2500  13.0000 Du        
   3392 ****       229.0000  24.2500  13.2500 Du        
   3393 ****       229.0000  24.5000  12.0000 Du        
   3394 ****       229.0000  24.5000  12.2500 Du        
   3395 ****       229.0000  24.5000  12.5000 Du        
   3396 ****       229.0000  24.5000  12.7500 Du        
   3397 ****       229.0000  24.5000  13.0000 Du        
   3398 ****       229.0000  24.7500  11.5000 Du        
   3399 ****       229.0000  24.7500  11.7500 Du        
   3400 ****       229.0000  24.7500  12.0000 Du        
   3401 ****       229.0000  24.7500  12.2500 Du        
   3402 ****       229.0000  24.7500  12.5000 Du        
   3403 ****       229.0000  24.7500  12.7500 Du        
   3404 ****       229.0000  24.7500  13.0000 Du        
   3405 ****       229.0000  25.0000  11.0000 Du        
   3406 ****       229.0000  25.0000  11.2500 Du        
   3407 ****       229.0000  25.0000  11.5000 Du        
   3408 ****       229.0000  25.0000  11.7500 Du        
   3409 ****       229.0000  25.0000  12.0000 Du        
   3410 ****       229.0000  25.0000  12.2500 Du        
   3411 ****       229.0000  25.0000  12.5000 Du        
   3412 ****       229.0000  25.0000  12.7500 Du        
   3413 ****       229.0000  25.2500  10.7500 Du        
   3414 ****       229.0000  25.2500  11.0000 Du        
   3415 ****       229.0000  25.2500  11.2500 Du        
   3416 ****       229.0000  25.2500  11.5000 Du        
   3417 ****       229.0000  25.2500  11.7500 Du        
   3418 ****       229.0000  25.2500  12.0000 Du        
   3419 ****       229.0000  25.2500  12.2500 Du        
   3420 ****       229.0000  25.2500  12.5000 Du        
   3421 ****       229.0000  25.5000  10.7500 Du        
   3422 ****       229.0000  25.5000  11.0000 Du        
   3423 ****       229.0000  25.5000  11.2500 Du        
   3424 ****       229.0000  25.5000  11.5000 Du        
   3425 ****       229.0000  25.5000  11.7500 Du        
   3426 ****       229.0000  25.5000  12.0000 Du        
   3427 ****       229.0000  25.5000  12.2500 Du        
   3428 ****       229.0000  25.5000  12.5000 Du        
   3429 ****       229.0000  25.7500  10.7500 Du        
   3430 ****       229.0000  25.7500  11.0000 Du        
   3431 ****       229.0000  25.7500  11.2500 Du        
   3432 ****       229.0000  25.7500  11.5000 Du        
   3433 ****       229.0000  25.7500  11.7500 Du        
   3434 ****       229.0000  25.7500  12.0000 Du        
   3435 ****       229.0000  25.7500  12.2500 Du        
   3436 ****       229.0000  26.0000  11.0000 Du        
   3437 ****       229.0000  26.0000  11.2500 Du        
   3438 ****       229.0000  26.0000  11.5000 Du        
   3439 ****       229.0000  26.0000  11.7500 Du        
   3440 ****       229.0000  26.0000  12.0000 Du        
   3441 ****       229.0000  26.0000  12.2500 Du        
   3442 ****       229.0000  26.2500  11.2500 Du        
   3443 ****       229.0000  26.2500  11.5000 Du        
   3444 ****       229.0000  26.2500  11.7500 Du        
   3445 ****       229.0000  26.2500  12.0000 Du        
   3446 ****       229.0000  26.2500  12.2500 Du        
   3447 ****       229.0000  26.5000  11.2500 Du        
   3448 ****       229.0000  26.5000  11.5000 Du        
   3449 ****       229.0000  26.5000  11.7500 Du        
   3450 ****       229.0000  26.5000  12.0000 Du        
   3451 ****       229.0000  26.5000  12.2500 Du        
   3452 ****       229.0000  26.7500  11.2500 Du        
   3453 ****       229.0000  26.7500  11.5000 Du        
   3454 ****       229.0000  26.7500  11.7500 Du        
   3455 ****       229.0000  26.7500  12.0000 Du        
   3456 ****       229.0000  26.7500  12.2500 Du        
   3457 ****       229.0000  27.0000  11.2500 Du        
   3458 ****       229.0000  27.0000  11.5000 Du        
   3459 ****       229.0000  27.0000  11.7500 Du        
   3460 ****       229.0000  27.0000  12.0000 Du        
   3461 ****       229.0000  27.0000  12.2500 Du        
   3462 ****       229.0000  27.2500  11.2500 Du        
   3463 ****       229.0000  27.2500  11.5000 Du        
   3464 ****       229.0000  27.2500  11.7500 Du        
   3465 ****       229.0000  27.2500  12.0000 Du        
   3466 ****       229.0000  27.2500  12.2500 Du        
   3467 ****       229.0000  27.5000  11.2500 Du        
   3468 ****       229.0000  27.5000  11.5000 Du        
   3469 ****       229.0000  27.5000  11.7500 Du        
   3470 ****       229.0000  27.5000  12.0000 Du        
   3471 ****       229.0000  27.5000  12.2500 Du        
   3472 ****       229.0000  27.7500  11.2500 Du        
   3473 ****       229.0000  27.7500  11.5000 Du        
   3474 ****       229.0000  27.7500  11.7500 Du        
   3475 ****       229.0000  27.7500  12.0000 Du        
   3476 ****       229.0000  27.7500  12.2500 Du        
   3477 ****       229.0000  28.0000  11.2500 Du        
   3478 ****       229.0000  28.0000  11.5000 Du        
   3479 ****       229.0000  28.0000  11.7500 Du        
   3480 ****       229.0000  28.0000  12.0000 Du        
   3481 ****       229.0000  28.0000  12.2500 Du        
   3482 ****       229.0000  28.2500  11.2500 Du        
   3483 ****       229.0000  28.2500  11.5000 Du        
   3484 ****       229.0000  28.2500  11.7500 Du        
   3485 ****       229.0000  28.2500  12.0000 Du        
   3486 ****       229.0000  28.5000  11.2500 Du        
   3487 ****       229.0000  28.5000  11.5000 Du        
   3488 ****       229.0000  28.5000  11.7500 Du        
   3489 ****       229.0000  28.5000  12.0000 Du        
   3490 ****       229.0000  28.7500  11.2500 Du        
   3491 ****       229.0000  28.7500  11.5000 Du        
   3492 ****       229.0000  28.7500  11.7500 Du        
   3493 ****       229.0000  29.0000  11.2500 Du        
   3494 ****       229.0000  29.0000  11.5000 Du        
   3495 ****       229.0000  29.0000  11.7500 Du        
   3496 ****       229.0000  29.2500  11.2500 Du        
   3497 ****       229.0000  29.2500  11.5000 Du        
   3498 ****       229.0000  29.5000  11.5000 Du        
   3499 ****       229.0000  29.5000  11.7500 Du        
   3500 ****       229.0000  29.7500  11.7500 Du        
   3501 ****       229.0000  30.0000  12.0000 Du        
   3502 ****       229.0000  30.2500  12.2500 Du        
   3503 ****       229.0000  30.5000  12.2500 Du        
   3504 ****       229.0000  30.5000  12.5000 Du        
   3505 ****       229.0000  30.5000  12.7500 Du        
   3506 ****       229.0000  30.5000  13.0000 Du        
   3507 ****       229.0000  30.5000  13.2500 Du        
   3508 ****       229.0000  30.5000  13.5000 Du        
   3509 ****       229.0000  30.7500  12.2500 Du        
   3510 ****       229.0000  30.7500  12.5000 Du        
   3511 ****       229.0000  30.7500  12.7500 Du        
   3512 ****       229.0000  30.7500  13.0000 Du        
   3513 ****       229.0000  30.7500  13.2500 Du        
   3514 ****       229.0000  30.7500  13.5000 Du        
   3515 ****       229.0000  30.7500  13.7500 Du        
   3516 ****       229.0000  31.0000  12.5000 Du        
   3517 ****       229.0000  31.0000  12.7500 Du        
   3518 ****       229.0000  31.0000  13.0000 Du        
   3519 ****       229.0000  31.0000  13.2500 Du        
   3520 ****       229.0000  31.0000  13.5000 Du        
   3521 ****       229.0000  31.0000  13.7500 Du        
   3522 ****       229.0000  31.0000  14.0000 Du        
   3523 ****       229.0000  31.2500  12.5000 Du        
   3524 ****       229.0000  31.2500  12.7500 Du        
   3525 ****       229.0000  31.2500  13.0000 Du        
   3526 ****       229.0000  31.2500  13.2500 Du        
   3527 ****       229.0000  31.2500  13.5000 Du        
   3528 ****       229.0000  31.2500  13.7500 Du        
   3529 ****       229.0000  31.2500  14.0000 Du        
   3530 ****       229.0000  31.2500  14.2500 Du        
   3531 ****       229.0000  31.5000  12.5000 Du        
   3532 ****       229.0000  31.5000  12.7500 Du        
   3533 ****       229.0000  31.5000  13.0000 Du        
   3534 ****       229.0000  31.5000  13.2500 Du        
   3535 ****       229.0000  31.5000  13.5000 Du        
   3536 ****       229.0000  31.5000  13.7500 Du        
   3537 ****       229.0000  31.5000  14.0000 Du        
   3538 ****       229.0000  31.5000  14.2500 Du        
   3539 ****       229.0000  31.5000  14.5000 Du        
   3540 ****       229.0000  31.7500  12.5000 Du        
   3541 ****       229.0000  31.7500  12.7500 Du        
   3542 ****       229.0000  31.7500  13.0000 Du        
   3543 ****       229.0000  31.7500  13.2500 Du        
   3544 ****       229.0000  31.7500  13.5000 Du        
   3545 ****       229.0000  31.7500  13.7500 Du        
   3546 ****       229.0000  31.7500  14.0000 Du        
   3547 ****       229.0000  31.7500  14.2500 Du        
   3548 ****       229.0000  31.7500  14.5000 Du        
   3549 ****       229.0000  32.0000  12.5000 Du        
   3550 ****       229.0000  32.0000  12.7500 Du        
   3551 ****       229.0000  32.0000  13.0000 Du        
   3552 ****       229.0000  32.0000  13.2500 Du        
   3553 ****       229.0000  32.0000  13.5000 Du        
   3554 ****       229.0000  32.0000  13.7500 Du        
   3555 ****       229.0000  32.0000  14.0000 Du        
   3556 ****       229.0000  32.0000  14.2500 Du        
   3557 ****       229.0000  32.0000  14.5000 Du        
   3558 ****       229.0000  32.2500  12.5000 Du        
   3559 ****       229.0000  32.2500  12.7500 Du        
   3560 ****       229.0000  32.2500  13.0000 Du        
   3561 ****       229.0000  32.2500  13.2500 Du        
   3562 ****       229.0000  32.2500  13.5000 Du        
   3563 ****       229.0000  32.2500  13.7500 Du        
   3564 ****       229.0000  32.2500  14.0000 Du        
   3565 ****       229.0000  32.2500  14.2500 Du        
   3566 ****       229.0000  32.2500  14.5000 Du        
   3567 ****       229.0000  32.5000  12.5000 Du        
   3568 ****       229.0000  32.5000  12.7500 Du        
   3569 ****       229.0000  32.5000  13.0000 Du        
   3570 ****       229.0000  32.5000  13.2500 Du        
   3571 ****       229.0000  32.5000  13.5000 Du        
   3572 ****       229.0000  32.5000  13.7500 Du        
   3573 ****       229.0000  32.5000  14.0000 Du        
   3574 ****       229.0000  32.5000  14.2500 Du        
   3575 ****       229.0000  32.5000  14.5000 Du        
   3576 ****       229.0000  32.7500  12.2500 Du        
   3577 ****       229.0000  32.7500  12.5000 Du        
   3578 ****       229.0000  32.7500  12.7500 Du        
   3579 ****       229.0000  32.7500  13.0000 Du        
   3580 ****       229.0000  32.7500  13.2500 Du        
   3581 ****       229.0000  32.7500  13.5000 Du        
   3582 ****       229.0000  32.7500  13.7500 Du        
   3583 ****       229.0000  32.7500  14.0000 Du        
   3584 ****       229.0000  32.7500  14.2500 Du        
   3585 ****       229.0000  32.7500  14.5000 Du        
   3586 ****       229.0000  32.7500  14.7500 Du        
   3587 ****       229.0000  33.0000  12.2500 Du        
   3588 ****       229.0000  33.0000  12.5000 Du        
   3589 ****       229.0000  33.0000  12.7500 Du        
   3590 ****       229.0000  33.0000  13.0000 Du        
   3591 ****       229.0000  33.0000  13.2500 Du        
   3592 ****       229.0000  33.0000  13.5000 Du        
   3593 ****       229.0000  33.0000  13.7500 Du        
   3594 ****       229.0000  33.0000  14.0000 Du        
   3595 ****       229.0000  33.0000  14.2500 Du        
   3596 ****       229.0000  33.0000  14.5000 Du        
   3597 ****       229.0000  33.0000  14.7500 Du        
   3598 ****       229.0000  33.2500  12.2500 Du        
   3599 ****       229.0000  33.2500  12.5000 Du        
   3600 ****       229.0000  33.2500  12.7500 Du        
   3601 ****       229.0000  33.2500  13.0000 Du        
   3602 ****       229.0000  33.2500  13.2500 Du        
   3603 ****       229.0000  33.2500  13.5000 Du        
   3604 ****       229.0000  33.2500  13.7500 Du        
   3605 ****       229.0000  33.2500  14.0000 Du        
   3606 ****       229.0000  33.2500  14.2500 Du        
   3607 ****       229.0000  33.2500  14.5000 Du        
   3608 ****       229.0000  33.2500  14.7500 Du        
   3609 ****       229.0000  33.5000  12.2500 Du        
   3610 ****       229.0000  33.5000  12.5000 Du        
   3611 ****       229.0000  33.5000  12.7500 Du        
   3612 ****       229.0000  33.5000  13.0000 Du        
   3613 ****       229.0000  33.5000  13.2500 Du        
   3614 ****       229.0000  33.5000  13.5000 Du        
   3615 ****       229.0000  33.5000  13.7500 Du        
   3616 ****       229.0000  33.5000  14.0000 Du        
   3617 ****       229.0000  33.5000  14.2500 Du        
   3618 ****       229.0000  33.5000  14.5000 Du        
   3619 ****       229.0000  33.5000  14.7500 Du        
   3620 ****       229.0000  33.7500  12.2500 Du        
   3621 ****       229.0000  33.7500  12.5000 Du        
   3622 ****       229.0000  33.7500  12.7500 Du        
   3623 ****       229.0000  33.7500  13.0000 Du        
   3624 ****       229.0000  33.7500  13.2500 Du        
   3625 ****       229.0000  33.7500  13.5000 Du        
   3626 ****       229.0000  33.7500  13.7500 Du        
   3627 ****       229.0000  33.7500  14.0000 Du        
   3628 ****       229.0000  33.7500  14.2500 Du        
   3629 ****       229.0000  33.7500  14.5000 Du        
   3630 ****       229.0000  34.0000  12.2500 Du        
   3631 ****       229.0000  34.0000  12.5000 Du        
   3632 ****       229.0000  34.0000  12.7500 Du        
   3633 ****       229.0000  34.0000  13.0000 Du        
   3634 ****       229.0000  34.0000  13.2500 Du        
   3635 ****       229.0000  34.0000  13.5000 Du        
   3636 ****       229.0000  34.0000  13.7500 Du        
   3637 ****       229.0000  34.0000  14.0000 Du        
   3638 ****       229.0000  34.0000  14.2500 Du        
   3639 ****       229.0000  34.2500  12.2500 Du        
   3640 ****       229.0000  34.2500  12.5000 Du        
   3641 ****       229.0000  34.2500  12.7500 Du        
   3642 ****       229.0000  34.2500  13.0000 Du        
   3643 ****       229.0000  34.2500  13.2500 Du        
   3644 ****       229.0000  34.2500  13.5000 Du        
   3645 ****       229.0000  34.2500  13.7500 Du        
   3646 ****       229.0000  34.2500  14.0000 Du        
   3647 ****       229.0000  34.5000  12.5000 Du        
   3648 ****       229.0000  34.5000  12.7500 Du        
   3649 ****       229.0000  34.5000  13.0000 Du        
   3650 ****       229.0000  34.5000  13.2500 Du        
   3651 ****       229.0000  34.5000  13.5000 Du        
   3652 ****       229.0000  34.5000  13.7500 Du        
   3653 ****       229.0000  34.7500  12.5000 Du        
   3654 ****       229.0000  34.7500  12.7500 Du        
   3655 ****       229.0000  34.7500  13.0000 Du        
   3656 ****       229.0000  34.7500  13.2500 Du        
   3657 ****       229.0000  34.7500  13.5000 Du        
   3658 ****       229.0000  35.0000  12.7500 Du        
   3659 ****       229.0000  35.0000  13.0000 Du        
   3660 ****       229.2500  21.2500  13.7500 Du        
   3661 ****       229.2500  21.2500  14.0000 Du        
   3662 ****       229.2500  21.5000  13.7500 Du        
   3663 ****       229.2500  21.5000  14.0000 Du        
   3664 ****       229.2500  21.7500  13.5000 Du        
   3665 ****       229.2500  21.7500  13.7500 Du        
   3666 ****       229.2500  21.7500  14.0000 Du        
   3667 ****       229.2500  21.7500  14.2500 Du        
   3668 ****       229.2500  22.0000  13.5000 Du        
   3669 ****       229.2500  22.0000  13.7500 Du        
   3670 ****       229.2500  22.0000  14.0000 Du        
   3671 ****       229.2500  22.0000  14.2500 Du        
   3672 ****       229.2500  22.2500  13.2500 Du        
   3673 ****       229.2500  22.2500  13.5000 Du        
   3674 ****       229.2500  22.2500  13.7500 Du        
   3675 ****       229.2500  22.2500  14.0000 Du        
   3676 ****       229.2500  22.2500  14.2500 Du        
   3677 ****       229.2500  22.2500  14.5000 Du        
   3678 ****       229.2500  22.5000  13.2500 Du        
   3679 ****       229.2500  22.5000  13.5000 Du        
   3680 ****       229.2500  22.5000  13.7500 Du        
   3681 ****       229.2500  22.5000  14.0000 Du        
   3682 ****       229.2500  22.5000  14.2500 Du        
   3683 ****       229.2500  22.5000  14.5000 Du        
   3684 ****       229.2500  22.7500  13.2500 Du        
   3685 ****       229.2500  22.7500  13.5000 Du        
   3686 ****       229.2500  22.7500  13.7500 Du        
   3687 ****       229.2500  22.7500  14.0000 Du        
   3688 ****       229.2500  22.7500  14.2500 Du        
   3689 ****       229.2500  22.7500  14.5000 Du        
   3690 ****       229.2500  22.7500  14.7500 Du        
   3691 ****       229.2500  23.0000  13.0000 Du        
   3692 ****       229.2500  23.0000  13.2500 Du        
   3693 ****       229.2500  23.0000  13.5000 Du        
   3694 ****       229.2500  23.0000  13.7500 Du        
   3695 ****       229.2500  23.0000  14.0000 Du        
   3696 ****       229.2500  23.0000  14.2500 Du        
   3697 ****       229.2500  23.0000  14.5000 Du        
   3698 ****       229.2500  23.0000  14.7500 Du        
   3699 ****       229.2500  23.0000  15.0000 Du        
   3700 ****       229.2500  23.2500  13.0000 Du        
   3701 ****       229.2500  23.2500  13.2500 Du        
   3702 ****       229.2500  23.2500  13.5000 Du        
   3703 ****       229.2500  23.2500  13.7500 Du        
   3704 ****       229.2500  23.2500  14.0000 Du        
   3705 ****       229.2500  23.2500  14.2500 Du        
   3706 ****       229.2500  23.2500  14.5000 Du        
   3707 ****       229.2500  23.2500  14.7500 Du        
   3708 ****       229.2500  23.2500  15.0000 Du        
   3709 ****       229.2500  23.5000  12.7500 Du        
   3710 ****       229.2500  23.5000  13.0000 Du        
   3711 ****       229.2500  23.5000  13.2500 Du        
   3712 ****       229.2500  23.5000  13.5000 Du        
   3713 ****       229.2500  23.5000  13.7500 Du        
   3714 ****       229.2500  23.5000  14.0000 Du        
   3715 ****       229.2500  23.5000  14.2500 Du        
   3716 ****       229.2500  23.5000  14.5000 Du        
   3717 ****       229.2500  23.5000  14.7500 Du        
   3718 ****       229.2500  23.5000  15.0000 Du        
   3719 ****       229.2500  23.7500  12.7500 Du        
   3720 ****       229.2500  23.7500  13.0000 Du        
   3721 ****       229.2500  23.7500  13.2500 Du        
   3722 ****       229.2500  23.7500  13.5000 Du        
   3723 ****       229.2500  23.7500  13.7500 Du        
   3724 ****       229.2500  23.7500  14.0000 Du        
   3725 ****       229.2500  23.7500  14.2500 Du        
   3726 ****       229.2500  23.7500  14.5000 Du        
   3727 ****       229.2500  24.0000  12.5000 Du        
   3728 ****       229.2500  24.0000  12.7500 Du        
   3729 ****       229.2500  24.0000  13.0000 Du        
   3730 ****       229.2500  24.0000  13.2500 Du        
   3731 ****       229.2500  24.0000  13.5000 Du        
   3732 ****       229.2500  24.0000  13.7500 Du        
   3733 ****       229.2500  24.0000  14.0000 Du        
   3734 ****       229.2500  24.2500  12.2500 Du        
   3735 ****       229.2500  24.2500  12.5000 Du        
   3736 ****       229.2500  24.2500  12.7500 Du        
   3737 ****       229.2500  24.2500  13.0000 Du        
   3738 ****       229.2500  24.2500  13.2500 Du        
   3739 ****       229.2500  24.2500  13.5000 Du        
   3740 ****       229.2500  24.5000  12.0000 Du        
   3741 ****       229.2500  24.5000  12.2500 Du        
   3742 ****       229.2500  24.5000  12.5000 Du        
   3743 ****       229.2500  24.5000  12.7500 Du        
   3744 ****       229.2500  24.5000  13.0000 Du        
   3745 ****       229.2500  24.5000  13.2500 Du        
   3746 ****       229.2500  24.7500  11.7500 Du        
   3747 ****       229.2500  24.7500  12.0000 Du        
   3748 ****       229.2500  24.7500  12.2500 Du        
   3749 ****       229.2500  24.7500  12.5000 Du        
   3750 ****       229.2500  24.7500  12.7500 Du        
   3751 ****       229.2500  24.7500  13.0000 Du        
   3752 ****       229.2500  25.0000  11.2500 Du        
   3753 ****       229.2500  25.0000  11.5000 Du        
   3754 ****       229.2500  25.0000  11.7500 Du        
   3755 ****       229.2500  25.0000  12.0000 Du        
   3756 ****       229.2500  25.0000  12.2500 Du        
   3757 ****       229.2500  25.0000  12.5000 Du        
   3758 ****       229.2500  25.0000  12.7500 Du        
   3759 ****       229.2500  25.2500  10.7500 Du        
   3760 ****       229.2500  25.2500  11.0000 Du        
   3761 ****       229.2500  25.2500  11.2500 Du        
   3762 ****       229.2500  25.2500  11.5000 Du        
   3763 ****       229.2500  25.2500  11.7500 Du        
   3764 ****       229.2500  25.2500  12.0000 Du        
   3765 ****       229.2500  25.2500  12.2500 Du        
   3766 ****       229.2500  25.2500  12.5000 Du        
   3767 ****       229.2500  25.2500  12.7500 Du        
   3768 ****       229.2500  25.5000  10.5000 Du        
   3769 ****       229.2500  25.5000  10.7500 Du        
   3770 ****       229.2500  25.5000  11.0000 Du        
   3771 ****       229.2500  25.5000  11.2500 Du        
   3772 ****       229.2500  25.5000  11.5000 Du        
   3773 ****       229.2500  25.5000  11.7500 Du        
   3774 ****       229.2500  25.5000  12.0000 Du        
   3775 ****       229.2500  25.5000  12.2500 Du        
   3776 ****       229.2500  25.5000  12.5000 Du        
   3777 ****       229.2500  25.7500  10.5000 Du        
   3778 ****       229.2500  25.7500  10.7500 Du        
   3779 ****       229.2500  25.7500  11.0000 Du        
   3780 ****       229.2500  25.7500  11.2500 Du        
   3781 ****       229.2500  25.7500  11.5000 Du        
   3782 ****       229.2500  25.7500  11.7500 Du        
   3783 ****       229.2500  25.7500  12.0000 Du        
   3784 ****       229.2500  25.7500  12.2500 Du        
   3785 ****       229.2500  25.7500  12.5000 Du        
   3786 ****       229.2500  26.0000  10.5000 Du        
   3787 ****       229.2500  26.0000  10.7500 Du        
   3788 ****       229.2500  26.0000  11.0000 Du        
   3789 ****       229.2500  26.0000  11.2500 Du        
   3790 ****       229.2500  26.0000  11.5000 Du        
   3791 ****       229.2500  26.0000  11.7500 Du        
   3792 ****       229.2500  26.0000  12.0000 Du        
   3793 ****       229.2500  26.0000  12.2500 Du        
   3794 ****       229.2500  26.2500  10.7500 Du        
   3795 ****       229.2500  26.2500  11.0000 Du        
   3796 ****       229.2500  26.2500  11.2500 Du        
   3797 ****       229.2500  26.2500  11.5000 Du        
   3798 ****       229.2500  26.2500  11.7500 Du        
   3799 ****       229.2500  26.2500  12.0000 Du        
   3800 ****       229.2500  26.2500  12.2500 Du        
   3801 ****       229.2500  26.5000  10.7500 Du        
   3802 ****       229.2500  26.5000  11.0000 Du        
   3803 ****       229.2500  26.5000  11.2500 Du        
   3804 ****       229.2500  26.5000  11.5000 Du        
   3805 ****       229.2500  26.5000  11.7500 Du        
   3806 ****       229.2500  26.5000  12.0000 Du        
   3807 ****       229.2500  26.5000  12.2500 Du        
   3808 ****       229.2500  26.7500  11.0000 Du        
   3809 ****       229.2500  26.7500  11.2500 Du        
   3810 ****       229.2500  26.7500  11.5000 Du        
   3811 ****       229.2500  26.7500  11.7500 Du        
   3812 ****       229.2500  26.7500  12.0000 Du        
   3813 ****       229.2500  26.7500  12.2500 Du        
   3814 ****       229.2500  27.0000  11.0000 Du        
   3815 ****       229.2500  27.0000  11.2500 Du        
   3816 ****       229.2500  27.0000  11.5000 Du        
   3817 ****       229.2500  27.0000  11.7500 Du        
   3818 ****       229.2500  27.0000  12.0000 Du        
   3819 ****       229.2500  27.0000  12.2500 Du        
   3820 ****       229.2500  27.2500  11.2500 Du        
   3821 ****       229.2500  27.2500  11.5000 Du        
   3822 ****       229.2500  27.2500  11.7500 Du        
   3823 ****       229.2500  27.2500  12.0000 Du        
   3824 ****       229.2500  27.2500  12.2500 Du        
   3825 ****       229.2500  27.5000  11.2500 Du        
   3826 ****       229.2500  27.5000  11.5000 Du        
   3827 ****       229.2500  27.5000  11.7500 Du        
   3828 ****       229.2500  27.5000  12.0000 Du        
   3829 ****       229.2500  27.5000  12.2500 Du        
   3830 ****       229.2500  27.7500  11.2500 Du        
   3831 ****       229.2500  27.7500  11.5000 Du        
   3832 ****       229.2500  27.7500  11.7500 Du        
   3833 ****       229.2500  27.7500  12.0000 Du        
   3834 ****       229.2500  28.0000  11.5000 Du        
   3835 ****       229.2500  28.0000  11.7500 Du        
   3836 ****       229.2500  31.0000  12.5000 Du        
   3837 ****       229.2500  31.0000  12.7500 Du        
   3838 ****       229.2500  31.0000  13.0000 Du        
   3839 ****       229.2500  31.0000  13.2500 Du        
   3840 ****       229.2500  31.0000  13.5000 Du        
   3841 ****       229.2500  31.0000  13.7500 Du        
   3842 ****       229.2500  31.0000  14.0000 Du        
   3843 ****       229.2500  31.2500  12.5000 Du        
   3844 ****       229.2500  31.2500  12.7500 Du        
   3845 ****       229.2500  31.2500  13.0000 Du        
   3846 ****       229.2500  31.2500  13.2500 Du        
   3847 ****       229.2500  31.2500  13.5000 Du        
   3848 ****       229.2500  31.2500  13.7500 Du        
   3849 ****       229.2500  31.2500  14.0000 Du        
   3850 ****       229.2500  31.2500  14.2500 Du        
   3851 ****       229.2500  31.5000  12.5000 Du        
   3852 ****       229.2500  31.5000  12.7500 Du        
   3853 ****       229.2500  31.5000  13.0000 Du        
   3854 ****       229.2500  31.5000  13.2500 Du        
   3855 ****       229.2500  31.5000  13.5000 Du        
   3856 ****       229.2500  31.5000  13.7500 Du        
   3857 ****       229.2500  31.5000  14.0000 Du        
   3858 ****       229.2500  31.5000  14.2500 Du        
   3859 ****       229.2500  31.7500  12.5000 Du        
   3860 ****       229.2500  31.7500  12.7500 Du        
   3861 ****       229.2500  31.7500  13.0000 Du        
   3862 ****       229.2500  31.7500  13.2500 Du        
   3863 ****       229.2500  31.7500  13.5000 Du        
   3864 ****       229.2500  31.7500  13.7500 Du        
   3865 ****       229.2500  31.7500  14.0000 Du        
   3866 ****       229.2500  31.7500  14.2500 Du        
   3867 ****       229.2500  32.0000  12.5000 Du        
   3868 ****       229.2500  32.0000  12.7500 Du        
   3869 ****       229.2500  32.0000  13.0000 Du        
   3870 ****       229.2500  32.0000  13.2500 Du        
   3871 ****       229.2500  32.0000  13.5000 Du        
   3872 ****       229.2500  32.0000  13.7500 Du        
   3873 ****       229.2500  32.0000  14.0000 Du        
   3874 ****       229.2500  32.0000  14.2500 Du        
   3875 ****       229.2500  32.0000  14.5000 Du        
   3876 ****       229.2500  32.2500  12.5000 Du        
   3877 ****       229.2500  32.2500  12.7500 Du        
   3878 ****       229.2500  32.2500  13.0000 Du        
   3879 ****       229.2500  32.2500  13.2500 Du        
   3880 ****       229.2500  32.2500  13.5000 Du        
   3881 ****       229.2500  32.2500  13.7500 Du        
   3882 ****       229.2500  32.2500  14.0000 Du        
   3883 ****       229.2500  32.2500  14.2500 Du        
   3884 ****       229.2500  32.2500  14.5000 Du        
   3885 ****       229.2500  32.5000  12.5000 Du        
   3886 ****       229.2500  32.5000  12.7500 Du        
   3887 ****       229.2500  32.5000  13.0000 Du        
   3888 ****       229.2500  32.5000  13.2500 Du        
   3889 ****       229.2500  32.5000  13.5000 Du        
   3890 ****       229.2500  32.5000  13.7500 Du        
   3891 ****       229.2500  32.5000  14.0000 Du        
   3892 ****       229.2500  32.5000  14.2500 Du        
   3893 ****       229.2500  32.5000  14.5000 Du        
   3894 ****       229.2500  32.7500  12.2500 Du        
   3895 ****       229.2500  32.7500  12.5000 Du        
   3896 ****       229.2500  32.7500  12.7500 Du        
   3897 ****       229.2500  32.7500  13.0000 Du        
   3898 ****       229.2500  32.7500  13.2500 Du        
   3899 ****       229.2500  32.7500  13.5000 Du        
   3900 ****       229.2500  32.7500  13.7500 Du        
   3901 ****       229.2500  32.7500  14.0000 Du        
   3902 ****       229.2500  32.7500  14.2500 Du        
   3903 ****       229.2500  32.7500  14.5000 Du        
   3904 ****       229.2500  33.0000  12.2500 Du        
   3905 ****       229.2500  33.0000  12.5000 Du        
   3906 ****       229.2500  33.0000  12.7500 Du        
   3907 ****       229.2500  33.0000  13.0000 Du        
   3908 ****       229.2500  33.0000  13.2500 Du        
   3909 ****       229.2500  33.0000  13.5000 Du        
   3910 ****       229.2500  33.0000  13.7500 Du        
   3911 ****       229.2500  33.0000  14.0000 Du        
   3912 ****       229.2500  33.0000  14.2500 Du        
   3913 ****       229.2500  33.0000  14.5000 Du        
   3914 ****       229.2500  33.2500  12.2500 Du        
   3915 ****       229.2500  33.2500  12.5000 Du        
   3916 ****       229.2500  33.2500  12.7500 Du        
   3917 ****       229.2500  33.2500  13.0000 Du        
   3918 ****       229.2500  33.2500  13.2500 Du        
   3919 ****       229.2500  33.2500  13.5000 Du        
   3920 ****       229.2500  33.2500  13.7500 Du        
   3921 ****       229.2500  33.2500  14.0000 Du        
   3922 ****       229.2500  33.2500  14.2500 Du        
   3923 ****       229.2500  33.2500  14.5000 Du        
   3924 ****       229.2500  33.5000  12.2500 Du        
   3925 ****       229.2500  33.5000  12.5000 Du        
   3926 ****       229.2500  33.5000  12.7500 Du        
   3927 ****       229.2500  33.5000  13.0000 Du        
   3928 ****       229.2500  33.5000  13.2500 Du        
   3929 ****       229.2500  33.5000  13.5000 Du        
   3930 ****       229.2500  33.5000  13.7500 Du        
   3931 ****       229.2500  33.5000  14.0000 Du        
   3932 ****       229.2500  33.5000  14.2500 Du        
   3933 ****       229.2500  33.5000  14.5000 Du        
   3934 ****       229.2500  33.7500  12.2500 Du        
   3935 ****       229.2500  33.7500  12.5000 Du        
   3936 ****       229.2500  33.7500  12.7500 Du        
   3937 ****       229.2500  33.7500  13.0000 Du        
   3938 ****       229.2500  33.7500  13.2500 Du        
   3939 ****       229.2500  33.7500  13.5000 Du        
   3940 ****       229.2500  33.7500  13.7500 Du        
   3941 ****       229.2500  33.7500  14.0000 Du        
   3942 ****       229.2500  33.7500  14.2500 Du        
   3943 ****       229.2500  34.0000  12.2500 Du        
   3944 ****       229.2500  34.0000  12.5000 Du        
   3945 ****       229.2500  34.0000  12.7500 Du        
   3946 ****       229.2500  34.0000  13.0000 Du        
   3947 ****       229.2500  34.0000  13.2500 Du        
   3948 ****       229.2500  34.0000  13.5000 Du        
   3949 ****       229.2500  34.0000  13.7500 Du        
   3950 ****       229.2500  34.0000  14.0000 Du        
   3951 ****       229.2500  34.2500  12.2500 Du        
   3952 ****       229.2500  34.2500  12.5000 Du        
   3953 ****       229.2500  34.2500  12.7500 Du        
   3954 ****       229.2500  34.2500  13.0000 Du        
   3955 ****       229.2500  34.2500  13.2500 Du        
   3956 ****       229.2500  34.2500  13.5000 Du        
   3957 ****       229.2500  34.2500  13.7500 Du        
   3958 ****       229.2500  34.5000  12.2500 Du        
   3959 ****       229.2500  34.5000  12.5000 Du        
   3960 ****       229.2500  34.5000  12.7500 Du        
   3961 ****       229.2500  34.5000  13.0000 Du        
   3962 ****       229.2500  34.5000  13.2500 Du        
   3963 ****       229.2500  34.5000  13.5000 Du        
   3964 ****       229.2500  34.7500  12.5000 Du        
   3965 ****       229.2500  34.7500  12.7500 Du        
   3966 ****       229.2500  34.7500  13.0000 Du        
   3967 ****       229.2500  34.7500  13.2500 Du        
   3968 ****       229.2500  35.0000  12.7500 Du        
   3969 ****       229.2500  35.0000  13.0000 Du        
   3970 ****       229.5000  21.2500  13.7500 Du        
   3971 ****       229.5000  21.5000  13.5000 Du        
   3972 ****       229.5000  21.5000  13.7500 Du        
   3973 ****       229.5000  21.5000  14.0000 Du        
   3974 ****       229.5000  21.7500  13.5000 Du        
   3975 ****       229.5000  21.7500  13.7500 Du        
   3976 ****       229.5000  21.7500  14.0000 Du        
   3977 ****       229.5000  22.0000  13.2500 Du        
   3978 ****       229.5000  22.0000  13.5000 Du        
   3979 ****       229.5000  22.0000  13.7500 Du        
   3980 ****       229.5000  22.0000  14.0000 Du        
   3981 ****       229.5000  22.0000  14.2500 Du        
   3982 ****       229.5000  22.2500  13.2500 Du        
   3983 ****       229.5000  22.2500  13.5000 Du        
   3984 ****       229.5000  22.2500  13.7500 Du        
   3985 ****       229.5000  22.2500  14.0000 Du        
   3986 ****       229.5000  22.2500  14.2500 Du        
   3987 ****       229.5000  22.2500  14.5000 Du        
   3988 ****       229.5000  22.5000  13.2500 Du        
   3989 ****       229.5000  22.5000  13.5000 Du        
   3990 ****       229.5000  22.5000  13.7500 Du        
   3991 ****       229.5000  22.5000  14.0000 Du        
   3992 ****       229.5000  22.5000  14.2500 Du        
   3993 ****       229.5000  22.5000  14.5000 Du        
   3994 ****       229.5000  22.7500  13.0000 Du        
   3995 ****       229.5000  22.7500  13.2500 Du        
   3996 ****       229.5000  22.7500  13.5000 Du        
   3997 ****       229.5000  22.7500  13.7500 Du        
   3998 ****       229.5000  22.7500  14.0000 Du        
   3999 ****       229.5000  22.7500  14.2500 Du        
   4000 ****       229.5000  22.7500  14.5000 Du        
   4001 ****       229.5000  22.7500  14.7500 Du        
   4002 ****       229.5000  23.0000  13.0000 Du        
   4003 ****       229.5000  23.0000  13.2500 Du        
   4004 ****       229.5000  23.0000  13.5000 Du        
   4005 ****       229.5000  23.0000  13.7500 Du        
   4006 ****       229.5000  23.0000  14.0000 Du        
   4007 ****       229.5000  23.0000  14.2500 Du        
   4008 ****       229.5000  23.0000  14.5000 Du        
   4009 ****       229.5000  23.0000  14.7500 Du        
   4010 ****       229.5000  23.2500  12.7500 Du        
   4011 ****       229.5000  23.2500  13.0000 Du        
   4012 ****       229.5000  23.2500  13.2500 Du        
   4013 ****       229.5000  23.2500  13.5000 Du        
   4014 ****       229.5000  23.2500  13.7500 Du        
   4015 ****       229.5000  23.2500  14.0000 Du        
   4016 ****       229.5000  23.2500  14.2500 Du        
   4017 ****       229.5000  23.2500  14.5000 Du        
   4018 ****       229.5000  23.2500  14.7500 Du        
   4019 ****       229.5000  23.2500  15.0000 Du        
   4020 ****       229.5000  23.5000  12.7500 Du        
   4021 ****       229.5000  23.5000  13.0000 Du        
   4022 ****       229.5000  23.5000  13.2500 Du        
   4023 ****       229.5000  23.5000  13.5000 Du        
   4024 ****       229.5000  23.5000  13.7500 Du        
   4025 ****       229.5000  23.5000  14.0000 Du        
   4026 ****       229.5000  23.5000  14.2500 Du        
   4027 ****       229.5000  23.5000  14.5000 Du        
   4028 ****       229.5000  23.5000  14.7500 Du        
   4029 ****       229.5000  23.5000  15.0000 Du        
   4030 ****       229.5000  23.7500  12.5000 Du        
   4031 ****       229.5000  23.7500  12.7500 Du        
   4032 ****       229.5000  23.7500  13.0000 Du        
   4033 ****       229.5000  23.7500  13.2500 Du        
   4034 ****       229.5000  23.7500  13.5000 Du        
   4035 ****       229.5000  23.7500  13.7500 Du        
   4036 ****       229.5000  23.7500  14.0000 Du        
   4037 ****       229.5000  23.7500  14.2500 Du        
   4038 ****       229.5000  23.7500  14.5000 Du        
   4039 ****       229.5000  23.7500  14.7500 Du        
   4040 ****       229.5000  24.0000  12.5000 Du        
   4041 ****       229.5000  24.0000  12.7500 Du        
   4042 ****       229.5000  24.0000  13.0000 Du        
   4043 ****       229.5000  24.0000  13.2500 Du        
   4044 ****       229.5000  24.0000  13.5000 Du        
   4045 ****       229.5000  24.0000  13.7500 Du        
   4046 ****       229.5000  24.0000  14.0000 Du        
   4047 ****       229.5000  24.0000  14.2500 Du        
   4048 ****       229.5000  24.2500  12.2500 Du        
   4049 ****       229.5000  24.2500  12.5000 Du        
   4050 ****       229.5000  24.2500  12.7500 Du        
   4051 ****       229.5000  24.2500  13.0000 Du        
   4052 ****       229.5000  24.2500  13.2500 Du        
   4053 ****       229.5000  24.2500  13.5000 Du        
   4054 ****       229.5000  24.2500  13.7500 Du        
   4055 ****       229.5000  24.5000  12.0000 Du        
   4056 ****       229.5000  24.5000  12.2500 Du        
   4057 ****       229.5000  24.5000  12.5000 Du        
   4058 ****       229.5000  24.5000  12.7500 Du        
   4059 ****       229.5000  24.5000  13.0000 Du        
   4060 ****       229.5000  24.5000  13.2500 Du        
   4061 ****       229.5000  24.5000  13.5000 Du        
   4062 ****       229.5000  24.7500  11.7500 Du        
   4063 ****       229.5000  24.7500  12.0000 Du        
   4064 ****       229.5000  24.7500  12.2500 Du        
   4065 ****       229.5000  24.7500  12.5000 Du        
   4066 ****       229.5000  24.7500  12.7500 Du        
   4067 ****       229.5000  24.7500  13.0000 Du        
   4068 ****       229.5000  25.0000  11.2500 Du        
   4069 ****       229.5000  25.0000  11.5000 Du        
   4070 ****       229.5000  25.0000  11.7500 Du        
   4071 ****       229.5000  25.0000  12.0000 Du        
   4072 ****       229.5000  25.0000  12.2500 Du        
   4073 ****       229.5000  25.0000  12.5000 Du        
   4074 ****       229.5000  25.0000  12.7500 Du        
   4075 ****       229.5000  25.0000  13.0000 Du        
   4076 ****       229.5000  25.2500  11.0000 Du        
   4077 ****       229.5000  25.2500  11.2500 Du        
   4078 ****       229.5000  25.2500  11.5000 Du        
   4079 ****       229.5000  25.2500  11.7500 Du        
   4080 ****       229.5000  25.2500  12.0000 Du        
   4081 ****       229.5000  25.2500  12.2500 Du        
   4082 ****       229.5000  25.2500  12.5000 Du        
   4083 ****       229.5000  25.2500  12.7500 Du        
   4084 ****       229.5000  25.5000  10.7500 Du        
   4085 ****       229.5000  25.5000  11.0000 Du        
   4086 ****       229.5000  25.5000  11.2500 Du        
   4087 ****       229.5000  25.5000  11.5000 Du        
   4088 ****       229.5000  25.5000  11.7500 Du        
   4089 ****       229.5000  25.5000  12.0000 Du        
   4090 ****       229.5000  25.5000  12.2500 Du        
   4091 ****       229.5000  25.5000  12.5000 Du        
   4092 ****       229.5000  25.7500  10.2500 Du        
   4093 ****       229.5000  25.7500  10.5000 Du        
   4094 ****       229.5000  25.7500  10.7500 Du        
   4095 ****       229.5000  25.7500  11.0000 Du        
   4096 ****       229.5000  25.7500  11.2500 Du        
   4097 ****       229.5000  25.7500  11.5000 Du        
   4098 ****       229.5000  25.7500  11.7500 Du        
   4099 ****       229.5000  25.7500  12.0000 Du        
   4100 ****       229.5000  25.7500  12.2500 Du        
   4101 ****       229.5000  25.7500  12.5000 Du        
   4102 ****       229.5000  26.0000  10.0000 Du        
   4103 ****       229.5000  26.0000  10.2500 Du        
   4104 ****       229.5000  26.0000  10.5000 Du        
   4105 ****       229.5000  26.0000  10.7500 Du        
   4106 ****       229.5000  26.0000  11.0000 Du        
   4107 ****       229.5000  26.0000  11.2500 Du        
   4108 ****       229.5000  26.0000  11.5000 Du        
   4109 ****       229.5000  26.0000  11.7500 Du        
   4110 ****       229.5000  26.0000  12.0000 Du        
   4111 ****       229.5000  26.0000  12.2500 Du        
   4112 ****       229.5000  26.0000  12.5000 Du        
   4113 ****       229.5000  26.2500  10.0000 Du        
   4114 ****       229.5000  26.2500  10.2500 Du        
   4115 ****       229.5000  26.2500  10.5000 Du        
   4116 ****       229.5000  26.2500  10.7500 Du        
   4117 ****       229.5000  26.2500  11.0000 Du        
   4118 ****       229.5000  26.2500  11.2500 Du        
   4119 ****       229.5000  26.2500  11.5000 Du        
   4120 ****       229.5000  26.2500  11.7500 Du        
   4121 ****       229.5000  26.2500  12.0000 Du        
   4122 ****       229.5000  26.2500  12.2500 Du        
   4123 ****       229.5000  26.5000  10.5000 Du        
   4124 ****       229.5000  26.5000  10.7500 Du        
   4125 ****       229.5000  26.5000  11.0000 Du        
   4126 ****       229.5000  26.5000  11.2500 Du        
   4127 ****       229.5000  26.5000  11.5000 Du        
   4128 ****       229.5000  26.5000  11.7500 Du        
   4129 ****       229.5000  26.5000  12.0000 Du        
   4130 ****       229.5000  26.5000  12.2500 Du        
   4131 ****       229.5000  26.7500  10.7500 Du        
   4132 ****       229.5000  26.7500  11.0000 Du        
   4133 ****       229.5000  26.7500  11.2500 Du        
   4134 ****       229.5000  26.7500  11.5000 Du        
   4135 ****       229.5000  26.7500  11.7500 Du        
   4136 ****       229.5000  26.7500  12.0000 Du        
   4137 ****       229.5000  26.7500  12.2500 Du        
   4138 ****       229.5000  27.0000  11.0000 Du        
   4139 ****       229.5000  27.0000  11.2500 Du        
   4140 ****       229.5000  27.0000  11.5000 Du        
   4141 ****       229.5000  27.0000  11.7500 Du        
   4142 ****       229.5000  27.0000  12.0000 Du        
   4143 ****       229.5000  27.0000  12.2500 Du        
   4144 ****       229.5000  27.2500  11.5000 Du        
   4145 ****       229.5000  27.2500  11.7500 Du        
   4146 ****       229.5000  27.2500  12.0000 Du        
   4147 ****       229.5000  31.2500  12.5000 Du        
   4148 ****       229.5000  31.2500  12.7500 Du        
   4149 ****       229.5000  31.2500  13.0000 Du        
   4150 ****       229.5000  31.2500  13.2500 Du        
   4151 ****       229.5000  31.2500  13.5000 Du        
   4152 ****       229.5000  31.2500  13.7500 Du        
   4153 ****       229.5000  31.2500  14.0000 Du        
   4154 ****       229.5000  31.5000  12.5000 Du        
   4155 ****       229.5000  31.5000  12.7500 Du        
   4156 ****       229.5000  31.5000  13.0000 Du        
   4157 ****       229.5000  31.5000  13.2500 Du        
   4158 ****       229.5000  31.5000  13.5000 Du        
   4159 ****       229.5000  31.5000  13.7500 Du        
   4160 ****       229.5000  31.5000  14.0000 Du        
   4161 ****       229.5000  31.5000  14.2500 Du        
   4162 ****       229.5000  31.7500  12.5000 Du        
   4163 ****       229.5000  31.7500  12.7500 Du        
   4164 ****       229.5000  31.7500  13.0000 Du        
   4165 ****       229.5000  31.7500  13.2500 Du        
   4166 ****       229.5000  31.7500  13.5000 Du        
   4167 ****       229.5000  31.7500  13.7500 Du        
   4168 ****       229.5000  31.7500  14.0000 Du        
   4169 ****       229.5000  31.7500  14.2500 Du        
   4170 ****       229.5000  32.0000  12.5000 Du        
   4171 ****       229.5000  32.0000  12.7500 Du        
   4172 ****       229.5000  32.0000  13.0000 Du        
   4173 ****       229.5000  32.0000  13.2500 Du        
   4174 ****       229.5000  32.0000  13.5000 Du        
   4175 ****       229.5000  32.0000  13.7500 Du        
   4176 ****       229.5000  32.0000  14.0000 Du        
   4177 ****       229.5000  32.0000  14.2500 Du        
   4178 ****       229.5000  32.2500  12.5000 Du        
   4179 ****       229.5000  32.2500  12.7500 Du        
   4180 ****       229.5000  32.2500  13.0000 Du        
   4181 ****       229.5000  32.2500  13.2500 Du        
   4182 ****       229.5000  32.2500  13.5000 Du        
   4183 ****       229.5000  32.2500  13.7500 Du        
   4184 ****       229.5000  32.2500  14.0000 Du        
   4185 ****       229.5000  32.2500  14.2500 Du        
   4186 ****       229.5000  32.5000  12.2500 Du        
   4187 ****       229.5000  32.5000  12.5000 Du        
   4188 ****       229.5000  32.5000  12.7500 Du        
   4189 ****       229.5000  32.5000  13.0000 Du        
   4190 ****       229.5000  32.5000  13.2500 Du        
   4191 ****       229.5000  32.5000  13.5000 Du        
   4192 ****       229.5000  32.5000  13.7500 Du        
   4193 ****       229.5000  32.5000  14.0000 Du        
   4194 ****       229.5000  32.5000  14.2500 Du        
   4195 ****       229.5000  32.7500  12.2500 Du        
   4196 ****       229.5000  32.7500  12.5000 Du        
   4197 ****       229.5000  32.7500  12.7500 Du        
   4198 ****       229.5000  32.7500  13.0000 Du        
   4199 ****       229.5000  32.7500  13.2500 Du        
   4200 ****       229.5000  32.7500  13.5000 Du        
   4201 ****       229.5000  32.7500  13.7500 Du        
   4202 ****       229.5000  32.7500  14.0000 Du        
   4203 ****       229.5000  32.7500  14.2500 Du        
   4204 ****       229.5000  33.0000  12.2500 Du        
   4205 ****       229.5000  33.0000  12.5000 Du        
   4206 ****       229.5000  33.0000  12.7500 Du        
   4207 ****       229.5000  33.0000  13.0000 Du        
   4208 ****       229.5000  33.0000  13.2500 Du        
   4209 ****       229.5000  33.0000  13.5000 Du        
   4210 ****       229.5000  33.0000  13.7500 Du        
   4211 ****       229.5000  33.0000  14.0000 Du        
   4212 ****       229.5000  33.0000  14.2500 Du        
   4213 ****       229.5000  33.2500  12.2500 Du        
   4214 ****       229.5000  33.2500  12.5000 Du        
   4215 ****       229.5000  33.2500  12.7500 Du        
   4216 ****       229.5000  33.2500  13.0000 Du        
   4217 ****       229.5000  33.2500  13.2500 Du        
   4218 ****       229.5000  33.2500  13.5000 Du        
   4219 ****       229.5000  33.2500  13.7500 Du        
   4220 ****       229.5000  33.2500  14.0000 Du        
   4221 ****       229.5000  33.2500  14.2500 Du        
   4222 ****       229.5000  33.5000  12.2500 Du        
   4223 ****       229.5000  33.5000  12.5000 Du        
   4224 ****       229.5000  33.5000  12.7500 Du        
   4225 ****       229.5000  33.5000  13.0000 Du        
   4226 ****       229.5000  33.5000  13.2500 Du        
   4227 ****       229.5000  33.5000  13.5000 Du        
   4228 ****       229.5000  33.5000  13.7500 Du        
   4229 ****       229.5000  33.5000  14.0000 Du        
   4230 ****       229.5000  33.5000  14.2500 Du        
   4231 ****       229.5000  33.7500  12.2500 Du        
   4232 ****       229.5000  33.7500  12.5000 Du        
   4233 ****       229.5000  33.7500  12.7500 Du        
   4234 ****       229.5000  33.7500  13.0000 Du        
   4235 ****       229.5000  33.7500  13.2500 Du        
   4236 ****       229.5000  33.7500  13.5000 Du        
   4237 ****       229.5000  33.7500  13.7500 Du        
   4238 ****       229.5000  33.7500  14.0000 Du        
   4239 ****       229.5000  34.0000  12.2500 Du        
   4240 ****       229.5000  34.0000  12.5000 Du        
   4241 ****       229.5000  34.0000  12.7500 Du        
   4242 ****       229.5000  34.0000  13.0000 Du        
   4243 ****       229.5000  34.0000  13.2500 Du        
   4244 ****       229.5000  34.0000  13.5000 Du        
   4245 ****       229.5000  34.0000  13.7500 Du        
   4246 ****       229.5000  34.2500  12.2500 Du        
   4247 ****       229.5000  34.2500  12.5000 Du        
   4248 ****       229.5000  34.2500  12.7500 Du        
   4249 ****       229.5000  34.2500  13.0000 Du        
   4250 ****       229.5000  34.2500  13.2500 Du        
   4251 ****       229.5000  34.2500  13.5000 Du        
   4252 ****       229.5000  34.5000  12.2500 Du        
   4253 ****       229.5000  34.5000  12.5000 Du        
   4254 ****       229.5000  34.5000  12.7500 Du        
   4255 ****       229.5000  34.5000  13.0000 Du        
   4256 ****       229.5000  34.5000  13.2500 Du        
   4257 ****       229.5000  34.7500  12.5000 Du        
   4258 ****       229.5000  34.7500  12.7500 Du        
   4259 ****       229.5000  34.7500  13.0000 Du        
   4260 ****       229.7500  21.5000  13.7500 Du        
   4261 ****       229.7500  21.7500  13.5000 Du        
   4262 ****       229.7500  21.7500  13.7500 Du        
   4263 ****       229.7500  21.7500  14.0000 Du        
   4264 ****       229.7500  22.0000  13.2500 Du        
   4265 ****       229.7500  22.0000  13.5000 Du        
   4266 ****       229.7500  22.0000  13.7500 Du        
   4267 ****       229.7500  22.0000  14.0000 Du        
   4268 ****       229.7500  22.2500  13.2500 Du        
   4269 ****       229.7500  22.2500  13.5000 Du        
   4270 ****       229.7500  22.2500  13.7500 Du        
   4271 ****       229.7500  22.2500  14.0000 Du        
   4272 ****       229.7500  22.2500  14.2500 Du        
   4273 ****       229.7500  22.5000  13.2500 Du        
   4274 ****       229.7500  22.5000  13.5000 Du        
   4275 ****       229.7500  22.5000  13.7500 Du        
   4276 ****       229.7500  22.5000  14.0000 Du        
   4277 ****       229.7500  22.5000  14.2500 Du        
   4278 ****       229.7500  22.7500  13.0000 Du        
   4279 ****       229.7500  22.7500  13.2500 Du        
   4280 ****       229.7500  22.7500  13.5000 Du        
   4281 ****       229.7500  22.7500  13.7500 Du        
   4282 ****       229.7500  22.7500  14.0000 Du        
   4283 ****       229.7500  22.7500  14.2500 Du        
   4284 ****       229.7500  22.7500  14.5000 Du        
   4285 ****       229.7500  23.0000  13.0000 Du        
   4286 ****       229.7500  23.0000  13.2500 Du        
   4287 ****       229.7500  23.0000  13.5000 Du        
   4288 ****       229.7500  23.0000  13.7500 Du        
   4289 ****       229.7500  23.0000  14.0000 Du        
   4290 ****       229.7500  23.0000  14.2500 Du        
   4291 ****       229.7500  23.0000  14.5000 Du        
   4292 ****       229.7500  23.0000  14.7500 Du        
   4293 ****       229.7500  23.2500  12.7500 Du        
   4294 ****       229.7500  23.2500  13.0000 Du        
   4295 ****       229.7500  23.2500  13.2500 Du        
   4296 ****       229.7500  23.2500  13.5000 Du        
   4297 ****       229.7500  23.2500  13.7500 Du        
   4298 ****       229.7500  23.2500  14.0000 Du        
   4299 ****       229.7500  23.2500  14.2500 Du        
   4300 ****       229.7500  23.2500  14.5000 Du        
   4301 ****       229.7500  23.2500  14.7500 Du        
   4302 ****       229.7500  23.5000  12.7500 Du        
   4303 ****       229.7500  23.5000  13.0000 Du        
   4304 ****       229.7500  23.5000  13.2500 Du        
   4305 ****       229.7500  23.5000  13.5000 Du        
   4306 ****       229.7500  23.5000  13.7500 Du        
   4307 ****       229.7500  23.5000  14.0000 Du        
   4308 ****       229.7500  23.5000  14.2500 Du        
   4309 ****       229.7500  23.5000  14.5000 Du        
   4310 ****       229.7500  23.5000  14.7500 Du        
   4311 ****       229.7500  23.7500  12.5000 Du        
   4312 ****       229.7500  23.7500  12.7500 Du        
   4313 ****       229.7500  23.7500  13.0000 Du        
   4314 ****       229.7500  23.7500  13.2500 Du        
   4315 ****       229.7500  23.7500  13.5000 Du        
   4316 ****       229.7500  23.7500  13.7500 Du        
   4317 ****       229.7500  23.7500  14.0000 Du        
   4318 ****       229.7500  23.7500  14.2500 Du        
   4319 ****       229.7500  23.7500  14.5000 Du        
   4320 ****       229.7500  23.7500  14.7500 Du        
   4321 ****       229.7500  24.0000  12.2500 Du        
   4322 ****       229.7500  24.0000  12.5000 Du        
   4323 ****       229.7500  24.0000  12.7500 Du        
   4324 ****       229.7500  24.0000  13.0000 Du        
   4325 ****       229.7500  24.0000  13.2500 Du        
   4326 ****       229.7500  24.0000  13.5000 Du        
   4327 ****       229.7500  24.0000  13.7500 Du        
   4328 ****       229.7500  24.0000  14.0000 Du        
   4329 ****       229.7500  24.0000  14.2500 Du        
   4330 ****       229.7500  24.2500  12.2500 Du        
   4331 ****       229.7500  24.2500  12.5000 Du        
   4332 ****       229.7500  24.2500  12.7500 Du        
   4333 ****       229.7500  24.2500  13.0000 Du        
   4334 ****       229.7500  24.2500  13.2500 Du        
   4335 ****       229.7500  24.2500  13.5000 Du        
   4336 ****       229.7500  24.2500  13.7500 Du        
   4337 ****       229.7500  24.2500  14.0000 Du        
   4338 ****       229.7500  24.5000  12.0000 Du        
   4339 ****       229.7500  24.5000  12.2500 Du        
   4340 ****       229.7500  24.5000  12.5000 Du        
   4341 ****       229.7500  24.5000  12.7500 Du        
   4342 ****       229.7500  24.5000  13.0000 Du        
   4343 ****       229.7500  24.5000  13.2500 Du        
   4344 ****       229.7500  24.5000  13.5000 Du        
   4345 ****       229.7500  24.7500  11.7500 Du        
   4346 ****       229.7500  24.7500  12.0000 Du        
   4347 ****       229.7500  24.7500  12.2500 Du        
   4348 ****       229.7500  24.7500  12.5000 Du        
   4349 ****       229.7500  24.7500  12.7500 Du        
   4350 ****       229.7500  24.7500  13.0000 Du        
   4351 ****       229.7500  24.7500  13.2500 Du        
   4352 ****       229.7500  25.0000  11.5000 Du        
   4353 ****       229.7500  25.0000  11.7500 Du        
   4354 ****       229.7500  25.0000  12.0000 Du        
   4355 ****       229.7500  25.0000  12.2500 Du        
   4356 ****       229.7500  25.0000  12.5000 Du        
   4357 ****       229.7500  25.0000  12.7500 Du        
   4358 ****       229.7500  25.0000  13.0000 Du        
   4359 ****       229.7500  25.2500  11.2500 Du        
   4360 ****       229.7500  25.2500  11.5000 Du        
   4361 ****       229.7500  25.2500  11.7500 Du        
   4362 ****       229.7500  25.2500  12.0000 Du        
   4363 ****       229.7500  25.2500  12.2500 Du        
   4364 ****       229.7500  25.2500  12.5000 Du        
   4365 ****       229.7500  25.2500  12.7500 Du        
   4366 ****       229.7500  25.5000  11.0000 Du        
   4367 ****       229.7500  25.5000  11.2500 Du        
   4368 ****       229.7500  25.5000  11.5000 Du        
   4369 ****       229.7500  25.5000  11.7500 Du        
   4370 ****       229.7500  25.5000  12.0000 Du        
   4371 ****       229.7500  25.5000  12.2500 Du        
   4372 ****       229.7500  25.5000  12.5000 Du        
   4373 ****       229.7500  25.5000  12.7500 Du        
   4374 ****       229.7500  25.7500  10.5000 Du        
   4375 ****       229.7500  25.7500  10.7500 Du        
   4376 ****       229.7500  25.7500  11.0000 Du        
   4377 ****       229.7500  25.7500  11.2500 Du        
   4378 ****       229.7500  25.7500  11.5000 Du        
   4379 ****       229.7500  25.7500  11.7500 Du        
   4380 ****       229.7500  25.7500  12.0000 Du        
   4381 ****       229.7500  25.7500  12.2500 Du        
   4382 ****       229.7500  25.7500  12.5000 Du        
   4383 ****       229.7500  26.0000  10.2500 Du        
   4384 ****       229.7500  26.0000  10.5000 Du        
   4385 ****       229.7500  26.0000  10.7500 Du        
   4386 ****       229.7500  26.0000  11.0000 Du        
   4387 ****       229.7500  26.0000  11.2500 Du        
   4388 ****       229.7500  26.0000  11.5000 Du        
   4389 ****       229.7500  26.0000  11.7500 Du        
   4390 ****       229.7500  26.0000  12.0000 Du        
   4391 ****       229.7500  26.0000  12.2500 Du        
   4392 ****       229.7500  26.0000  12.5000 Du        
   4393 ****       229.7500  26.2500  10.0000 Du        
   4394 ****       229.7500  26.2500  10.2500 Du        
   4395 ****       229.7500  26.2500  10.5000 Du        
   4396 ****       229.7500  26.2500  10.7500 Du        
   4397 ****       229.7500  26.2500  11.0000 Du        
   4398 ****       229.7500  26.2500  11.2500 Du        
   4399 ****       229.7500  26.2500  11.5000 Du        
   4400 ****       229.7500  26.2500  11.7500 Du        
   4401 ****       229.7500  26.2500  12.0000 Du        
   4402 ****       229.7500  26.2500  12.2500 Du        
   4403 ****       229.7500  26.2500  12.5000 Du        
   4404 ****       229.7500  26.5000  10.5000 Du        
   4405 ****       229.7500  26.5000  10.7500 Du        
   4406 ****       229.7500  26.5000  11.0000 Du        
   4407 ****       229.7500  26.5000  11.2500 Du        
   4408 ****       229.7500  26.5000  11.5000 Du        
   4409 ****       229.7500  26.5000  11.7500 Du        
   4410 ****       229.7500  26.5000  12.0000 Du        
   4411 ****       229.7500  26.5000  12.2500 Du        
   4412 ****       229.7500  26.7500  11.0000 Du        
   4413 ****       229.7500  26.7500  11.2500 Du        
   4414 ****       229.7500  26.7500  11.5000 Du        
   4415 ****       229.7500  26.7500  11.7500 Du        
   4416 ****       229.7500  26.7500  12.0000 Du        
   4417 ****       229.7500  26.7500  12.2500 Du        
   4418 ****       229.7500  27.0000  11.2500 Du        
   4419 ****       229.7500  27.0000  11.5000 Du        
   4420 ****       229.7500  27.0000  11.7500 Du        
   4421 ****       229.7500  31.5000  12.5000 Du        
   4422 ****       229.7500  31.5000  12.7500 Du        
   4423 ****       229.7500  31.5000  13.0000 Du        
   4424 ****       229.7500  31.5000  13.2500 Du        
   4425 ****       229.7500  31.5000  13.5000 Du        
   4426 ****       229.7500  31.5000  13.7500 Du        
   4427 ****       229.7500  31.5000  14.0000 Du        
   4428 ****       229.7500  31.7500  12.2500 Du        
   4429 ****       229.7500  31.7500  12.5000 Du        
   4430 ****       229.7500  31.7500  12.7500 Du        
   4431 ****       229.7500  31.7500  13.0000 Du        
   4432 ****       229.7500  31.7500  13.2500 Du        
   4433 ****       229.7500  31.7500  13.5000 Du        
   4434 ****       229.7500  31.7500  13.7500 Du        
   4435 ****       229.7500  31.7500  14.0000 Du        
   4436 ****       229.7500  31.7500  14.2500 Du        
   4437 ****       229.7500  32.0000  12.2500 Du        
   4438 ****       229.7500  32.0000  12.5000 Du        
   4439 ****       229.7500  32.0000  12.7500 Du        
   4440 ****       229.7500  32.0000  13.0000 Du        
   4441 ****       229.7500  32.0000  13.2500 Du        
   4442 ****       229.7500  32.0000  13.5000 Du        
   4443 ****       229.7500  32.0000  13.7500 Du        
   4444 ****       229.7500  32.0000  14.0000 Du        
   4445 ****       229.7500  32.0000  14.2500 Du        
   4446 ****       229.7500  32.2500  12.2500 Du        
   4447 ****       229.7500  32.2500  12.5000 Du        
   4448 ****       229.7500  32.2500  12.7500 Du        
   4449 ****       229.7500  32.2500  13.0000 Du        
   4450 ****       229.7500  32.2500  13.2500 Du        
   4451 ****       229.7500  32.2500  13.5000 Du        
   4452 ****       229.7500  32.2500  13.7500 Du        
   4453 ****       229.7500  32.2500  14.0000 Du        
   4454 ****       229.7500  32.2500  14.2500 Du        
   4455 ****       229.7500  32.5000  12.2500 Du        
   4456 ****       229.7500  32.5000  12.5000 Du        
   4457 ****       229.7500  32.5000  12.7500 Du        
   4458 ****       229.7500  32.5000  13.0000 Du        
   4459 ****       229.7500  32.5000  13.2500 Du        
   4460 ****       229.7500  32.5000  13.5000 Du        
   4461 ****       229.7500  32.5000  13.7500 Du        
   4462 ****       229.7500  32.5000  14.0000 Du        
   4463 ****       229.7500  32.5000  14.2500 Du        
   4464 ****       229.7500  32.7500  12.2500 Du        
   4465 ****       229.7500  32.7500  12.5000 Du        
   4466 ****       229.7500  32.7500  12.7500 Du        
   4467 ****       229.7500  32.7500  13.0000 Du        
   4468 ****       229.7500  32.7500  13.2500 Du        
   4469 ****       229.7500  32.7500  13.5000 Du        
   4470 ****       229.7500  32.7500  13.7500 Du        
   4471 ****       229.7500  32.7500  14.0000 Du        
   4472 ****       229.7500  32.7500  14.2500 Du        
   4473 ****       229.7500  33.0000  12.2500 Du        
   4474 ****       229.7500  33.0000  12.5000 Du        
   4475 ****       229.7500  33.0000  12.7500 Du        
   4476 ****       229.7500  33.0000  13.0000 Du        
   4477 ****       229.7500  33.0000  13.2500 Du        
   4478 ****       229.7500  33.0000  13.5000 Du        
   4479 ****       229.7500  33.0000  13.7500 Du        
   4480 ****       229.7500  33.0000  14.0000 Du        
   4481 ****       229.7500  33.0000  14.2500 Du        
   4482 ****       229.7500  33.2500  12.2500 Du        
   4483 ****       229.7500  33.2500  12.5000 Du        
   4484 ****       229.7500  33.2500  12.7500 Du        
   4485 ****       229.7500  33.2500  13.0000 Du        
   4486 ****       229.7500  33.2500  13.2500 Du        
   4487 ****       229.7500  33.2500  13.5000 Du        
   4488 ****       229.7500  33.2500  13.7500 Du        
   4489 ****       229.7500  33.2500  14.0000 Du        
   4490 ****       229.7500  33.2500  14.2500 Du        
   4491 ****       229.7500  33.5000  12.2500 Du        
   4492 ****       229.7500  33.5000  12.5000 Du        
   4493 ****       229.7500  33.5000  12.7500 Du        
   4494 ****       229.7500  33.5000  13.0000 Du        
   4495 ****       229.7500  33.5000  13.2500 Du        
   4496 ****       229.7500  33.5000  13.5000 Du        
   4497 ****       229.7500  33.5000  13.7500 Du        
   4498 ****       229.7500  33.5000  14.0000 Du        
   4499 ****       229.7500  33.7500  12.2500 Du        
   4500 ****       229.7500  33.7500  12.5000 Du        
   4501 ****       229.7500  33.7500  12.7500 Du        
   4502 ****       229.7500  33.7500  13.0000 Du        
   4503 ****       229.7500  33.7500  13.2500 Du        
   4504 ****       229.7500  33.7500  13.5000 Du        
   4505 ****       229.7500  33.7500  13.7500 Du        
   4506 ****       229.7500  34.0000  12.2500 Du        
   4507 ****       229.7500  34.0000  12.5000 Du        
   4508 ****       229.7500  34.0000  12.7500 Du        
   4509 ****       229.7500  34.0000  13.0000 Du        
   4510 ****       229.7500  34.0000  13.2500 Du        
   4511 ****       229.7500  34.0000  13.5000 Du        
   4512 ****       229.7500  34.2500  12.2500 Du        
   4513 ****       229.7500  34.2500  12.5000 Du        
   4514 ****       229.7500  34.2500  12.7500 Du        
   4515 ****       229.7500  34.2500  13.0000 Du        
   4516 ****       229.7500  34.2500  13.2500 Du        
   4517 ****       229.7500  34.5000  12.2500 Du        
   4518 ****       229.7500  34.5000  12.5000 Du        
   4519 ****       229.7500  34.5000  12.7500 Du        
   4520 ****       229.7500  34.5000  13.0000 Du        
   4521 ****       229.7500  34.5000  13.2500 Du        
   4522 ****       229.7500  34.7500  12.5000 Du        
   4523 ****       229.7500  34.7500  12.7500 Du        
   4524 ****       229.7500  34.7500  13.0000 Du        
   4525 ****       230.0000  22.0000  13.7500 Du        
   4526 ****       230.0000  22.2500  13.2500 Du        
   4527 ****       230.0000  22.2500  13.5000 Du        
   4528 ****       230.0000  22.2500  13.7500 Du        
   4529 ****       230.0000  22.2500  14.0000 Du        
   4530 ****       230.0000  22.5000  13.2500 Du        
   4531 ****       230.0000  22.5000  13.5000 Du        
   4532 ****       230.0000  22.5000  13.7500 Du        
   4533 ****       230.0000  22.5000  14.0000 Du        
   4534 ****       230.0000  22.5000  14.2500 Du        
   4535 ****       230.0000  22.7500  13.0000 Du        
   4536 ****       230.0000  22.7500  13.2500 Du        
   4537 ****       230.0000  22.7500  13.5000 Du        
   4538 ****       230.0000  22.7500  13.7500 Du        
   4539 ****       230.0000  22.7500  14.0000 Du        
   4540 ****       230.0000  22.7500  14.2500 Du        
   4541 ****       230.0000  23.0000  13.0000 Du        
   4542 ****       230.0000  23.0000  13.2500 Du        
   4543 ****       230.0000  23.0000  13.5000 Du        
   4544 ****       230.0000  23.0000  13.7500 Du        
   4545 ****       230.0000  23.0000  14.0000 Du        
   4546 ****       230.0000  23.0000  14.2500 Du        
   4547 ****       230.0000  23.0000  14.5000 Du        
   4548 ****       230.0000  23.2500  12.7500 Du        
   4549 ****       230.0000  23.2500  13.0000 Du        
   4550 ****       230.0000  23.2500  13.2500 Du        
   4551 ****       230.0000  23.2500  13.5000 Du        
   4552 ****       230.0000  23.2500  13.7500 Du        
   4553 ****       230.0000  23.2500  14.0000 Du        
   4554 ****       230.0000  23.2500  14.2500 Du        
   4555 ****       230.0000  23.2500  14.5000 Du        
   4556 ****       230.0000  23.2500  14.7500 Du        
   4557 ****       230.0000  23.5000  12.7500 Du        
   4558 ****       230.0000  23.5000  13.0000 Du        
   4559 ****       230.0000  23.5000  13.2500 Du        
   4560 ****       230.0000  23.5000  13.5000 Du        
   4561 ****       230.0000  23.5000  13.7500 Du        
   4562 ****       230.0000  23.5000  14.0000 Du        
   4563 ****       230.0000  23.5000  14.2500 Du        
   4564 ****       230.0000  23.5000  14.5000 Du        
   4565 ****       230.0000  23.5000  14.7500 Du        
   4566 ****       230.0000  23.7500  12.5000 Du        
   4567 ****       230.0000  23.7500  12.7500 Du        
   4568 ****       230.0000  23.7500  13.0000 Du        
   4569 ****       230.0000  23.7500  13.2500 Du        
   4570 ****       230.0000  23.7500  13.5000 Du        
   4571 ****       230.0000  23.7500  13.7500 Du        
   4572 ****       230.0000  23.7500  14.0000 Du        
   4573 ****       230.0000  23.7500  14.2500 Du        
   4574 ****       230.0000  23.7500  14.5000 Du        
   4575 ****       230.0000  23.7500  14.7500 Du        
   4576 ****       230.0000  24.0000  12.2500 Du        
   4577 ****       230.0000  24.0000  12.5000 Du        
   4578 ****       230.0000  24.0000  12.7500 Du        
   4579 ****       230.0000  24.0000  13.0000 Du        
   4580 ****       230.0000  24.0000  13.2500 Du        
   4581 ****       230.0000  24.0000  13.5000 Du        
   4582 ****       230.0000  24.0000  13.7500 Du        
   4583 ****       230.0000  24.0000  14.0000 Du        
   4584 ****       230.0000  24.0000  14.2500 Du        
   4585 ****       230.0000  24.0000  14.5000 Du        
   4586 ****       230.0000  24.2500  12.2500 Du        
   4587 ****       230.0000  24.2500  12.5000 Du        
   4588 ****       230.0000  24.2500  12.7500 Du        
   4589 ****       230.0000  24.2500  13.0000 Du        
   4590 ****       230.0000  24.2500  13.2500 Du        
   4591 ****       230.0000  24.2500  13.5000 Du        
   4592 ****       230.0000  24.2500  13.7500 Du        
   4593 ****       230.0000  24.2500  14.0000 Du        
   4594 ****       230.0000  24.5000  12.0000 Du        
   4595 ****       230.0000  24.5000  12.2500 Du        
   4596 ****       230.0000  24.5000  12.5000 Du        
   4597 ****       230.0000  24.5000  12.7500 Du        
   4598 ****       230.0000  24.5000  13.0000 Du        
   4599 ****       230.0000  24.5000  13.2500 Du        
   4600 ****       230.0000  24.5000  13.5000 Du        
   4601 ****       230.0000  24.5000  13.7500 Du        
   4602 ****       230.0000  24.7500  12.0000 Du        
   4603 ****       230.0000  24.7500  12.2500 Du        
   4604 ****       230.0000  24.7500  12.5000 Du        
   4605 ****       230.0000  24.7500  12.7500 Du        
   4606 ****       230.0000  24.7500  13.0000 Du        
   4607 ****       230.0000  24.7500  13.2500 Du        
   4608 ****       230.0000  24.7500  13.5000 Du        
   4609 ****       230.0000  25.0000  11.7500 Du        
   4610 ****       230.0000  25.0000  12.0000 Du        
   4611 ****       230.0000  25.0000  12.2500 Du        
   4612 ****       230.0000  25.0000  12.5000 Du        
   4613 ****       230.0000  25.0000  12.7500 Du        
   4614 ****       230.0000  25.0000  13.0000 Du        
   4615 ****       230.0000  25.0000  13.2500 Du        
   4616 ****       230.0000  25.2500  11.5000 Du        
   4617 ****       230.0000  25.2500  11.7500 Du        
   4618 ****       230.0000  25.2500  12.0000 Du        
   4619 ****       230.0000  25.2500  12.2500 Du        
   4620 ****       230.0000  25.2500  12.5000 Du        
   4621 ****       230.0000  25.2500  12.7500 Du        
   4622 ****       230.0000  25.2500  13.0000 Du        
   4623 ****       230.0000  25.5000  11.0000 Du        
   4624 ****       230.0000  25.5000  11.2500 Du        
   4625 ****       230.0000  25.5000  11.5000 Du        
   4626 ****       230.0000  25.5000  11.7500 Du        
   4627 ****       230.0000  25.5000  12.0000 Du        
   4628 ****       230.0000  25.5000  12.2500 Du        
   4629 ****       230.0000  25.5000  12.5000 Du        
   4630 ****       230.0000  25.5000  12.7500 Du        
   4631 ****       230.0000  25.7500  10.7500 Du        
   4632 ****       230.0000  25.7500  11.0000 Du        
   4633 ****       230.0000  25.7500  11.2500 Du        
   4634 ****       230.0000  25.7500  11.5000 Du        
   4635 ****       230.0000  25.7500  11.7500 Du        
   4636 ****       230.0000  25.7500  12.0000 Du        
   4637 ****       230.0000  25.7500  12.2500 Du        
   4638 ****       230.0000  25.7500  12.5000 Du        
   4639 ****       230.0000  25.7500  12.7500 Du        
   4640 ****       230.0000  26.0000  10.5000 Du        
   4641 ****       230.0000  26.0000  10.7500 Du        
   4642 ****       230.0000  26.0000  11.0000 Du        
   4643 ****       230.0000  26.0000  11.2500 Du        
   4644 ****       230.0000  26.0000  11.5000 Du        
   4645 ****       230.0000  26.0000  11.7500 Du        
   4646 ****       230.0000  26.0000  12.0000 Du        
   4647 ****       230.0000  26.0000  12.2500 Du        
   4648 ****       230.0000  26.0000  12.5000 Du        
   4649 ****       230.0000  26.2500  10.5000 Du        
   4650 ****       230.0000  26.2500  10.7500 Du        
   4651 ****       230.0000  26.2500  11.0000 Du        
   4652 ****       230.0000  26.2500  11.2500 Du        
   4653 ****       230.0000  26.2500  11.5000 Du        
   4654 ****       230.0000  26.2500  11.7500 Du        
   4655 ****       230.0000  26.2500  12.0000 Du        
   4656 ****       230.0000  26.2500  12.2500 Du        
   4657 ****       230.0000  26.2500  12.5000 Du        
   4658 ****       230.0000  26.5000  11.0000 Du        
   4659 ****       230.0000  26.5000  11.2500 Du        
   4660 ****       230.0000  26.5000  11.5000 Du        
   4661 ****       230.0000  26.5000  11.7500 Du        
   4662 ****       230.0000  26.5000  12.0000 Du        
   4663 ****       230.0000  26.5000  12.2500 Du        
   4664 ****       230.0000  26.7500  11.7500 Du        
   4665 ****       230.0000  31.5000  12.5000 Du        
   4666 ****       230.0000  31.5000  12.7500 Du        
   4667 ****       230.0000  31.5000  13.0000 Du        
   4668 ****       230.0000  31.5000  13.2500 Du        
   4669 ****       230.0000  31.5000  13.5000 Du        
   4670 ****       230.0000  31.5000  13.7500 Du        
   4671 ****       230.0000  31.7500  12.2500 Du        
   4672 ****       230.0000  31.7500  12.5000 Du        
   4673 ****       230.0000  31.7500  12.7500 Du        
   4674 ****       230.0000  31.7500  13.0000 Du        
   4675 ****       230.0000  31.7500  13.2500 Du        
   4676 ****       230.0000  31.7500  13.5000 Du        
   4677 ****       230.0000  31.7500  13.7500 Du        
   4678 ****       230.0000  31.7500  14.0000 Du        
   4679 ****       230.0000  32.0000  12.2500 Du        
   4680 ****       230.0000  32.0000  12.5000 Du        
   4681 ****       230.0000  32.0000  12.7500 Du        
   4682 ****       230.0000  32.0000  13.0000 Du        
   4683 ****       230.0000  32.0000  13.2500 Du        
   4684 ****       230.0000  32.0000  13.5000 Du        
   4685 ****       230.0000  32.0000  13.7500 Du        
   4686 ****       230.0000  32.0000  14.0000 Du        
   4687 ****       230.0000  32.2500  12.2500 Du        
   4688 ****       230.0000  32.2500  12.5000 Du        
   4689 ****       230.0000  32.2500  12.7500 Du        
   4690 ****       230.0000  32.2500  13.0000 Du        
   4691 ****       230.0000  32.2500  13.2500 Du        
   4692 ****       230.0000  32.2500  13.5000 Du        
   4693 ****       230.0000  32.2500  13.7500 Du        
   4694 ****       230.0000  32.2500  14.0000 Du        
   4695 ****       230.0000  32.5000  12.2500 Du        
   4696 ****       230.0000  32.5000  12.5000 Du        
   4697 ****       230.0000  32.5000  12.7500 Du        
   4698 ****       230.0000  32.5000  13.0000 Du        
   4699 ****       230.0000  32.5000  13.2500 Du        
   4700 ****       230.0000  32.5000  13.5000 Du        
   4701 ****       230.0000  32.5000  13.7500 Du        
   4702 ****       230.0000  32.5000  14.0000 Du        
   4703 ****       230.0000  32.7500  12.2500 Du        
   4704 ****       230.0000  32.7500  12.5000 Du        
   4705 ****       230.0000  32.7500  12.7500 Du        
   4706 ****       230.0000  32.7500  13.0000 Du        
   4707 ****       230.0000  32.7500  13.2500 Du        
   4708 ****       230.0000  32.7500  13.5000 Du        
   4709 ****       230.0000  32.7500  13.7500 Du        
   4710 ****       230.0000  32.7500  14.0000 Du        
   4711 ****       230.0000  33.0000  12.2500 Du        
   4712 ****       230.0000  33.0000  12.5000 Du        
   4713 ****       230.0000  33.0000  12.7500 Du        
   4714 ****       230.0000  33.0000  13.0000 Du        
   4715 ****       230.0000  33.0000  13.2500 Du        
   4716 ****       230.0000  33.0000  13.5000 Du        
   4717 ****       230.0000  33.0000  13.7500 Du        
   4718 ****       230.0000  33.0000  14.0000 Du        
   4719 ****       230.0000  33.2500  12.2500 Du        
   4720 ****       230.0000  33.2500  12.5000 Du        
   4721 ****       230.0000  33.2500  12.7500 Du        
   4722 ****       230.0000  33.2500  13.0000 Du        
   4723 ****       230.0000  33.2500  13.2500 Du        
   4724 ****       230.0000  33.2500  13.5000 Du        
   4725 ****       230.0000  33.2500  13.7500 Du        
   4726 ****       230.0000  33.2500  14.0000 Du        
   4727 ****       230.0000  33.5000  12.2500 Du        
   4728 ****       230.0000  33.5000  12.5000 Du        
   4729 ****       230.0000  33.5000  12.7500 Du        
   4730 ****       230.0000  33.5000  13.0000 Du        
   4731 ****       230.0000  33.5000  13.2500 Du        
   4732 ****       230.0000  33.5000  13.5000 Du        
   4733 ****       230.0000  33.5000  13.7500 Du        
   4734 ****       230.0000  33.7500  12.2500 Du        
   4735 ****       230.0000  33.7500  12.5000 Du        
   4736 ****       230.0000  33.7500  12.7500 Du        
   4737 ****       230.0000  33.7500  13.0000 Du        
   4738 ****       230.0000  33.7500  13.2500 Du        
   4739 ****       230.0000  33.7500  13.5000 Du        
   4740 ****       230.0000  33.7500  13.7500 Du        
   4741 ****       230.0000  34.0000  12.2500 Du        
   4742 ****       230.0000  34.0000  12.5000 Du        
   4743 ****       230.0000  34.0000  12.7500 Du        
   4744 ****       230.0000  34.0000  13.0000 Du        
   4745 ****       230.0000  34.0000  13.2500 Du        
   4746 ****       230.0000  34.0000  13.5000 Du        
   4747 ****       230.0000  34.2500  12.2500 Du        
   4748 ****       230.0000  34.2500  12.5000 Du        
   4749 ****       230.0000  34.2500  12.7500 Du        
   4750 ****       230.0000  34.2500  13.0000 Du        
   4751 ****       230.0000  34.2500  13.2500 Du        
   4752 ****       230.0000  34.5000  12.2500 Du        
   4753 ****       230.0000  34.5000  12.5000 Du        
   4754 ****       230.0000  34.5000  12.7500 Du        
   4755 ****       230.0000  34.5000  13.0000 Du        
   4756 ****       230.0000  34.7500  12.5000 Du        
   4757 ****       230.0000  34.7500  12.7500 Du        
   4758 ****       230.2500  22.7500  13.2500 Du        
   4759 ****       230.2500  22.7500  13.5000 Du        
   4760 ****       230.2500  22.7500  13.7500 Du        
   4761 ****       230.2500  22.7500  14.0000 Du        
   4762 ****       230.2500  23.0000  13.0000 Du        
   4763 ****       230.2500  23.0000  13.2500 Du        
   4764 ****       230.2500  23.0000  13.5000 Du        
   4765 ****       230.2500  23.0000  13.7500 Du        
   4766 ****       230.2500  23.0000  14.0000 Du        
   4767 ****       230.2500  23.0000  14.2500 Du        
   4768 ****       230.2500  23.2500  12.7500 Du        
   4769 ****       230.2500  23.2500  13.0000 Du        
   4770 ****       230.2500  23.2500  13.2500 Du        
   4771 ****       230.2500  23.2500  13.5000 Du        
   4772 ****       230.2500  23.2500  13.7500 Du        
   4773 ****       230.2500  23.2500  14.0000 Du        
   4774 ****       230.2500  23.2500  14.2500 Du        
   4775 ****       230.2500  23.2500  14.5000 Du        
   4776 ****       230.2500  23.5000  12.7500 Du        
   4777 ****       230.2500  23.5000  13.0000 Du        
   4778 ****       230.2500  23.5000  13.2500 Du        
   4779 ****       230.2500  23.5000  13.5000 Du        
   4780 ****       230.2500  23.5000  13.7500 Du        
   4781 ****       230.2500  23.5000  14.0000 Du        
   4782 ****       230.2500  23.5000  14.2500 Du        
   4783 ****       230.2500  23.5000  14.5000 Du        
   4784 ****       230.2500  23.5000  14.7500 Du        
   4785 ****       230.2500  23.7500  12.5000 Du        
   4786 ****       230.2500  23.7500  12.7500 Du        
   4787 ****       230.2500  23.7500  13.0000 Du        
   4788 ****       230.2500  23.7500  13.2500 Du        
   4789 ****       230.2500  23.7500  13.5000 Du        
   4790 ****       230.2500  23.7500  13.7500 Du        
   4791 ****       230.2500  23.7500  14.0000 Du        
   4792 ****       230.2500  23.7500  14.2500 Du        
   4793 ****       230.2500  23.7500  14.5000 Du        
   4794 ****       230.2500  23.7500  14.7500 Du        
   4795 ****       230.2500  24.0000  12.2500 Du        
   4796 ****       230.2500  24.0000  12.5000 Du        
   4797 ****       230.2500  24.0000  12.7500 Du        
   4798 ****       230.2500  24.0000  13.0000 Du        
   4799 ****       230.2500  24.0000  13.2500 Du        
   4800 ****       230.2500  24.0000  13.5000 Du        
   4801 ****       230.2500  24.0000  13.7500 Du        
   4802 ****       230.2500  24.0000  14.0000 Du        
   4803 ****       230.2500  24.0000  14.2500 Du        
   4804 ****       230.2500  24.0000  14.5000 Du        
   4805 ****       230.2500  24.2500  12.2500 Du        
   4806 ****       230.2500  24.2500  12.5000 Du        
   4807 ****       230.2500  24.2500  12.7500 Du        
   4808 ****       230.2500  24.2500  13.0000 Du        
   4809 ****       230.2500  24.2500  13.2500 Du        
   4810 ****       230.2500  24.2500  13.5000 Du        
   4811 ****       230.2500  24.2500  13.7500 Du        
   4812 ****       230.2500  24.2500  14.0000 Du        
   4813 ****       230.2500  24.2500  14.2500 Du        
   4814 ****       230.2500  24.5000  12.2500 Du        
   4815 ****       230.2500  24.5000  12.5000 Du        
   4816 ****       230.2500  24.5000  12.7500 Du        
   4817 ****       230.2500  24.5000  13.0000 Du        
   4818 ****       230.2500  24.5000  13.2500 Du        
   4819 ****       230.2500  24.5000  13.5000 Du        
   4820 ****       230.2500  24.5000  13.7500 Du        
   4821 ****       230.2500  24.7500  12.0000 Du        
   4822 ****       230.2500  24.7500  12.2500 Du        
   4823 ****       230.2500  24.7500  12.5000 Du        
   4824 ****       230.2500  24.7500  12.7500 Du        
   4825 ****       230.2500  24.7500  13.0000 Du        
   4826 ****       230.2500  24.7500  13.2500 Du        
   4827 ****       230.2500  24.7500  13.5000 Du        
   4828 ****       230.2500  25.0000  11.7500 Du        
   4829 ****       230.2500  25.0000  12.0000 Du        
   4830 ****       230.2500  25.0000  12.2500 Du        
   4831 ****       230.2500  25.0000  12.5000 Du        
   4832 ****       230.2500  25.0000  12.7500 Du        
   4833 ****       230.2500  25.0000  13.0000 Du        
   4834 ****       230.2500  25.0000  13.2500 Du        
   4835 ****       230.2500  25.2500  11.5000 Du        
   4836 ****       230.2500  25.2500  11.7500 Du        
   4837 ****       230.2500  25.2500  12.0000 Du        
   4838 ****       230.2500  25.2500  12.2500 Du        
   4839 ****       230.2500  25.2500  12.5000 Du        
   4840 ****       230.2500  25.2500  12.7500 Du        
   4841 ****       230.2500  25.2500  13.0000 Du        
   4842 ****       230.2500  25.2500  13.2500 Du        
   4843 ****       230.2500  25.5000  11.2500 Du        
   4844 ****       230.2500  25.5000  11.5000 Du        
   4845 ****       230.2500  25.5000  11.7500 Du        
   4846 ****       230.2500  25.5000  12.0000 Du        
   4847 ****       230.2500  25.5000  12.2500 Du        
   4848 ****       230.2500  25.5000  12.5000 Du        
   4849 ****       230.2500  25.5000  12.7500 Du        
   4850 ****       230.2500  25.5000  13.0000 Du        
   4851 ****       230.2500  25.7500  11.0000 Du        
   4852 ****       230.2500  25.7500  11.2500 Du        
   4853 ****       230.2500  25.7500  11.5000 Du        
   4854 ****       230.2500  25.7500  11.7500 Du        
   4855 ****       230.2500  25.7500  12.0000 Du        
   4856 ****       230.2500  25.7500  12.2500 Du        
   4857 ****       230.2500  25.7500  12.5000 Du        
   4858 ****       230.2500  25.7500  12.7500 Du        
   4859 ****       230.2500  26.0000  10.7500 Du        
   4860 ****       230.2500  26.0000  11.0000 Du        
   4861 ****       230.2500  26.0000  11.2500 Du        
   4862 ****       230.2500  26.0000  11.5000 Du        
   4863 ****       230.2500  26.0000  11.7500 Du        
   4864 ****       230.2500  26.0000  12.0000 Du        
   4865 ****       230.2500  26.0000  12.2500 Du        
   4866 ****       230.2500  26.0000  12.5000 Du        
   4867 ****       230.2500  26.2500  10.7500 Du        
   4868 ****       230.2500  26.2500  11.0000 Du        
   4869 ****       230.2500  26.2500  11.2500 Du        
   4870 ****       230.2500  26.2500  11.5000 Du        
   4871 ****       230.2500  26.2500  12.0000 Du        
   4872 ****       230.2500  26.2500  12.2500 Du        
   4873 ****       230.2500  31.7500  12.2500 Du        
   4874 ****       230.2500  31.7500  12.5000 Du        
   4875 ****       230.2500  31.7500  12.7500 Du        
   4876 ****       230.2500  31.7500  13.0000 Du        
   4877 ****       230.2500  31.7500  13.2500 Du        
   4878 ****       230.2500  31.7500  13.5000 Du        
   4879 ****       230.2500  31.7500  13.7500 Du        
   4880 ****       230.2500  32.0000  12.0000 Du        
   4881 ****       230.2500  32.0000  12.2500 Du        
   4882 ****       230.2500  32.0000  12.5000 Du        
   4883 ****       230.2500  32.0000  12.7500 Du        
   4884 ****       230.2500  32.0000  13.0000 Du        
   4885 ****       230.2500  32.0000  13.2500 Du        
   4886 ****       230.2500  32.0000  13.5000 Du        
   4887 ****       230.2500  32.0000  13.7500 Du        
   4888 ****       230.2500  32.0000  14.0000 Du        
   4889 ****       230.2500  32.2500  12.0000 Du        
   4890 ****       230.2500  32.2500  12.2500 Du        
   4891 ****       230.2500  32.2500  12.5000 Du        
   4892 ****       230.2500  32.2500  12.7500 Du        
   4893 ****       230.2500  32.2500  13.0000 Du        
   4894 ****       230.2500  32.2500  13.2500 Du        
   4895 ****       230.2500  32.2500  13.5000 Du        
   4896 ****       230.2500  32.2500  13.7500 Du        
   4897 ****       230.2500  32.2500  14.0000 Du        
   4898 ****       230.2500  32.5000  12.0000 Du        
   4899 ****       230.2500  32.5000  12.2500 Du        
   4900 ****       230.2500  32.5000  12.5000 Du        
   4901 ****       230.2500  32.5000  12.7500 Du        
   4902 ****       230.2500  32.5000  13.0000 Du        
   4903 ****       230.2500  32.5000  13.2500 Du        
   4904 ****       230.2500  32.5000  13.5000 Du        
   4905 ****       230.2500  32.5000  13.7500 Du        
   4906 ****       230.2500  32.5000  14.0000 Du        
   4907 ****       230.2500  32.7500  12.0000 Du        
   4908 ****       230.2500  32.7500  12.2500 Du        
   4909 ****       230.2500  32.7500  12.5000 Du        
   4910 ****       230.2500  32.7500  12.7500 Du        
   4911 ****       230.2500  32.7500  13.0000 Du        
   4912 ****       230.2500  32.7500  13.2500 Du        
   4913 ****       230.2500  32.7500  13.5000 Du        
   4914 ****       230.2500  32.7500  13.7500 Du        
   4915 ****       230.2500  32.7500  14.0000 Du        
   4916 ****       230.2500  33.0000  12.0000 Du        
   4917 ****       230.2500  33.0000  12.2500 Du        
   4918 ****       230.2500  33.0000  12.5000 Du        
   4919 ****       230.2500  33.0000  12.7500 Du        
   4920 ****       230.2500  33.0000  13.0000 Du        
   4921 ****       230.2500  33.0000  13.2500 Du        
   4922 ****       230.2500  33.0000  13.5000 Du        
   4923 ****       230.2500  33.0000  13.7500 Du        
   4924 ****       230.2500  33.0000  14.0000 Du        
   4925 ****       230.2500  33.2500  12.0000 Du        
   4926 ****       230.2500  33.2500  12.2500 Du        
   4927 ****       230.2500  33.2500  12.5000 Du        
   4928 ****       230.2500  33.2500  12.7500 Du        
   4929 ****       230.2500  33.2500  13.0000 Du        
   4930 ****       230.2500  33.2500  13.2500 Du        
   4931 ****       230.2500  33.2500  13.5000 Du        
   4932 ****       230.2500  33.2500  13.7500 Du        
   4933 ****       230.2500  33.5000  12.2500 Du        
   4934 ****       230.2500  33.5000  12.5000 Du        
   4935 ****       230.2500  33.5000  12.7500 Du        
   4936 ****       230.2500  33.5000  13.0000 Du        
   4937 ****       230.2500  33.5000  13.2500 Du        
   4938 ****       230.2500  33.5000  13.5000 Du        
   4939 ****       230.2500  33.7500  12.2500 Du        
   4940 ****       230.2500  33.7500  12.5000 Du        
   4941 ****       230.2500  33.7500  12.7500 Du        
   4942 ****       230.2500  33.7500  13.0000 Du        
   4943 ****       230.2500  33.7500  13.2500 Du        
   4944 ****       230.2500  33.7500  13.5000 Du        
   4945 ****       230.2500  34.0000  12.2500 Du        
   4946 ****       230.2500  34.0000  12.5000 Du        
   4947 ****       230.2500  34.0000  12.7500 Du        
   4948 ****       230.2500  34.0000  13.0000 Du        
   4949 ****       230.2500  34.0000  13.2500 Du        
   4950 ****       230.2500  34.2500  12.2500 Du        
   4951 ****       230.2500  34.2500  12.5000 Du        
   4952 ****       230.2500  34.2500  12.7500 Du        
   4953 ****       230.2500  34.2500  13.0000 Du        
   4954 ****       230.2500  34.5000  12.2500 Du        
   4955 ****       230.2500  34.5000  12.5000 Du        
   4956 ****       230.2500  34.5000  12.7500 Du        
   4957 ****       230.5000  23.2500  13.0000 Du        
   4958 ****       230.5000  23.2500  13.2500 Du        
   4959 ****       230.5000  23.2500  13.5000 Du        
   4960 ****       230.5000  23.2500  13.7500 Du        
   4961 ****       230.5000  23.2500  14.0000 Du        
   4962 ****       230.5000  23.2500  14.2500 Du        
   4963 ****       230.5000  23.5000  12.7500 Du        
   4964 ****       230.5000  23.5000  13.0000 Du        
   4965 ****       230.5000  23.5000  13.2500 Du        
   4966 ****       230.5000  23.5000  13.5000 Du        
   4967 ****       230.5000  23.5000  13.7500 Du        
   4968 ****       230.5000  23.5000  14.0000 Du        
   4969 ****       230.5000  23.5000  14.2500 Du        
   4970 ****       230.5000  23.5000  14.5000 Du        
   4971 ****       230.5000  23.7500  12.5000 Du        
   4972 ****       230.5000  23.7500  12.7500 Du        
   4973 ****       230.5000  23.7500  13.0000 Du        
   4974 ****       230.5000  23.7500  13.2500 Du        
   4975 ****       230.5000  23.7500  13.5000 Du        
   4976 ****       230.5000  23.7500  13.7500 Du        
   4977 ****       230.5000  23.7500  14.0000 Du        
   4978 ****       230.5000  23.7500  14.2500 Du        
   4979 ****       230.5000  23.7500  14.5000 Du        
   4980 ****       230.5000  23.7500  14.7500 Du        
   4981 ****       230.5000  24.0000  12.5000 Du        
   4982 ****       230.5000  24.0000  12.7500 Du        
   4983 ****       230.5000  24.0000  13.0000 Du        
   4984 ****       230.5000  24.0000  13.2500 Du        
   4985 ****       230.5000  24.0000  13.5000 Du        
   4986 ****       230.5000  24.0000  13.7500 Du        
   4987 ****       230.5000  24.0000  14.0000 Du        
   4988 ****       230.5000  24.0000  14.2500 Du        
   4989 ****       230.5000  24.0000  14.5000 Du        
   4990 ****       230.5000  24.0000  14.7500 Du        
   4991 ****       230.5000  24.2500  12.2500 Du        
   4992 ****       230.5000  24.2500  12.5000 Du        
   4993 ****       230.5000  24.2500  12.7500 Du        
   4994 ****       230.5000  24.2500  13.0000 Du        
   4995 ****       230.5000  24.2500  13.2500 Du        
   4996 ****       230.5000  24.2500  13.5000 Du        
   4997 ****       230.5000  24.2500  13.7500 Du        
   4998 ****       230.5000  24.2500  14.0000 Du        
   4999 ****       230.5000  24.2500  14.2500 Du        
   5000 ****       230.5000  24.2500  14.5000 Du        
   5001 ****       230.5000  24.5000  12.2500 Du        
   5002 ****       230.5000  24.5000  12.5000 Du        
   5003 ****       230.5000  24.5000  12.7500 Du        
   5004 ****       230.5000  24.5000  13.0000 Du        
   5005 ****       230.5000  24.5000  13.2500 Du        
   5006 ****       230.5000  24.5000  13.5000 Du        
   5007 ****       230.5000  24.5000  13.7500 Du        
   5008 ****       230.5000  24.5000  14.0000 Du        
   5009 ****       230.5000  24.7500  12.0000 Du        
   5010 ****       230.5000  24.7500  12.2500 Du        
   5011 ****       230.5000  24.7500  12.5000 Du        
   5012 ****       230.5000  24.7500  12.7500 Du        
   5013 ****       230.5000  24.7500  13.0000 Du        
   5014 ****       230.5000  24.7500  13.2500 Du        
   5015 ****       230.5000  24.7500  13.5000 Du        
   5016 ****       230.5000  24.7500  13.7500 Du        
   5017 ****       230.5000  25.0000  12.0000 Du        
   5018 ****       230.5000  25.0000  12.2500 Du        
   5019 ****       230.5000  25.0000  12.5000 Du        
   5020 ****       230.5000  25.0000  12.7500 Du        
   5021 ****       230.5000  25.0000  13.0000 Du        
   5022 ****       230.5000  25.0000  13.2500 Du        
   5023 ****       230.5000  25.0000  13.5000 Du        
   5024 ****       230.5000  25.2500  11.7500 Du        
   5025 ****       230.5000  25.2500  12.0000 Du        
   5026 ****       230.5000  25.2500  12.2500 Du        
   5027 ****       230.5000  25.2500  12.5000 Du        
   5028 ****       230.5000  25.2500  12.7500 Du        
   5029 ****       230.5000  25.2500  13.0000 Du        
   5030 ****       230.5000  25.2500  13.2500 Du        
   5031 ****       230.5000  25.5000  11.5000 Du        
   5032 ****       230.5000  25.5000  11.7500 Du        
   5033 ****       230.5000  25.5000  12.0000 Du        
   5034 ****       230.5000  25.5000  12.2500 Du        
   5035 ****       230.5000  25.5000  12.5000 Du        
   5036 ****       230.5000  25.5000  12.7500 Du        
   5037 ****       230.5000  25.5000  13.0000 Du        
   5038 ****       230.5000  25.7500  11.2500 Du        
   5039 ****       230.5000  25.7500  11.5000 Du        
   5040 ****       230.5000  25.7500  11.7500 Du        
   5041 ****       230.5000  25.7500  12.0000 Du        
   5042 ****       230.5000  25.7500  12.2500 Du        
   5043 ****       230.5000  25.7500  12.5000 Du        
   5044 ****       230.5000  25.7500  12.7500 Du        
   5045 ****       230.5000  25.7500  13.0000 Du        
   5046 ****       230.5000  32.0000  12.0000 Du        
   5047 ****       230.5000  32.0000  12.2500 Du        
   5048 ****       230.5000  32.0000  12.5000 Du        
   5049 ****       230.5000  32.0000  12.7500 Du        
   5050 ****       230.5000  32.0000  13.0000 Du        
   5051 ****       230.5000  32.0000  13.2500 Du        
   5052 ****       230.5000  32.0000  13.5000 Du        
   5053 ****       230.5000  32.0000  13.7500 Du        
   5054 ****       230.5000  32.2500  12.0000 Du        
   5055 ****       230.5000  32.2500  12.2500 Du        
   5056 ****       230.5000  32.2500  12.5000 Du        
   5057 ****       230.5000  32.2500  12.7500 Du        
   5058 ****       230.5000  32.2500  13.0000 Du        
   5059 ****       230.5000  32.2500  13.2500 Du        
   5060 ****       230.5000  32.2500  13.5000 Du        
   5061 ****       230.5000  32.2500  13.7500 Du        
   5062 ****       230.5000  32.5000  12.0000 Du        
   5063 ****       230.5000  32.5000  12.2500 Du        
   5064 ****       230.5000  32.5000  12.5000 Du        
   5065 ****       230.5000  32.5000  12.7500 Du        
   5066 ****       230.5000  32.5000  13.0000 Du        
   5067 ****       230.5000  32.5000  13.2500 Du        
   5068 ****       230.5000  32.5000  13.5000 Du        
   5069 ****       230.5000  32.5000  13.7500 Du        
   5070 ****       230.5000  32.7500  12.0000 Du        
   5071 ****       230.5000  32.7500  12.2500 Du        
   5072 ****       230.5000  32.7500  12.5000 Du        
   5073 ****       230.5000  32.7500  12.7500 Du        
   5074 ****       230.5000  32.7500  13.0000 Du        
   5075 ****       230.5000  32.7500  13.2500 Du        
   5076 ****       230.5000  32.7500  13.5000 Du        
   5077 ****       230.5000  32.7500  13.7500 Du        
   5078 ****       230.5000  33.0000  12.0000 Du        
   5079 ****       230.5000  33.0000  12.2500 Du        
   5080 ****       230.5000  33.0000  12.5000 Du        
   5081 ****       230.5000  33.0000  12.7500 Du        
   5082 ****       230.5000  33.0000  13.0000 Du        
   5083 ****       230.5000  33.0000  13.2500 Du        
   5084 ****       230.5000  33.0000  13.5000 Du        
   5085 ****       230.5000  33.0000  13.7500 Du        
   5086 ****       230.5000  33.2500  12.0000 Du        
   5087 ****       230.5000  33.2500  12.2500 Du        
   5088 ****       230.5000  33.2500  12.5000 Du        
   5089 ****       230.5000  33.2500  12.7500 Du        
   5090 ****       230.5000  33.2500  13.0000 Du        
   5091 ****       230.5000  33.2500  13.2500 Du        
   5092 ****       230.5000  33.2500  13.5000 Du        
   5093 ****       230.5000  33.5000  12.0000 Du        
   5094 ****       230.5000  33.5000  12.2500 Du        
   5095 ****       230.5000  33.5000  12.5000 Du        
   5096 ****       230.5000  33.5000  12.7500 Du        
   5097 ****       230.5000  33.5000  13.0000 Du        
   5098 ****       230.5000  33.5000  13.2500 Du        
   5099 ****       230.5000  33.5000  13.5000 Du        
   5100 ****       230.5000  33.7500  12.2500 Du        
   5101 ****       230.5000  33.7500  12.5000 Du        
   5102 ****       230.5000  33.7500  12.7500 Du        
   5103 ****       230.5000  33.7500  13.0000 Du        
   5104 ****       230.5000  33.7500  13.2500 Du        
   5105 ****       230.5000  34.0000  12.2500 Du        
   5106 ****       230.5000  34.0000  12.5000 Du        
   5107 ****       230.5000  34.0000  12.7500 Du        
   5108 ****       230.5000  34.0000  13.0000 Du        
   5109 ****       230.5000  34.0000  13.2500 Du        
   5110 ****       230.5000  34.2500  12.2500 Du        
   5111 ****       230.5000  34.2500  12.5000 Du        
   5112 ****       230.5000  34.2500  12.7500 Du        
   5113 ****       230.5000  34.2500  13.0000 Du        
   5114 ****       230.7500  23.7500  12.7500 Du        
   5115 ****       230.7500  23.7500  13.0000 Du        
   5116 ****       230.7500  23.7500  13.2500 Du        
   5117 ****       230.7500  23.7500  13.5000 Du        
   5118 ****       230.7500  23.7500  13.7500 Du        
   5119 ****       230.7500  23.7500  14.0000 Du        
   5120 ****       230.7500  23.7500  14.2500 Du        
   5121 ****       230.7500  23.7500  14.5000 Du        
   5122 ****       230.7500  24.0000  12.5000 Du        
   5123 ****       230.7500  24.0000  12.7500 Du        
   5124 ****       230.7500  24.0000  13.0000 Du        
   5125 ****       230.7500  24.0000  13.2500 Du        
   5126 ****       230.7500  24.0000  13.5000 Du        
   5127 ****       230.7500  24.0000  13.7500 Du        
   5128 ****       230.7500  24.0000  14.0000 Du        
   5129 ****       230.7500  24.0000  14.2500 Du        
   5130 ****       230.7500  24.0000  14.5000 Du        
   5131 ****       230.7500  24.2500  12.2500 Du        
   5132 ****       230.7500  24.2500  12.5000 Du        
   5133 ****       230.7500  24.2500  12.7500 Du        
   5134 ****       230.7500  24.2500  13.0000 Du        
   5135 ****       230.7500  24.2500  13.2500 Du        
   5136 ****       230.7500  24.2500  13.5000 Du        
   5137 ****       230.7500  24.2500  13.7500 Du        
   5138 ****       230.7500  24.2500  14.0000 Du        
   5139 ****       230.7500  24.2500  14.2500 Du        
   5140 ****       230.7500  24.2500  14.5000 Du        
   5141 ****       230.7500  24.5000  12.2500 Du        
   5142 ****       230.7500  24.5000  12.5000 Du        
   5143 ****       230.7500  24.5000  12.7500 Du        
   5144 ****       230.7500  24.5000  13.0000 Du        
   5145 ****       230.7500  24.5000  13.2500 Du        
   5146 ****       230.7500  24.5000  13.5000 Du        
   5147 ****       230.7500  24.5000  13.7500 Du        
   5148 ****       230.7500  24.5000  14.0000 Du        
   5149 ****       230.7500  24.5000  14.2500 Du        
   5150 ****       230.7500  24.7500  12.0000 Du        
   5151 ****       230.7500  24.7500  12.2500 Du        
   5152 ****       230.7500  24.7500  12.5000 Du        
   5153 ****       230.7500  24.7500  12.7500 Du        
   5154 ****       230.7500  24.7500  13.0000 Du        
   5155 ****       230.7500  24.7500  13.2500 Du        
   5156 ****       230.7500  24.7500  13.5000 Du        
   5157 ****       230.7500  24.7500  13.7500 Du        
   5158 ****       230.7500  24.7500  14.0000 Du        
   5159 ****       230.7500  25.0000  12.0000 Du        
   5160 ****       230.7500  25.0000  12.2500 Du        
   5161 ****       230.7500  25.0000  12.5000 Du        
   5162 ****       230.7500  25.0000  12.7500 Du        
   5163 ****       230.7500  25.0000  13.0000 Du        
   5164 ****       230.7500  25.0000  13.2500 Du        
   5165 ****       230.7500  25.0000  13.5000 Du        
   5166 ****       230.7500  25.0000  13.7500 Du        
   5167 ****       230.7500  25.2500  11.7500 Du        
   5168 ****       230.7500  25.2500  12.0000 Du        
   5169 ****       230.7500  25.2500  12.2500 Du        
   5170 ****       230.7500  25.2500  12.5000 Du        
   5171 ****       230.7500  25.2500  12.7500 Du        
   5172 ****       230.7500  25.2500  13.0000 Du        
   5173 ****       230.7500  25.2500  13.2500 Du        
   5174 ****       230.7500  25.2500  13.5000 Du        
   5175 ****       230.7500  25.5000  12.0000 Du        
   5176 ****       230.7500  25.5000  12.2500 Du        
   5177 ****       230.7500  25.5000  12.5000 Du        
   5178 ****       230.7500  25.5000  12.7500 Du        
   5179 ****       230.7500  25.5000  13.0000 Du        
   5180 ****       230.7500  25.5000  13.2500 Du        
   5181 ****       230.7500  25.7500  12.7500 Du        
   5182 ****       230.7500  25.7500  13.0000 Du        
   5183 ****       230.7500  32.0000  12.0000 Du        
   5184 ****       230.7500  32.0000  12.2500 Du        
   5185 ****       230.7500  32.0000  12.5000 Du        
   5186 ****       230.7500  32.0000  12.7500 Du        
   5187 ****       230.7500  32.0000  13.0000 Du        
   5188 ****       230.7500  32.0000  13.2500 Du        
   5189 ****       230.7500  32.0000  13.5000 Du        
   5190 ****       230.7500  32.2500  12.0000 Du        
   5191 ****       230.7500  32.2500  12.2500 Du        
   5192 ****       230.7500  32.2500  12.5000 Du        
   5193 ****       230.7500  32.2500  12.7500 Du        
   5194 ****       230.7500  32.2500  13.0000 Du        
   5195 ****       230.7500  32.2500  13.2500 Du        
   5196 ****       230.7500  32.2500  13.5000 Du        
   5197 ****       230.7500  32.2500  13.7500 Du        
   5198 ****       230.7500  32.5000  12.0000 Du        
   5199 ****       230.7500  32.5000  12.2500 Du        
   5200 ****       230.7500  32.5000  12.5000 Du        
   5201 ****       230.7500  32.5000  12.7500 Du        
   5202 ****       230.7500  32.5000  13.0000 Du        
   5203 ****       230.7500  32.5000  13.2500 Du        
   5204 ****       230.7500  32.5000  13.5000 Du        
   5205 ****       230.7500  32.5000  13.7500 Du        
   5206 ****       230.7500  32.7500  12.0000 Du        
   5207 ****       230.7500  32.7500  12.2500 Du        
   5208 ****       230.7500  32.7500  12.5000 Du        
   5209 ****       230.7500  32.7500  12.7500 Du        
   5210 ****       230.7500  32.7500  13.0000 Du        
   5211 ****       230.7500  32.7500  13.2500 Du        
   5212 ****       230.7500  32.7500  13.5000 Du        
   5213 ****       230.7500  32.7500  13.7500 Du        
   5214 ****       230.7500  33.0000  12.0000 Du        
   5215 ****       230.7500  33.0000  12.2500 Du        
   5216 ****       230.7500  33.0000  12.5000 Du        
   5217 ****       230.7500  33.0000  12.7500 Du        
   5218 ****       230.7500  33.0000  13.0000 Du        
   5219 ****       230.7500  33.0000  13.2500 Du        
   5220 ****       230.7500  33.0000  13.5000 Du        
   5221 ****       230.7500  33.2500  12.0000 Du        
   5222 ****       230.7500  33.2500  12.2500 Du        
   5223 ****       230.7500  33.2500  12.5000 Du        
   5224 ****       230.7500  33.2500  12.7500 Du        
   5225 ****       230.7500  33.2500  13.0000 Du        
   5226 ****       230.7500  33.2500  13.2500 Du        
   5227 ****       230.7500  33.2500  13.5000 Du        
   5228 ****       230.7500  33.5000  12.2500 Du        
   5229 ****       230.7500  33.5000  12.5000 Du        
   5230 ****       230.7500  33.5000  12.7500 Du        
   5231 ****       230.7500  33.5000  13.0000 Du        
   5232 ****       230.7500  33.5000  13.2500 Du        
   5233 ****       230.7500  33.7500  12.2500 Du        
   5234 ****       230.7500  33.7500  12.5000 Du        
   5235 ****       230.7500  33.7500  12.7500 Du        
   5236 ****       230.7500  33.7500  13.0000 Du        
   5237 ****       230.7500  33.7500  13.2500 Du        
   5238 ****       230.7500  34.0000  12.5000 Du        
   5239 ****       230.7500  34.0000  12.7500 Du        
   5240 ****       230.7500  34.0000  13.0000 Du        
   5241 ****       230.7500  34.2500  12.7500 Du        
   5242 ****       231.0000  24.0000  13.0000 Du        
   5243 ****       231.0000  24.0000  13.2500 Du        
   5244 ****       231.0000  24.0000  13.5000 Du        
   5245 ****       231.0000  24.0000  13.7500 Du        
   5246 ****       231.0000  24.0000  14.0000 Du        
   5247 ****       231.0000  24.2500  12.5000 Du        
   5248 ****       231.0000  24.2500  12.7500 Du        
   5249 ****       231.0000  24.2500  13.0000 Du        
   5250 ****       231.0000  24.2500  13.2500 Du        
   5251 ****       231.0000  24.2500  13.5000 Du        
   5252 ****       231.0000  24.2500  13.7500 Du        
   5253 ****       231.0000  24.2500  14.0000 Du        
   5254 ****       231.0000  24.2500  14.2500 Du        
   5255 ****       231.0000  24.5000  12.2500 Du        
   5256 ****       231.0000  24.5000  12.5000 Du        
   5257 ****       231.0000  24.5000  12.7500 Du        
   5258 ****       231.0000  24.5000  13.0000 Du        
   5259 ****       231.0000  24.5000  13.2500 Du        
   5260 ****       231.0000  24.5000  13.5000 Du        
   5261 ****       231.0000  24.5000  13.7500 Du        
   5262 ****       231.0000  24.5000  14.0000 Du        
   5263 ****       231.0000  24.5000  14.2500 Du        
   5264 ****       231.0000  24.7500  12.2500 Du        
   5265 ****       231.0000  24.7500  12.5000 Du        
   5266 ****       231.0000  24.7500  12.7500 Du        
   5267 ****       231.0000  24.7500  13.0000 Du        
   5268 ****       231.0000  24.7500  13.2500 Du        
   5269 ****       231.0000  24.7500  13.5000 Du        
   5270 ****       231.0000  24.7500  13.7500 Du        
   5271 ****       231.0000  24.7500  14.0000 Du        
   5272 ****       231.0000  25.0000  12.0000 Du        
   5273 ****       231.0000  25.0000  12.2500 Du        
   5274 ****       231.0000  25.0000  12.5000 Du        
   5275 ****       231.0000  25.0000  12.7500 Du        
   5276 ****       231.0000  25.0000  13.0000 Du        
   5277 ****       231.0000  25.0000  13.2500 Du        
   5278 ****       231.0000  25.0000  13.5000 Du        
   5279 ****       231.0000  25.0000  13.7500 Du        
   5280 ****       231.0000  25.0000  14.0000 Du        
   5281 ****       231.0000  25.2500  12.0000 Du        
   5282 ****       231.0000  25.2500  12.2500 Du        
   5283 ****       231.0000  25.2500  12.5000 Du        
   5284 ****       231.0000  25.2500  12.7500 Du        
   5285 ****       231.0000  25.2500  13.0000 Du        
   5286 ****       231.0000  25.2500  13.2500 Du        
   5287 ****       231.0000  25.2500  13.5000 Du        
   5288 ****       231.0000  25.2500  13.7500 Du        
   5289 ****       231.0000  25.5000  12.7500 Du        
   5290 ****       231.0000  25.5000  13.0000 Du        
   5291 ****       231.0000  25.5000  13.2500 Du        
   5292 ****       231.0000  25.5000  13.5000 Du        
   5293 ****       231.0000  32.2500  12.0000 Du        
   5294 ****       231.0000  32.2500  12.2500 Du        
   5295 ****       231.0000  32.2500  12.5000 Du        
   5296 ****       231.0000  32.2500  12.7500 Du        
   5297 ****       231.0000  32.2500  13.0000 Du        
   5298 ****       231.0000  32.2500  13.2500 Du        
   5299 ****       231.0000  32.2500  13.5000 Du        
   5300 ****       231.0000  32.5000  12.0000 Du        
   5301 ****       231.0000  32.5000  12.2500 Du        
   5302 ****       231.0000  32.5000  12.5000 Du        
   5303 ****       231.0000  32.5000  12.7500 Du        
   5304 ****       231.0000  32.5000  13.0000 Du        
   5305 ****       231.0000  32.5000  13.2500 Du        
   5306 ****       231.0000  32.5000  13.5000 Du        
   5307 ****       231.0000  32.7500  12.0000 Du        
   5308 ****       231.0000  32.7500  12.2500 Du        
   5309 ****       231.0000  32.7500  12.5000 Du        
   5310 ****       231.0000  32.7500  12.7500 Du        
   5311 ****       231.0000  32.7500  13.0000 Du        
   5312 ****       231.0000  32.7500  13.2500 Du        
   5313 ****       231.0000  32.7500  13.5000 Du        
   5314 ****       231.0000  33.0000  12.0000 Du        
   5315 ****       231.0000  33.0000  12.2500 Du        
   5316 ****       231.0000  33.0000  12.5000 Du        
   5317 ****       231.0000  33.0000  12.7500 Du        
   5318 ****       231.0000  33.0000  13.0000 Du        
   5319 ****       231.0000  33.0000  13.2500 Du        
   5320 ****       231.0000  33.0000  13.5000 Du        
   5321 ****       231.0000  33.2500  12.2500 Du        
   5322 ****       231.0000  33.2500  12.5000 Du        
   5323 ****       231.0000  33.2500  12.7500 Du        
   5324 ****       231.0000  33.2500  13.0000 Du        
   5325 ****       231.0000  33.2500  13.2500 Du        
   5326 ****       231.0000  33.5000  12.2500 Du        
   5327 ****       231.0000  33.5000  12.5000 Du        
   5328 ****       231.0000  33.5000  12.7500 Du        
   5329 ****       231.0000  33.5000  13.0000 Du        
   5330 ****       231.0000  33.5000  13.2500 Du        
   5331 ****       231.0000  33.7500  12.5000 Du        
   5332 ****       231.0000  33.7500  12.7500 Du        
   5333 ****       231.0000  33.7500  13.0000 Du        
   5334 ****       231.2500  24.5000  12.7500 Du        
   5335 ****       231.2500  24.5000  13.0000 Du        
   5336 ****       231.2500  24.5000  13.2500 Du        
   5337 ****       231.2500  24.5000  13.5000 Du        
   5338 ****       231.2500  24.5000  13.7500 Du        
   5339 ****       231.2500  24.5000  14.0000 Du        
   5340 ****       231.2500  24.7500  12.5000 Du        
   5341 ****       231.2500  24.7500  12.7500 Du        
   5342 ****       231.2500  24.7500  13.0000 Du        
   5343 ****       231.2500  24.7500  13.2500 Du        
   5344 ****       231.2500  24.7500  13.5000 Du        
   5345 ****       231.2500  24.7500  13.7500 Du        
   5346 ****       231.2500  24.7500  14.0000 Du        
   5347 ****       231.2500  24.7500  14.2500 Du        
   5348 ****       231.2500  25.0000  12.5000 Du        
   5349 ****       231.2500  25.0000  12.7500 Du        
   5350 ****       231.2500  25.0000  13.0000 Du        
   5351 ****       231.2500  25.0000  13.2500 Du        
   5352 ****       231.2500  25.0000  13.5000 Du        
   5353 ****       231.2500  25.0000  13.7500 Du        
   5354 ****       231.2500  25.0000  14.0000 Du        
   5355 ****       231.2500  25.2500  12.7500 Du        
   5356 ****       231.2500  25.2500  13.0000 Du        
   5357 ****       231.2500  25.2500  13.2500 Du        
   5358 ****       231.2500  25.2500  13.5000 Du        
   5359 ****       231.2500  25.2500  13.7500 Du        
   5360 ****       231.2500  25.5000  13.2500 Du        
   5361 ****       231.2500  25.5000  13.5000 Du        
   5362 ****       231.2500  32.5000  12.2500 Du        
   5363 ****       231.2500  32.5000  12.5000 Du        
   5364 ****       231.2500  32.5000  12.7500 Du        
   5365 ****       231.2500  32.5000  13.0000 Du        
   5366 ****       231.2500  32.5000  13.2500 Du        
   5367 ****       231.2500  32.7500  12.2500 Du        
   5368 ****       231.2500  32.7500  12.5000 Du        
   5369 ****       231.2500  32.7500  12.7500 Du        
   5370 ****       231.2500  32.7500  13.0000 Du        
   5371 ****       231.2500  32.7500  13.2500 Du        
   5372 ****       231.2500  32.7500  13.5000 Du        
   5373 ****       231.2500  33.0000  12.2500 Du        
   5374 ****       231.2500  33.0000  12.5000 Du        
   5375 ****       231.2500  33.0000  12.7500 Du        
   5376 ****       231.2500  33.0000  13.0000 Du        
   5377 ****       231.2500  33.0000  13.2500 Du        
   5378 ****       231.2500  33.2500  12.5000 Du        
   5379 ****       231.2500  33.2500  12.7500 Du        
   5380 ****       231.2500  33.2500  13.0000 Du        
   5381 ****       231.2500  33.2500  13.2500 Du        
   5382 ****       231.2500  33.5000  12.7500 Du        
   5383 ****       231.2500  33.5000  13.0000 Du        
   5384 ****       231.5000  24.7500  13.0000 Du        
   5385 ****       231.5000  24.7500  13.2500 Du        
   5386 ****       231.5000  24.7500  13.5000 Du        
   5387 ****       231.5000  24.7500  13.7500 Du        
   5388 ****       231.5000  24.7500  14.0000 Du        
   5389 ****       231.5000  25.0000  13.0000 Du        
   5390 ****       231.5000  25.0000  13.2500 Du        
   5391 ****       231.5000  25.0000  13.5000 Du        
   5392 ****       231.5000  25.0000  13.7500 Du        
   5393 ****       231.5000  25.0000  14.0000 Du        
   5394 ****       231.5000  25.2500  13.2500 Du        
   5395 ****       231.5000  25.2500  13.5000 Du        
   5396 ****       231.5000  25.2500  13.7500 Du        
   5397 ****       231.5000  25.2500  14.0000 Du        
   5398 ****       231.5000  32.7500  12.7500 Du        
   5399 ****       231.5000  32.7500  13.0000 Du        
   5400 ****       231.5000  32.7500  13.2500 Du        
   5401 ****       231.5000  33.0000  12.5000 Du        
   5402 ****       231.5000  33.0000  12.7500 Du        
   5403 ****       231.5000  33.0000  13.0000 Du        
   5404 ****       231.5000  33.0000  13.2500 Du        
   5405 ****       231.5000  33.2500  12.7500 Du        
   5406 ****       231.5000  33.2500  13.0000 Du        
   5407 ****       231.7500  25.0000  13.7500 Du        
   5408 ****       231.7500  25.0000  14.0000 Du        
   5409 ****       231.7500  25.2500  13.7500 Du        
   5410 ****       231.7500  25.2500  14.0000 Du        
   5411 ****       233.2500  25.2500  16.0000 Du        
   5412 ****       233.2500  25.2500  16.2500 Du        
   5413 ****       233.2500  25.5000  15.5000 Du        
   5414 ****       233.2500  25.5000  15.7500 Du        
   5415 ****       233.2500  25.5000  16.0000 Du        
   5416 ****       233.2500  25.7500  15.5000 Du        
   5417 ****       233.2500  25.7500  15.7500 Du        
   5418 ****       233.2500  25.7500  16.0000 Du        
   5419 ****       233.5000  25.0000  16.2500 Du        
   5420 ****       233.5000  25.0000  16.5000 Du        
   5421 ****       233.5000  25.0000  16.7500 Du        
   5422 ****       233.5000  25.2500  15.7500 Du        
   5423 ****       233.5000  25.2500  16.0000 Du        
   5424 ****       233.5000  25.2500  16.2500 Du        
   5425 ****       233.5000  25.2500  16.5000 Du        
   5426 ****       233.5000  25.2500  16.7500 Du        
   5427 ****       233.5000  25.5000  15.5000 Du        
   5428 ****       233.5000  25.5000  15.7500 Du        
   5429 ****       233.5000  25.5000  16.0000 Du        
   5430 ****       233.5000  25.5000  16.2500 Du        
   5431 ****       233.5000  25.5000  16.5000 Du        
   5432 ****       233.5000  25.7500  15.5000 Du        
   5433 ****       233.5000  25.7500  15.7500 Du        
   5434 ****       233.5000  25.7500  16.0000 Du        
   5435 ****       233.5000  25.7500  16.2500 Du        
   5436 ****       233.5000  25.7500  16.5000 Du        
   5437 ****       233.5000  26.0000  15.7500 Du        
   5438 ****       233.5000  26.0000  16.0000 Du        
   5439 ****       233.5000  26.0000  16.2500 Du        
   5440 ****       233.5000  26.0000  16.5000 Du        
   5441 ****       233.5000  26.2500  16.0000 Du        
   5442 ****       233.5000  26.2500  16.2500 Du        
   5443 ****       233.7500  24.7500  16.7500 Du        
   5444 ****       233.7500  24.7500  17.0000 Du        
   5445 ****       233.7500  25.0000  16.2500 Du        
   5446 ****       233.7500  25.0000  16.5000 Du        
   5447 ****       233.7500  25.0000  16.7500 Du        
   5448 ****       233.7500  25.0000  17.0000 Du        
   5449 ****       233.7500  25.2500  15.7500 Du        
   5450 ****       233.7500  25.2500  16.0000 Du        
   5451 ****       233.7500  25.2500  16.2500 Du        
   5452 ****       233.7500  25.2500  16.5000 Du        
   5453 ****       233.7500  25.2500  16.7500 Du        
   5454 ****       233.7500  25.2500  17.0000 Du        
   5455 ****       233.7500  25.5000  15.5000 Du        
   5456 ****       233.7500  25.5000  15.7500 Du        
   5457 ****       233.7500  25.5000  16.0000 Du        
   5458 ****       233.7500  25.5000  16.2500 Du        
   5459 ****       233.7500  25.5000  16.5000 Du        
   5460 ****       233.7500  25.5000  16.7500 Du        
   5461 ****       233.7500  25.5000  17.0000 Du        
   5462 ****       233.7500  25.7500  15.5000 Du        
   5463 ****       233.7500  25.7500  15.7500 Du        
   5464 ****       233.7500  25.7500  16.0000 Du        
   5465 ****       233.7500  25.7500  16.2500 Du        
   5466 ****       233.7500  25.7500  16.5000 Du        
   5467 ****       233.7500  25.7500  16.7500 Du        
   5468 ****       233.7500  26.0000  15.5000 Du        
   5469 ****       233.7500  26.0000  15.7500 Du        
   5470 ****       233.7500  26.0000  16.0000 Du        
   5471 ****       233.7500  26.0000  16.2500 Du        
   5472 ****       233.7500  26.0000  16.5000 Du        
   5473 ****       233.7500  26.0000  16.7500 Du        
   5474 ****       233.7500  26.2500  15.7500 Du        
   5475 ****       233.7500  26.2500  16.0000 Du        
   5476 ****       233.7500  26.2500  16.2500 Du        
   5477 ****       233.7500  26.2500  16.5000 Du        
   5478 ****       233.7500  26.2500  16.7500 Du        
   5479 ****       233.7500  26.5000  16.0000 Du        
   5480 ****       233.7500  26.5000  16.2500 Du        
   5481 ****       233.7500  26.5000  16.5000 Du        
   5482 ****       233.7500  26.5000  16.7500 Du        
   5483 ****       233.7500  26.7500  16.2500 Du        
   5484 ****       233.7500  26.7500  16.5000 Du        
   5485 ****       234.0000  24.7500  16.7500 Du        
   5486 ****       234.0000  24.7500  17.0000 Du        
   5487 ****       234.0000  24.7500  17.2500 Du        
   5488 ****       234.0000  25.0000  16.2500 Du        
   5489 ****       234.0000  25.0000  16.5000 Du        
   5490 ****       234.0000  25.0000  16.7500 Du        
   5491 ****       234.0000  25.0000  17.0000 Du        
   5492 ****       234.0000  25.0000  17.2500 Du        
   5493 ****       234.0000  25.2500  15.7500 Du        
   5494 ****       234.0000  25.2500  16.0000 Du        
   5495 ****       234.0000  25.2500  16.2500 Du        
   5496 ****       234.0000  25.2500  16.5000 Du        
   5497 ****       234.0000  25.2500  16.7500 Du        
   5498 ****       234.0000  25.2500  17.0000 Du        
   5499 ****       234.0000  25.2500  17.2500 Du        
   5500 ****       234.0000  25.5000  15.5000 Du        
   5501 ****       234.0000  25.5000  15.7500 Du        
   5502 ****       234.0000  25.5000  16.0000 Du        
   5503 ****       234.0000  25.5000  16.2500 Du        
   5504 ****       234.0000  25.5000  16.5000 Du        
   5505 ****       234.0000  25.5000  16.7500 Du        
   5506 ****       234.0000  25.5000  17.0000 Du        
   5507 ****       234.0000  25.7500  15.5000 Du        
   5508 ****       234.0000  25.7500  15.7500 Du        
   5509 ****       234.0000  25.7500  16.0000 Du        
   5510 ****       234.0000  25.7500  16.2500 Du        
   5511 ****       234.0000  25.7500  16.5000 Du        
   5512 ****       234.0000  25.7500  16.7500 Du        
   5513 ****       234.0000  25.7500  17.0000 Du        
   5514 ****       234.0000  26.0000  15.5000 Du        
   5515 ****       234.0000  26.0000  15.7500 Du        
   5516 ****       234.0000  26.0000  16.0000 Du        
   5517 ****       234.0000  26.0000  16.2500 Du        
   5518 ****       234.0000  26.0000  16.5000 Du        
   5519 ****       234.0000  26.0000  16.7500 Du        
   5520 ****       234.0000  26.0000  17.0000 Du        
   5521 ****       234.0000  26.2500  15.7500 Du        
   5522 ****       234.0000  26.2500  16.0000 Du        
   5523 ****       234.0000  26.2500  16.2500 Du        
   5524 ****       234.0000  26.2500  16.5000 Du        
   5525 ****       234.0000  26.2500  16.7500 Du        
   5526 ****       234.0000  26.2500  17.0000 Du        
   5527 ****       234.0000  26.5000  16.0000 Du        
   5528 ****       234.0000  26.5000  16.2500 Du        
   5529 ****       234.0000  26.5000  16.5000 Du        
   5530 ****       234.0000  26.5000  16.7500 Du        
   5531 ****       234.0000  26.5000  17.0000 Du        
   5532 ****       234.0000  26.7500  16.0000 Du        
   5533 ****       234.0000  26.7500  16.2500 Du        
   5534 ****       234.0000  26.7500  16.5000 Du        
   5535 ****       234.0000  26.7500  16.7500 Du        
   5536 ****       234.0000  26.7500  17.0000 Du        
   5537 ****       234.0000  27.0000  16.2500 Du        
   5538 ****       234.0000  27.0000  16.5000 Du        
   5539 ****       234.0000  27.0000  16.7500 Du        
   5540 ****       234.0000  27.0000  17.0000 Du        
   5541 ****       234.0000  27.2500  16.5000 Du        
   5542 ****       234.0000  27.2500  16.7500 Du        
   5543 ****       234.2500  25.0000  16.7500 Du        
   5544 ****       234.2500  25.0000  17.0000 Du        
   5545 ****       234.2500  25.2500  15.7500 Du        
   5546 ****       234.2500  25.2500  16.0000 Du        
   5547 ****       234.2500  25.2500  16.2500 Du        
   5548 ****       234.2500  25.2500  16.5000 Du        
   5549 ****       234.2500  25.2500  16.7500 Du        
   5550 ****       234.2500  25.2500  17.0000 Du        
   5551 ****       234.2500  25.2500  17.2500 Du        
   5552 ****       234.2500  25.5000  15.5000 Du        
   5553 ****       234.2500  25.5000  15.7500 Du        
   5554 ****       234.2500  25.5000  16.0000 Du        
   5555 ****       234.2500  25.5000  16.2500 Du        
   5556 ****       234.2500  25.5000  16.5000 Du        
   5557 ****       234.2500  25.5000  16.7500 Du        
   5558 ****       234.2500  25.5000  17.0000 Du        
   5559 ****       234.2500  25.5000  17.2500 Du        
   5560 ****       234.2500  25.7500  15.5000 Du        
   5561 ****       234.2500  25.7500  15.7500 Du        
   5562 ****       234.2500  25.7500  16.0000 Du        
   5563 ****       234.2500  25.7500  16.2500 Du        
   5564 ****       234.2500  25.7500  16.5000 Du        
   5565 ****       234.2500  25.7500  16.7500 Du        
   5566 ****       234.2500  25.7500  17.0000 Du        
   5567 ****       234.2500  25.7500  17.2500 Du        
   5568 ****       234.2500  26.0000  15.5000 Du        
   5569 ****       234.2500  26.0000  15.7500 Du        
   5570 ****       234.2500  26.0000  16.0000 Du        
   5571 ****       234.2500  26.0000  16.2500 Du        
   5572 ****       234.2500  26.0000  16.5000 Du        
   5573 ****       234.2500  26.0000  16.7500 Du        
   5574 ****       234.2500  26.0000  17.0000 Du        
   5575 ****       234.2500  26.0000  17.2500 Du        
   5576 ****       234.2500  26.2500  15.7500 Du        
   5577 ****       234.2500  26.2500  16.0000 Du        
   5578 ****       234.2500  26.2500  16.2500 Du        
   5579 ****       234.2500  26.2500  16.5000 Du        
   5580 ****       234.2500  26.2500  16.7500 Du        
   5581 ****       234.2500  26.2500  17.0000 Du        
   5582 ****       234.2500  26.2500  17.2500 Du        
   5583 ****       234.2500  26.5000  15.7500 Du        
   5584 ****       234.2500  26.5000  16.0000 Du        
   5585 ****       234.2500  26.5000  16.2500 Du        
   5586 ****       234.2500  26.5000  16.5000 Du        
   5587 ****       234.2500  26.5000  16.7500 Du        
   5588 ****       234.2500  26.5000  17.0000 Du        
   5589 ****       234.2500  26.5000  17.2500 Du        
   5590 ****       234.2500  26.7500  16.0000 Du        
   5591 ****       234.2500  26.7500  16.2500 Du        
   5592 ****       234.2500  26.7500  16.5000 Du        
   5593 ****       234.2500  26.7500  16.7500 Du        
   5594 ****       234.2500  26.7500  17.0000 Du        
   5595 ****       234.2500  26.7500  17.2500 Du        
   5596 ****       234.2500  27.0000  16.0000 Du        
   5597 ****       234.2500  27.0000  16.2500 Du        
   5598 ****       234.2500  27.0000  16.5000 Du        
   5599 ****       234.2500  27.0000  16.7500 Du        
   5600 ****       234.2500  27.0000  17.0000 Du        
   5601 ****       234.2500  27.0000  17.2500 Du        
   5602 ****       234.2500  27.2500  16.2500 Du        
   5603 ****       234.2500  27.2500  16.5000 Du        
   5604 ****       234.2500  27.2500  16.7500 Du        
   5605 ****       234.2500  27.2500  17.0000 Du        
   5606 ****       234.2500  27.2500  17.2500 Du        
   5607 ****       234.5000  25.5000  15.7500 Du        
   5608 ****       234.5000  25.5000  16.0000 Du        
   5609 ****       234.5000  25.5000  16.2500 Du        
   5610 ****       234.5000  25.7500  15.5000 Du        
   5611 ****       234.5000  25.7500  15.7500 Du        
   5612 ****       234.5000  25.7500  16.0000 Du        
   5613 ****       234.5000  25.7500  16.2500 Du        
   5614 ****       234.5000  25.7500  16.5000 Du        
   5615 ****       234.5000  25.7500  16.7500 Du        
   5616 ****       234.5000  26.0000  15.5000 Du        
   5617 ****       234.5000  26.0000  15.7500 Du        
   5618 ****       234.5000  26.0000  16.0000 Du        
   5619 ****       234.5000  26.0000  16.2500 Du        
   5620 ****       234.5000  26.0000  16.5000 Du        
   5621 ****       234.5000  26.0000  16.7500 Du        
   5622 ****       234.5000  26.2500  15.5000 Du        
   5623 ****       234.5000  26.2500  15.7500 Du        
   5624 ****       234.5000  26.2500  16.0000 Du        
   5625 ****       234.5000  26.2500  16.2500 Du        
   5626 ****       234.5000  26.2500  16.5000 Du        
   5627 ****       234.5000  26.2500  16.7500 Du        
   5628 ****       234.5000  26.5000  15.7500 Du        
   5629 ****       234.5000  26.5000  16.0000 Du        
   5630 ****       234.5000  26.5000  16.2500 Du        
   5631 ****       234.5000  26.5000  16.5000 Du        
   5632 ****       234.5000  26.5000  16.7500 Du        
   5633 ****       234.5000  26.7500  15.7500 Du        
   5634 ****       234.5000  26.7500  16.0000 Du        
   5635 ****       234.5000  26.7500  16.2500 Du        
   5636 ****       234.5000  26.7500  16.5000 Du        
   5637 ****       234.5000  26.7500  16.7500 Du        
   5638 ****       234.5000  27.0000  16.0000 Du        
   5639 ****       234.5000  27.0000  16.2500 Du        
   5640 ****       234.5000  27.0000  16.5000 Du        
   5641 ****       234.5000  27.0000  16.7500 Du        
   5642 ****       234.5000  27.2500  16.2500 Du        
   5643 ****       234.5000  27.2500  16.5000 Du        
   5644 ****       234.5000  27.2500  16.7500 Du        
   5645 ****       234.7500  25.7500  15.5000 Du        
   5646 ****       234.7500  25.7500  15.7500 Du        
   5647 ****       234.7500  25.7500  16.0000 Du        
   5648 ****       234.7500  26.0000  15.5000 Du        
   5649 ****       234.7500  26.0000  15.7500 Du        
   5650 ****       234.7500  26.0000  16.0000 Du        
   5651 ****       234.7500  26.0000  16.2500 Du        
   5652 ****       234.7500  26.2500  15.5000 Du        
   5653 ****       234.7500  26.2500  15.7500 Du        
   5654 ****       234.7500  26.2500  16.0000 Du        
   5655 ****       234.7500  26.2500  16.2500 Du        
   5656 ****       234.7500  26.2500  16.5000 Du        
   5657 ****       234.7500  26.5000  15.7500 Du        
   5658 ****       234.7500  26.5000  16.0000 Du        
   5659 ****       234.7500  26.5000  16.2500 Du        
   5660 ****       234.7500  26.5000  16.5000 Du        
   5661 ****       234.7500  26.5000  16.7500 Du        
   5662 ****       234.7500  26.7500  15.7500 Du        
   5663 ****       234.7500  26.7500  16.0000 Du        
   5664 ****       234.7500  26.7500  16.2500 Du        
   5665 ****       234.7500  26.7500  16.5000 Du        
   5666 ****       234.7500  26.7500  16.7500 Du        
   5667 ****       234.7500  27.0000  16.0000 Du        
   5668 ****       234.7500  27.0000  16.2500 Du        
   5669 ****       234.7500  27.0000  16.5000 Du        
   5670 ****       234.7500  27.0000  16.7500 Du        
   5671 ****       234.7500  27.2500  16.0000 Du        
   5672 ****       234.7500  27.2500  16.2500 Du        
   5673 ****       234.7500  27.2500  16.5000 Du        
   5674 ****       234.7500  27.2500  16.7500 Du        
