#       Name:                CT1002167954
#       Creating user name   hitesit
#       Creation time:       Sun Apr 16 22:59:46 2023


#       File generated by GOLD software.
#

@<TRIPOS>MOLECULE
CT1002167954|ligand_prepared|mol2|1|dock9
    29    30     1
SMALL
NO_CHARGES


@<TRIPOS>ATOM
      1 C1         228.0973  29.1942  12.5568 C.3            1 RES1               0.0000
      2 C2         228.7951  30.5409  12.8365 C.ar           1 RES1               0.0000
      3 C3         227.3857  29.3507  11.2161 C.2            1 RES1               0.0000
      4 C4         229.1952  28.1363  12.5588 C.2            1 RES1               0.0000
      5 C5         227.0511  28.7990  13.6249 C.3            1 RES1               0.0000
      6 C6         228.3176  31.3943  13.8267 C.ar           1 RES1               0.0000
      7 C7         229.9169  30.9416  12.1157 C.ar           1 RES1               0.0000
      8 N8         227.9280  28.7195  10.1356 N.am           1 RES1               0.0000
      9 O9         226.3864  30.0494  11.1007 O.2            1 RES1               0.0000
     10 N10        229.4640  27.4878  11.3820 N.am           1 RES1               0.0000
     11 O11        229.8412  27.8702  13.5648 O.2            1 RES1               0.0000
     12 C12        226.4944  27.3951  13.4479 C.3            1 RES1               0.0000
     13 C13        228.9407  32.6031  14.0889 C.ar           1 RES1               0.0000
     14 C14        230.5384  32.1510  12.3794 C.ar           1 RES1               0.0000
     15 C15        228.9012  27.7531  10.1633 C.2            1 RES1               0.0000
     16 C16        230.0516  32.9821  13.3658 C.ar           1 RES1               0.0000
     17 O17        229.2344  27.1641   9.1390 O.2            1 RES1               0.0000
     18 H18        227.5138  28.8729  14.6168 H              1 RES1               0.0000
     19 H19        226.2209  29.5151  13.5881 H              1 RES1               0.0000
     20 H20        227.4430  31.1140  14.4043 H              1 RES1               0.0000
     21 H21        230.3168  30.3044  11.3343 H              1 RES1               0.0000
     22 H22        227.5776  28.9912   9.2225 H              1 RES1               0.0000
     23 H23        230.1469  26.7376  11.4177 H              1 RES1               0.0000
     24 H24        225.7652  27.1687  14.2230 H              1 RES1               0.0000
     25 H25        226.0046  27.2933  12.4817 H              1 RES1               0.0000
     26 H26        227.2899  26.6548  13.5044 H              1 RES1               0.0000
     27 H27        228.5529  33.2542  14.8653 H              1 RES1               0.0000
     28 H28        231.4121  32.4456  11.8074 H              1 RES1               0.0000
     29 H29        230.5398  33.9290  13.5717 H              1 RES1               0.0000
@<TRIPOS>BOND
    1    1    2 1     
    2    1    3 1     
    3    1    4 1     
    4    1    5 1     
    5    2    6 ar    
    6    2    7 ar    
    7    3    8 1     
    8    3    9 2     
    9    4   10 1     
   10    4   11 2     
   11    5   12 1     
   12    5   18 1     
   13    5   19 1     
   14    6   13 ar    
   15    6   20 1     
   16    7   14 ar    
   17    7   21 1     
   18    8   15 1     
   19    8   22 1     
   20   10   15 1     
   21   10   23 1     
   22   12   24 1     
   23   12   25 1     
   24   12   26 1     
   25   13   16 ar    
   26   13   27 1     
   27   14   16 ar    
   28   14   28 1     
   29   15   17 2     
   30   16   29 1     
@<TRIPOS>SUBSTRUCTURE
      1 RES1           1
@<TRIPOS>SET
DONOR_HYDROGENS      STATIC     ATOMS    <user>   **** ""
2 22 23
ATOM$RED        STATIC     ATOMS    COLORGROUP SYSTEM
2 22 23
@<TRIPOS>COMMENT
> <Gold.Version>
2022.3.0

> <Gold.Id.Protein>
unknown|4d1n_clean|pdb

> <Gold.Protein.RotatedTorsions>
[ 16995 16956 16955 16953 ] final  -46.65 input   60.02 | X-H torsion
[ 18503 18464 18463 18461 ] final  -29.27 input   59.99 | X-H torsion
[ 18563 18529 18530 18531 ] final -164.44 input   85.91 | X-H torsion
[ 18713 18683 18684 18685 ] final  114.05 input  120.10 | X-H torsion
[ 18779 18741 18742 18743 ] final   25.06 input   94.66 | X-H torsion
[ 18963 18915 18916 18917 ] final -116.00 input   99.61 | X-H torsion
[ 19029 19005 19006 19007 ] final -147.93 input  120.28 | X-H torsion
[ 17195 17175 17176 17177 ] final  -84.83 input   50.47 | X-H torsion
[ 17251 17219 17220 17221 ] final   44.96 input  121.85 | X-H torsion
[ 18823 18809 18810 18811 ] final   45.01 input  109.66 | X-H torsion
[ 19103 19061 19062 19063 ] final   72.89 input   93.64 | X-H torsion
[ 18495 18453 18454 18455 ] final   23.93 input  105.49 | X-H torsion
[ 18295 18273 18274 18275 ] final -167.93 input   34.55 | X-H torsion
[ 18327 18313 18314 18315 ] final  162.12 input   52.32 | X-H torsion
[ 18409 18361 18362 18363 ] final   59.44 input   29.77 | X-H torsion
[ 7524 7513 7514 7515 ] final   31.73 input   82.77 | X-H torsion
[ 7477 7455 7456 7457 ] final  124.81 input   99.19 | X-H torsion
[ 18603 18589 18590 18591 ] final  -70.93 input  124.64 | X-H torsion
[ 10105 10094 10093 10090 ] final -160.80 input   59.99 | X-H torsion
[ 18299 18278 18277 18274 ] final  -78.66 input   60.00 | X-H torsion
[ 11477 11459 11460 11461 ] final  -76.73 input   48.11 | X-H torsion
[ 18657 18629 18627 18624 ] final -122.72 input   60.03 | X-H torsion
[ 11425 11414 11413 11410 ] final   68.38 input   60.02 | X-H torsion
[ 18875 18843 18844 18845 ] final  -84.89 input   86.72 | X-H torsion
[ 17303 17281 17282 17283 ] final  -50.17 input   51.85 | X-H torsion
[ 22447 22415 22416 22417 ] final  -47.91 input   56.20 | X-H torsion
[ 18243 18203 18204 18205 ] final  122.12 input   41.90 | X-H torsion
[ 11805 11781 11782 11783 ] final -124.93 input   87.31 | X-H torsion
[ 16987 16945 16946 16947 ] final  146.46 input   84.34 | X-H torsion
[ 27198 18532 18531 18530 ] final  -63.75 input   -0.00 | X-H torsion
[ 27200 18626 18625 18624 ] final -161.20 input    0.00 | X-H torsion
[ 27203 18686 18685 18684 ] final   25.87 input   -0.00 | X-H torsion
[ 27223 17126 17125 17124 ] final -123.29 input    0.00 | X-H torsion
[ 27227 11604 11603 11602 ] final  173.79 input    0.00 | X-H torsion
[ 27231 17052 17051 17050 ] final -122.19 input   -0.00 | X-H torsion
[ 27233 18744 18743 18742 ] final  157.69 input   -0.00 | X-H torsion
[ 27235 18592 18591 18590 ] final -106.78 input   -0.00 | X-H torsion
[ 27238 18918 18917 18916 ] final -176.46 input    0.00 | X-H torsion
[ 27240 19008 19007 19006 ] final   77.62 input    0.00 | X-H torsion
[ 27243 17178 17177 17176 ] final -132.13 input    0.00 | X-H torsion
[ 27245 18364 18363 18362 ] final   83.57 input    0.00 | X-H torsion
[ 27248 11412 11411 11410 ] final -179.30 input   -0.00 | X-H torsion
[ 27250 18206 18205 18204 ] final  -66.55 input   -0.00 | X-H torsion
[ 27254 17222 17221 17220 ] final   46.16 input   -0.00 | X-H torsion
[ 27259 18316 18315 18314 ] final -157.07 input   -0.00 | X-H torsion
[ 27261 18456 18455 18454 ] final  126.33 input    0.00 | X-H torsion
[ 27264 18276 18275 18274 ] final -129.71 input    0.00 | X-H torsion
[ 27267 17016 17015 17014 ] final  134.81 input    0.00 | X-H torsion
[ 27275 16948 16947 16946 ] final   -5.10 input   -0.00 | X-H torsion

> <Gold.Protein.ActiveResidues>
 TRP414  CYS420  VAL421  GLY422  LEU460  SER462  SER482  GLN483  ILE485  ARG486 
 TYR487  ASP500  ASN503  TRP566  TYR567  GLY568  LEU569  PRO570  ALA571  VAL572 
 SER573  ASN574  PHE589  SER590  GLY591  TRP592  TYR593  MET594  GLY595  THR596 
 GLU597  ILE598  GLY599  VAL600  ARG601  ASP602  TYR603  ARG608  ILE653  VAL654 
 TRP683  PRO687  HEM750  H4B760 

> <Gold.Protein.RotatedAtoms>
  232.6834   32.7078   20.0091 H   0  0  0  0  0  0  0  0  0  0  0  0  # atno 7477 bound_to 7455
  232.6287   35.8296   19.7076 H   0  0  0  0  0  0  0  0  0  0  0  0  # atno 7524 bound_to 7513
  229.8401   41.3660   13.2892 H   0  0  0  0  0  0  0  0  0  0  0  0  # atno 10105 bound_to 10094
  221.7598   25.3654    9.3909 H   0  0  0  0  0  0  0  0  0  0  0  0  # atno 11425 bound_to 11414
  220.0878   28.0504    8.8288 H   0  0  0  0  0  0  0  0  0  0  0  0  # atno 11477 bound_to 11459
  224.7171   24.8990    1.9051 H   0  0  0  0  0  0  0  0  0  0  0  0  # atno 11805 bound_to 11781
  230.8007   27.7192    1.3344 H   0  0  0  0  0  0  0  0  0  0  0  0  # atno 16987 bound_to 16945
  228.0064   27.4133    6.8132 H   0  0  0  0  0  0  0  0  0  0  0  0  # atno 16995 bound_to 16956
  226.3954   32.3907    8.8155 H   0  0  0  0  0  0  0  0  0  0  0  0  # atno 17195 bound_to 17175
  223.5146   33.3104   10.6660 H   0  0  0  0  0  0  0  0  0  0  0  0  # atno 17251 bound_to 17219
  220.6173   31.1270   12.0400 H   0  0  0  0  0  0  0  0  0  0  0  0  # atno 17303 bound_to 17281
  220.7798   35.8544   12.2043 H   0  0  0  0  0  0  0  0  0  0  0  0  # atno 18243 bound_to 18203
  223.8083   36.9104   10.8302 H   0  0  0  0  0  0  0  0  0  0  0  0  # atno 18295 bound_to 18273
  224.5391   38.4985    8.3843 H   0  0  0  0  0  0  0  0  0  0  0  0  # atno 18299 bound_to 18278
  227.5849   37.1872   11.5743 H   0  0  0  0  0  0  0  0  0  0  0  0  # atno 18327 bound_to 18313
  231.8671   37.1484   11.2187 H   0  0  0  0  0  0  0  0  0  0  0  0  # atno 18409 bound_to 18361
  234.2594   34.8693    9.1358 H   0  0  0  0  0  0  0  0  0  0  0  0  # atno 18495 bound_to 18453
  230.0733   27.6995    7.8104 H   0  0  0  0  0  0  0  0  0  0  0  0  # atno 18503 bound_to 18464
  235.1884   33.0147   11.8367 H   0  0  0  0  0  0  0  0  0  0  0  0  # atno 18563 bound_to 18529
  237.4304   30.5114   11.1051 H   0  0  0  0  0  0  0  0  0  0  0  0  # atno 18603 bound_to 18589
  238.7619   27.7499   15.0592 H   0  0  0  0  0  0  0  0  0  0  0  0  # atno 18657 bound_to 18629
  236.2824   27.7055   12.0167 H   0  0  0  0  0  0  0  0  0  0  0  0  # atno 18713 bound_to 18683
  236.0892   25.9148   10.1609 H   0  0  0  0  0  0  0  0  0  0  0  0  # atno 18779 bound_to 18741
  237.2978   24.7451    9.4888 H   0  0  0  0  0  0  0  0  0  0  0  0  # atno 18823 bound_to 18809
  238.3885   22.2861    9.6173 H   0  0  0  0  0  0  0  0  0  0  0  0  # atno 18875 bound_to 18843
  236.4981   21.1525   12.1508 H   0  0  0  0  0  0  0  0  0  0  0  0  # atno 18963 bound_to 18915
  232.9318   21.8395   10.7563 H   0  0  0  0  0  0  0  0  0  0  0  0  # atno 19029 bound_to 19005
  235.1617   20.9083    8.4272 H   0  0  0  0  0  0  0  0  0  0  0  0  # atno 19103 bound_to 19061
  239.3165   34.4610    9.3616 H   0  0  0  0  0  0  0  0  0  0  0  0  # atno 22447 bound_to 22415
  227.5446   26.1133    5.9507 LP  0  0  0  0  0  0  0  0  0  0  0  0  # atno 27193 bound_to 16956
  226.4936   27.3339    6.2194 LP  0  0  0  0  0  0  0  0  0  0  0  0  # atno 27194 bound_to 16956
  229.9760   28.4109    6.3505 LP  0  0  0  0  0  0  0  0  0  0  0  0  # atno 27195 bound_to 18464
  229.1320   29.0117    7.6127 LP  0  0  0  0  0  0  0  0  0  0  0  0  # atno 27196 bound_to 18464
  234.9688   31.4399   11.1035 LP  0  0  0  0  0  0  0  0  0  0  0  0  # atno 27197 bound_to 18529
  236.0129   28.9951   12.0656 LP  0  0  0  0  0  0  0  0  0  0  0  0  # atno 27198 bound_to 18532
  236.0283   29.2508   10.3526 LP  0  0  0  0  0  0  0  0  0  0  0  0  # atno 27199 bound_to 18532
  235.8258   24.2637   11.7915 LP  0  0  0  0  0  0  0  0  0  0  0  0  # atno 27200 bound_to 18626
  237.3545   23.9172   12.5283 LP  0  0  0  0  0  0  0  0  0  0  0  0  # atno 27201 bound_to 18626
  236.7166   26.0343   12.2562 LP  0  0  0  0  0  0  0  0  0  0  0  0  # atno 27202 bound_to 18683
  233.0465   24.3964   11.2141 LP  0  0  0  0  0  0  0  0  0  0  0  0  # atno 27203 bound_to 18686
  234.0390   23.7499    9.9504 LP  0  0  0  0  0  0  0  0  0  0  0  0  # atno 27204 bound_to 18686
  234.4416   26.4361    9.9020 LP  0  0  0  0  0  0  0  0  0  0  0  0  # atno 27209 bound_to 18741
  235.7061   22.4709   11.3308 LP  0  0  0  0  0  0  0  0  0  0  0  0  # atno 27210 bound_to 18915
  234.4260   21.5113    9.9145 LP  0  0  0  0  0  0  0  0  0  0  0  0  # atno 27211 bound_to 19005
  226.5839   34.0677   10.1090 LP  0  0  0  0  0  0  0  0  0  0  0  0  # atno 27223 bound_to 17126
  227.4712   34.8273    8.8300 LP  0  0  0  0  0  0  0  0  0  0  0  0  # atno 27224 bound_to 17126
  225.6692   32.1703    7.2474 LP  0  0  0  0  0  0  0  0  0  0  0  0  # atno 27225 bound_to 17175
  224.2659   31.8559   10.0422 LP  0  0  0  0  0  0  0  0  0  0  0  0  # atno 27226 bound_to 17219
  225.2650   27.6083    4.9653 LP  0  0  0  0  0  0  0  0  0  0  0  0  # atno 27227 bound_to 11604
  225.3081   29.3356    4.8435 LP  0  0  0  0  0  0  0  0  0  0  0  0  # atno 27228 bound_to 11604
  226.3957   32.4834    5.7683 LP  0  0  0  0  0  0  0  0  0  0  0  0  # atno 27231 bound_to 17052
  227.4122   31.8223    4.5316 LP  0  0  0  0  0  0  0  0  0  0  0  0  # atno 27232 bound_to 17052
  236.5530   22.2781    7.6667 LP  0  0  0  0  0  0  0  0  0  0  0  0  # atno 27233 bound_to 18744
  234.9214   22.6805    8.0864 LP  0  0  0  0  0  0  0  0  0  0  0  0  # atno 27234 bound_to 18744
  237.3222   26.5609    9.6340 LP  0  0  0  0  0  0  0  0  0  0  0  0  # atno 27235 bound_to 18592
  238.9857   26.5359    9.1521 LP  0  0  0  0  0  0  0  0  0  0  0  0  # atno 27236 bound_to 18592
  236.9852   24.7383    7.7700 LP  0  0  0  0  0  0  0  0  0  0  0  0  # atno 27237 bound_to 18809
  232.9541   19.1706    9.6323 LP  0  0  0  0  0  0  0  0  0  0  0  0  # atno 27238 bound_to 18918
  233.5051   18.7050   11.2069 LP  0  0  0  0  0  0  0  0  0  0  0  0  # atno 27239 bound_to 18918
  232.1733   19.6251    6.4123 LP  0  0  0  0  0  0  0  0  0  0  0  0  # atno 27240 bound_to 19008
  232.6779   18.4856    7.6151 LP  0  0  0  0  0  0  0  0  0  0  0  0  # atno 27241 bound_to 19008
  233.7069   20.5265    7.5390 LP  0  0  0  0  0  0  0  0  0  0  0  0  # atno 27242 bound_to 19061
  221.5437   32.0080    9.0755 LP  0  0  0  0  0  0  0  0  0  0  0  0  # atno 27243 bound_to 17178
  222.6452   31.4254    7.8724 LP  0  0  0  0  0  0  0  0  0  0  0  0  # atno 27244 bound_to 17178
  232.0561   34.5218   11.6661 LP  0  0  0  0  0  0  0  0  0  0  0  0  # atno 27245 bound_to 18364
  233.6426   35.1763   11.8995 LP  0  0  0  0  0  0  0  0  0  0  0  0  # atno 27246 bound_to 18364
  232.6441   34.2042    9.0861 LP  0  0  0  0  0  0  0  0  0  0  0  0  # atno 27247 bound_to 18453
  221.4521   29.1787   10.5462 LP  0  0  0  0  0  0  0  0  0  0  0  0  # atno 27248 bound_to 11412
  220.3494   28.2769   11.5315 LP  0  0  0  0  0  0  0  0  0  0  0  0  # atno 27249 bound_to 11412
  223.9310   34.8317   11.9460 LP  0  0  0  0  0  0  0  0  0  0  0  0  # atno 27250 bound_to 18206
  223.9109   34.9695   10.2196 LP  0  0  0  0  0  0  0  0  0  0  0  0  # atno 27251 bound_to 18206
  221.6035   33.9440   11.1492 LP  0  0  0  0  0  0  0  0  0  0  0  0  # atno 27254 bound_to 17222
  220.2702   33.5171   12.1690 LP  0  0  0  0  0  0  0  0  0  0  0  0  # atno 27255 bound_to 17222
  224.6078   38.3836   11.3132 LP  0  0  0  0  0  0  0  0  0  0  0  0  # atno 27256 bound_to 18273
  228.0422   36.7924    9.9330 LP  0  0  0  0  0  0  0  0  0  0  0  0  # atno 27257 bound_to 18313
  230.5685   36.9566   10.0608 LP  0  0  0  0  0  0  0  0  0  0  0  0  # atno 27258 bound_to 18361
  230.6474   37.2108    7.9935 LP  0  0  0  0  0  0  0  0  0  0  0  0  # atno 27259 bound_to 18316
  229.6331   38.5343    8.4622 LP  0  0  0  0  0  0  0  0  0  0  0  0  # atno 27260 bound_to 18316
  236.6312   34.4080   11.0485 LP  0  0  0  0  0  0  0  0  0  0  0  0  # atno 27261 bound_to 18456
  236.6535   33.7835    9.4331 LP  0  0  0  0  0  0  0  0  0  0  0  0  # atno 27262 bound_to 18456
  234.1251   35.1649   19.0952 LP  0  0  0  0  0  0  0  0  0  0  0  0  # atno 27263 bound_to 7513
  227.5415   39.7284   10.5187 LP  0  0  0  0  0  0  0  0  0  0  0  0  # atno 27264 bound_to 18276
  226.2012   39.3808   11.5592 LP  0  0  0  0  0  0  0  0  0  0  0  0  # atno 27265 bound_to 18276
  232.0388   34.2057   20.6379 LP  0  0  0  0  0  0  0  0  0  0  0  0  # atno 27266 bound_to 7455
  231.2720   34.8434    5.3228 LP  0  0  0  0  0  0  0  0  0  0  0  0  # atno 27267 bound_to 17016
  232.4034   33.5330    5.2728 LP  0  0  0  0  0  0  0  0  0  0  0  0  # atno 27268 bound_to 17016
  239.1238   30.8371   11.3782 LP  0  0  0  0  0  0  0  0  0  0  0  0  # atno 27269 bound_to 18589
  230.4178   42.1817   12.0058 LP  0  0  0  0  0  0  0  0  0  0  0  0  # atno 27270 bound_to 10094
  229.7338   40.7128   11.8032 LP  0  0  0  0  0  0  0  0  0  0  0  0  # atno 27271 bound_to 10094
  225.7360   38.3217    7.2957 LP  0  0  0  0  0  0  0  0  0  0  0  0  # atno 27272 bound_to 18278
  226.0507   38.9696    8.7613 LP  0  0  0  0  0  0  0  0  0  0  0  0  # atno 27273 bound_to 18278
  221.4231   26.9894    8.4092 LP  0  0  0  0  0  0  0  0  0  0  0  0  # atno 27274 bound_to 11459
  231.6191   29.5331    3.6103 LP  0  0  0  0  0  0  0  0  0  0  0  0  # atno 27275 bound_to 16948
  232.1973   31.1339    3.9312 LP  0  0  0  0  0  0  0  0  0  0  0  0  # atno 27276 bound_to 16948

> <Gold.Score>
     Fitness  S(hb_ext) S(vdw_ext)  S(hb_int)    S(int)      intcor
     42.29       2.81      29.20       0.00      -0.67      -0.76

> <Gold.Goldscore.Fitness>
42.2874

> <Gold.Goldscore.Internal.Vdw>
-0.9753

> <Gold.Goldscore.Internal.Torsion>
-0.4523

> <Gold.Goldscore.External.Vdw>
29.1993

> <Gold.Goldscore.Internal.HBond>
0.0000

> <Gold.Goldscore.External.HBond>
2.8106

> <Gold.Goldscore.Internal.Correction>
-0.7554

> <Gold.Goldscore.Hbonds>
donor molecule, donor type, donor heavy atom, donor atom, acceptor molecule, acceptor atom, score
      P1  H 11466 11483       L1    17  0.31
      P1  H 16956 16995       L1    17  0.29
      P1  H 18464 18503       L1    17  0.03
      L1  H     8    22       P1 11467  0.26

> <Gold.Goldscore.Internal.Vdw.Weighted>
-0.9753

> <Gold.Goldscore.Internal.Torsion.Weighted>
-0.4523

> <Gold.Goldscore.External.Vdw.Weighted>
40.1490

> <Gold.Goldscore.Internal.HBond.Weighted>
0.0000

> <Gold.Goldscore.External.HBond.Weighted>
2.8106

> <Gold.Goldscore.Internal.Correction.Weighted>
-0.7554

> <Gold.Rescore>
     Score     S(PLP)   S(hbond)     S(cho)   S(metal)  DE(clash)   DE(tors)     intcor
     12.15      -9.03       1.09       0.00       0.00       0.00       0.08       ----

> <Gold.PLP.Fitness>
12.1468

> <Gold.PLP.PLP>
-9.0276

> <Gold.PLP.part.hbond>
-3.2464

> <Gold.PLP.part.metal>
0.0000

> <Gold.PLP.part.buried>
23.8093

> <Gold.PLP.part.nonpolar>
-41.6200

> <Gold.PLP.part.repulsive>
12.8479

> <Gold.PLP.ligand.clash>
0.0000

> <Gold.PLP.ligand.torsion>
0.0771

> <Gold.PLP.Chemscore.Hbond>
1.0912

> <Gold.PLP.Chemscore.CHOScore>
0.0000

> <Gold.PLP.Chemscore.Metal>
0.0000

> <Gold.Chemscore.Hbonds>
donor molecule, donor type, donor heavy atom, donor atom, acceptor molecule, acceptor atom, score
      L1  H     8    22       P1 11467  0.60
      P1  H 18464 18503       L1    17  0.56

> <Gold.PLP.Chemscore.Internal.Correction>
   9.000000E+99

