#       Name:                CT1002167954
#       Creating user name   hitesit
#       Creation time:       Sun Apr 16 22:59:39 2023


#       File generated by GOLD software.
#

@<TRIPOS>MOLECULE
CT1002167954|ligand_prepared|mol2|1|dock1
    29    30     1
SMALL
NO_CHARGES


@<TRIPOS>ATOM
      1 C1         225.1958  25.5601  13.1885 C.3            1 RES1               0.0000
      2 C2         226.5659  26.1308  12.7689 C.ar           1 RES1               0.0000
      3 C3         225.0845  25.7770  14.6948 C.2            1 RES1               0.0000
      4 C4         224.1516  26.3141  12.3726 C.2            1 RES1               0.0000
      5 C5         225.0318  24.0504  12.8961 C.3            1 RES1               0.0000
      6 C6         227.5924  25.2832  12.3632 C.ar           1 RES1               0.0000
      7 C7         226.8169  27.5003  12.7796 C.ar           1 RES1               0.0000
      8 N8         224.2446  26.7586  15.1314 N.am           1 RES1               0.0000
      9 O9         225.7534  25.1232  15.4856 O.2            1 RES1               0.0000
     10 N10        223.2774  27.1282  13.0439 N.am           1 RES1               0.0000
     11 O11        224.0886  26.2234  11.1527 O.2            1 RES1               0.0000
     12 C12        223.6368  23.5182  13.1840 C.3            1 RES1               0.0000
     13 C13        228.8243  25.7866  11.9794 C.ar           1 RES1               0.0000
     14 C14        228.0496  28.0016  12.3956 C.ar           1 RES1               0.0000
     15 C15        223.2962  27.4084  14.3831 C.2            1 RES1               0.0000
     16 C16        229.0536  27.1459  11.9948 C.ar           1 RES1               0.0000
     17 O17        222.5104  28.1941  14.9051 O.2            1 RES1               0.0000
     18 H18        225.2687  23.8674  11.8408 H              1 RES1               0.0000
     19 H19        225.7549  23.4925  13.5038 H              1 RES1               0.0000
     20 H20        227.4313  24.2105  12.3469 H              1 RES1               0.0000
     21 H21        226.0421  28.1922  13.0922 H              1 RES1               0.0000
     22 H22        224.3295  27.0353  16.1044 H              1 RES1               0.0000
     23 H23        222.5446  27.5658  12.4945 H              1 RES1               0.0000
     24 H24        223.5762  22.4548  12.9621 H              1 RES1               0.0000
     25 H25        223.3779  23.6610  14.2311 H              1 RES1               0.0000
     26 H26        222.8946  24.0337  12.5780 H              1 RES1               0.0000
     27 H27        229.6116  25.1089  11.6661 H              1 RES1               0.0000
     28 H28        228.2259  29.0721  12.4099 H              1 RES1               0.0000
     29 H29        230.0187  27.5400  11.6937 H              1 RES1               0.0000
@<TRIPOS>BOND
    1    1    2 1     
    2    1    3 1     
    3    1    4 1     
    4    1    5 1     
    5    2    6 ar    
    6    2    7 ar    
    7    3    8 1     
    8    3    9 2     
    9    4   10 1     
   10    4   11 2     
   11    5   12 1     
   12    5   18 1     
   13    5   19 1     
   14    6   13 ar    
   15    6   20 1     
   16    7   14 ar    
   17    7   21 1     
   18    8   15 1     
   19    8   22 1     
   20   10   15 1     
   21   10   23 1     
   22   12   24 1     
   23   12   25 1     
   24   12   26 1     
   25   13   16 ar    
   26   13   27 1     
   27   14   16 ar    
   28   14   28 1     
   29   15   17 2     
   30   16   29 1     
@<TRIPOS>SUBSTRUCTURE
      1 RES1           1
@<TRIPOS>SET
DONOR_HYDROGENS      STATIC     ATOMS    <user>   **** ""
2 22 23
ATOM$RED        STATIC     ATOMS    COLORGROUP SYSTEM
2 22 23
@<TRIPOS>COMMENT
> <Gold.Version>
2022.3.0

> <Gold.Id.Protein>
unknown|4d1n_clean|pdb

> <Gold.Protein.RotatedTorsions>
[ 16995 16956 16955 16953 ] final  131.67 input   60.02 | X-H torsion
[ 18503 18464 18463 18461 ] final   42.98 input   59.99 | X-H torsion
[ 18563 18529 18530 18531 ] final   43.65 input   85.91 | X-H torsion
[ 18713 18683 18684 18685 ] final   90.47 input  120.10 | X-H torsion
[ 18779 18741 18742 18743 ] final -163.49 input   94.66 | X-H torsion
[ 18963 18915 18916 18917 ] final   -1.62 input   99.61 | X-H torsion
[ 19029 19005 19006 19007 ] final   34.33 input  120.28 | X-H torsion
[ 17195 17175 17176 17177 ] final -154.99 input   50.47 | X-H torsion
[ 17251 17219 17220 17221 ] final -107.53 input  121.85 | X-H torsion
[ 18823 18809 18810 18811 ] final  158.75 input  109.66 | X-H torsion
[ 19103 19061 19062 19063 ] final  -16.22 input   93.64 | X-H torsion
[ 18495 18453 18454 18455 ] final -161.83 input  105.49 | X-H torsion
[ 18295 18273 18274 18275 ] final  173.64 input   34.55 | X-H torsion
[ 18327 18313 18314 18315 ] final -160.17 input   52.32 | X-H torsion
[ 18409 18361 18362 18363 ] final -168.66 input   29.77 | X-H torsion
[ 7524 7513 7514 7515 ] final  155.76 input   82.77 | X-H torsion
[ 7477 7455 7456 7457 ] final  -33.12 input   99.19 | X-H torsion
[ 18603 18589 18590 18591 ] final  171.54 input  124.64 | X-H torsion
[ 10105 10094 10093 10090 ] final  -61.13 input   59.99 | X-H torsion
[ 18299 18278 18277 18274 ] final   69.69 input   60.00 | X-H torsion
[ 11477 11459 11460 11461 ] final -144.67 input   48.11 | X-H torsion
[ 18657 18629 18627 18624 ] final  156.66 input   60.03 | X-H torsion
[ 11425 11414 11413 11410 ] final  131.67 input   60.02 | X-H torsion
[ 18875 18843 18844 18845 ] final  121.80 input   86.72 | X-H torsion
[ 17303 17281 17282 17283 ] final   18.07 input   51.85 | X-H torsion
[ 22447 22415 22416 22417 ] final   35.04 input   56.20 | X-H torsion
[ 18243 18203 18204 18205 ] final   89.68 input   41.90 | X-H torsion
[ 11805 11781 11782 11783 ] final   99.90 input   87.31 | X-H torsion
[ 16987 16945 16946 16947 ] final  -11.32 input   84.34 | X-H torsion
[ 27198 18532 18531 18530 ] final  -82.88 input   -0.00 | X-H torsion
[ 27200 18626 18625 18624 ] final  177.09 input    0.00 | X-H torsion
[ 27203 18686 18685 18684 ] final  154.59 input   -0.00 | X-H torsion
[ 27223 17126 17125 17124 ] final -175.88 input    0.00 | X-H torsion
[ 27227 11604 11603 11602 ] final  154.57 input    0.00 | X-H torsion
[ 27231 17052 17051 17050 ] final  -19.78 input   -0.00 | X-H torsion
[ 27233 18744 18743 18742 ] final  147.50 input   -0.00 | X-H torsion
[ 27235 18592 18591 18590 ] final  151.77 input   -0.00 | X-H torsion
[ 27238 18918 18917 18916 ] final -108.32 input    0.00 | X-H torsion
[ 27240 19008 19007 19006 ] final  -99.90 input    0.00 | X-H torsion
[ 27243 17178 17177 17176 ] final  130.65 input    0.00 | X-H torsion
[ 27245 18364 18363 18362 ] final   96.85 input    0.00 | X-H torsion
[ 27248 11412 11411 11410 ] final  -74.12 input   -0.00 | X-H torsion
[ 27250 18206 18205 18204 ] final  -24.16 input   -0.00 | X-H torsion
[ 27254 17222 17221 17220 ] final  113.72 input   -0.00 | X-H torsion
[ 27259 18316 18315 18314 ] final  139.00 input   -0.00 | X-H torsion
[ 27261 18456 18455 18454 ] final  -88.62 input    0.00 | X-H torsion
[ 27264 18276 18275 18274 ] final   32.27 input    0.00 | X-H torsion
[ 27267 17016 17015 17014 ] final   70.17 input    0.00 | X-H torsion
[ 27275 16948 16947 16946 ] final  147.42 input   -0.00 | X-H torsion

> <Gold.Protein.ActiveResidues>
 TRP414  CYS420  VAL421  GLY422  LEU460  SER462  SER482  GLN483  ILE485  ARG486 
 TYR487  ASP500  ASN503  TRP566  TYR567  GLY568  LEU569  PRO570  ALA571  VAL572 
 SER573  ASN574  PHE589  SER590  GLY591  TRP592  TYR593  MET594  GLY595  THR596 
 GLU597  ILE598  GLY599  VAL600  ARG601  ASP602  TYR603  ARG608  ILE653  VAL654 
 TRP683  PRO687  HEM750  H4B760 

> <Gold.Protein.RotatedAtoms>
  232.0619   34.2994   20.3169 H   0  0  0  0  0  0  0  0  0  0  0  0  # atno 7477 bound_to 7455
  233.4424   34.9759   18.6810 H   0  0  0  0  0  0  0  0  0  0  0  0  # atno 7524 bound_to 7513
  229.6352   40.6004   12.0991 H   0  0  0  0  0  0  0  0  0  0  0  0  # atno 10105 bound_to 10094
  221.7872   24.5262    9.9010 H   0  0  0  0  0  0  0  0  0  0  0  0  # atno 11425 bound_to 11414
  220.8351   27.8112    9.4591 H   0  0  0  0  0  0  0  0  0  0  0  0  # atno 11477 bound_to 11459
  225.6607   23.9287    2.8576 H   0  0  0  0  0  0  0  0  0  0  0  0  # atno 11805 bound_to 11781
  232.1574   28.5081    2.0705 H   0  0  0  0  0  0  0  0  0  0  0  0  # atno 16987 bound_to 16945
  226.6769   26.5179    5.8470 H   0  0  0  0  0  0  0  0  0  0  0  0  # atno 16995 bound_to 16956
  226.5121   33.0088    8.0342 H   0  0  0  0  0  0  0  0  0  0  0  0  # atno 17195 bound_to 17175
  223.9416   31.8834    9.7789 H   0  0  0  0  0  0  0  0  0  0  0  0  # atno 17251 bound_to 17219
  220.4539   30.2875   11.5443 H   0  0  0  0  0  0  0  0  0  0  0  0  # atno 17303 bound_to 17281
  221.1086   35.5036   12.0913 H   0  0  0  0  0  0  0  0  0  0  0  0  # atno 18243 bound_to 18203
  223.7625   37.0642   10.5996 H   0  0  0  0  0  0  0  0  0  0  0  0  # atno 18295 bound_to 18273
  226.3021   38.8722    8.3880 H   0  0  0  0  0  0  0  0  0  0  0  0  # atno 18299 bound_to 18278
  227.3945   37.5996   11.2247 H   0  0  0  0  0  0  0  0  0  0  0  0  # atno 18327 bound_to 18313
  230.9129   37.5763    9.9756 H   0  0  0  0  0  0  0  0  0  0  0  0  # atno 18409 bound_to 18361
  232.6463   34.1628    9.0057 H   0  0  0  0  0  0  0  0  0  0  0  0  # atno 18495 bound_to 18453
  229.3734   28.4959    8.1165 H   0  0  0  0  0  0  0  0  0  0  0  0  # atno 18503 bound_to 18464
  234.8064   31.3665   11.4908 H   0  0  0  0  0  0  0  0  0  0  0  0  # atno 18563 bound_to 18529
  238.6769   31.2607   10.7142 H   0  0  0  0  0  0  0  0  0  0  0  0  # atno 18603 bound_to 18589
  238.0644   26.8861   15.5443 H   0  0  0  0  0  0  0  0  0  0  0  0  # atno 18657 bound_to 18629
  236.3571   27.6008   11.6829 H   0  0  0  0  0  0  0  0  0  0  0  0  # atno 18713 bound_to 18683
  234.4760   26.5456    9.8373 H   0  0  0  0  0  0  0  0  0  0  0  0  # atno 18779 bound_to 18741
  237.6044   25.3440    8.1719 H   0  0  0  0  0  0  0  0  0  0  0  0  # atno 18823 bound_to 18809
  238.4089   23.4681   10.8708 H   0  0  0  0  0  0  0  0  0  0  0  0  # atno 18875 bound_to 18843
  236.0008   21.6958   10.8782 H   0  0  0  0  0  0  0  0  0  0  0  0  # atno 18963 bound_to 18915
  234.4434   21.5431    9.9030 H   0  0  0  0  0  0  0  0  0  0  0  0  # atno 19029 bound_to 19005
  234.2610   20.0679    8.5550 H   0  0  0  0  0  0  0  0  0  0  0  0  # atno 19103 bound_to 19061
  238.4367   34.2450   10.1042 H   0  0  0  0  0  0  0  0  0  0  0  0  # atno 22447 bound_to 22415
  227.1803   27.7963    6.7185 LP  0  0  0  0  0  0  0  0  0  0  0  0  # atno 27193 bound_to 16956
  228.1974   26.5529    6.4251 LP  0  0  0  0  0  0  0  0  0  0  0  0  # atno 27194 bound_to 16956
  230.3210   27.6587    7.0927 LP  0  0  0  0  0  0  0  0  0  0  0  0  # atno 27195 bound_to 18464
  229.4920   28.9617    6.5621 LP  0  0  0  0  0  0  0  0  0  0  0  0  # atno 27196 bound_to 18464
  235.3382   33.0338   11.4380 LP  0  0  0  0  0  0  0  0  0  0  0  0  # atno 27197 bound_to 18529
  236.2249   28.8146   11.9921 LP  0  0  0  0  0  0  0  0  0  0  0  0  # atno 27198 bound_to 18532
  235.8163   29.4312   10.4260 LP  0  0  0  0  0  0  0  0  0  0  0  0  # atno 27199 bound_to 18532
  235.7455   24.2746   12.1074 LP  0  0  0  0  0  0  0  0  0  0  0  0  # atno 27200 bound_to 18626
  237.4347   23.9063   12.2124 LP  0  0  0  0  0  0  0  0  0  0  0  0  # atno 27201 bound_to 18626
  236.6426   26.1381   12.5871 LP  0  0  0  0  0  0  0  0  0  0  0  0  # atno 27202 bound_to 18683
  233.4531   24.1592    9.7252 LP  0  0  0  0  0  0  0  0  0  0  0  0  # atno 27203 bound_to 18686
  233.6325   23.9870   11.4393 LP  0  0  0  0  0  0  0  0  0  0  0  0  # atno 27204 bound_to 18686
  236.0189   25.8194   10.2184 LP  0  0  0  0  0  0  0  0  0  0  0  0  # atno 27209 bound_to 18741
  236.1997   21.9317   12.5937 LP  0  0  0  0  0  0  0  0  0  0  0  0  # atno 27210 bound_to 18915
  232.9405   21.8027   10.7530 LP  0  0  0  0  0  0  0  0  0  0  0  0  # atno 27211 bound_to 19005
  226.1726   34.4744    9.6048 LP  0  0  0  0  0  0  0  0  0  0  0  0  # atno 27223 bound_to 17126
  227.8825   34.4206    9.3343 LP  0  0  0  0  0  0  0  0  0  0  0  0  # atno 27224 bound_to 17126
  225.5528   31.5546    8.0257 LP  0  0  0  0  0  0  0  0  0  0  0  0  # atno 27225 bound_to 17175
  223.8548   33.2297   10.8964 LP  0  0  0  0  0  0  0  0  0  0  0  0  # atno 27226 bound_to 17219
  225.0479   27.6748    5.1445 LP  0  0  0  0  0  0  0  0  0  0  0  0  # atno 27227 bound_to 11604
  225.5252   29.2691    4.6643 LP  0  0  0  0  0  0  0  0  0  0  0  0  # atno 27228 bound_to 11604
  226.7554   32.6848    4.4829 LP  0  0  0  0  0  0  0  0  0  0  0  0  # atno 27231 bound_to 17052
  227.0525   31.6209    5.8170 LP  0  0  0  0  0  0  0  0  0  0  0  0  # atno 27232 bound_to 17052
  236.5141   22.3262    7.5260 LP  0  0  0  0  0  0  0  0  0  0  0  0  # atno 27233 bound_to 18744
  234.9602   22.6324    8.2271 LP  0  0  0  0  0  0  0  0  0  0  0  0  # atno 27234 bound_to 18744
  238.4853   25.9726    9.9486 LP  0  0  0  0  0  0  0  0  0  0  0  0  # atno 27235 bound_to 18592
  237.8226   27.1242    8.8375 LP  0  0  0  0  0  0  0  0  0  0  0  0  # atno 27236 bound_to 18592
  236.6851   24.1522    9.0587 LP  0  0  0  0  0  0  0  0  0  0  0  0  # atno 27237 bound_to 18809
  233.8641   18.8988    9.8314 LP  0  0  0  0  0  0  0  0  0  0  0  0  # atno 27238 bound_to 18918
  232.5951   18.9768   11.0078 LP  0  0  0  0  0  0  0  0  0  0  0  0  # atno 27239 bound_to 18918
  232.6480   18.4952    7.6356 LP  0  0  0  0  0  0  0  0  0  0  0  0  # atno 27240 bound_to 19008
  232.2032   19.6155    6.3918 LP  0  0  0  0  0  0  0  0  0  0  0  0  # atno 27241 bound_to 19008
  234.5887   21.3493    7.4139 LP  0  0  0  0  0  0  0  0  0  0  0  0  # atno 27242 bound_to 19061
  222.2737   30.9570    8.8492 LP  0  0  0  0  0  0  0  0  0  0  0  0  # atno 27243 bound_to 17178
  221.9153   32.4763    8.0987 LP  0  0  0  0  0  0  0  0  0  0  0  0  # atno 27244 bound_to 17178
  232.1543   34.3475   11.6593 LP  0  0  0  0  0  0  0  0  0  0  0  0  # atno 27245 bound_to 18364
  233.5445   35.3506   11.9064 LP  0  0  0  0  0  0  0  0  0  0  0  0  # atno 27246 bound_to 18364
  234.2198   34.8943    9.2132 LP  0  0  0  0  0  0  0  0  0  0  0  0  # atno 27247 bound_to 18453
  220.1437   29.1427   10.9701 LP  0  0  0  0  0  0  0  0  0  0  0  0  # atno 27248 bound_to 11412
  221.6578   28.3129   11.1076 LP  0  0  0  0  0  0  0  0  0  0  0  0  # atno 27249 bound_to 11412
  223.3492   34.7760   11.7213 LP  0  0  0  0  0  0  0  0  0  0  0  0  # atno 27250 bound_to 18206
  224.4926   35.0253   10.4443 LP  0  0  0  0  0  0  0  0  0  0  0  0  # atno 27251 bound_to 18206
  220.7041   33.8164   10.8294 LP  0  0  0  0  0  0  0  0  0  0  0  0  # atno 27254 bound_to 17222
  221.1695   33.6447   12.4889 LP  0  0  0  0  0  0  0  0  0  0  0  0  # atno 27255 bound_to 17222
  224.6531   38.2317   11.5411 LP  0  0  0  0  0  0  0  0  0  0  0  0  # atno 27256 bound_to 18273
  228.2273   36.3915   10.2730 LP  0  0  0  0  0  0  0  0  0  0  0  0  # atno 27257 bound_to 18313
  231.4921   36.5425   11.2640 LP  0  0  0  0  0  0  0  0  0  0  0  0  # atno 27258 bound_to 18361
  230.9766   38.0597    8.1033 LP  0  0  0  0  0  0  0  0  0  0  0  0  # atno 27259 bound_to 18316
  229.3039   37.6855    8.3524 LP  0  0  0  0  0  0  0  0  0  0  0  0  # atno 27260 bound_to 18316
  236.9995   33.5116    9.7105 LP  0  0  0  0  0  0  0  0  0  0  0  0  # atno 27261 bound_to 18456
  236.2852   34.6799   10.7711 LP  0  0  0  0  0  0  0  0  0  0  0  0  # atno 27262 bound_to 18456
  233.3321   35.9969   20.0957 LP  0  0  0  0  0  0  0  0  0  0  0  0  # atno 27263 bound_to 7513
  226.0672   39.4077   11.3249 LP  0  0  0  0  0  0  0  0  0  0  0  0  # atno 27264 bound_to 18276
  227.6754   39.7016   10.7530 LP  0  0  0  0  0  0  0  0  0  0  0  0  # atno 27265 bound_to 18276
  232.6455   32.6520   20.3375 LP  0  0  0  0  0  0  0  0  0  0  0  0  # atno 27266 bound_to 7455
  232.0813   34.9048    4.8768 LP  0  0  0  0  0  0  0  0  0  0  0  0  # atno 27267 bound_to 17016
  231.5942   33.4716    5.7188 LP  0  0  0  0  0  0  0  0  0  0  0  0  # atno 27268 bound_to 17016
  237.8991   30.1010   11.7623 LP  0  0  0  0  0  0  0  0  0  0  0  0  # atno 27269 bound_to 18589
  229.9880   41.6625   13.2796 LP  0  0  0  0  0  0  0  0  0  0  0  0  # atno 27270 bound_to 10094
  230.3702   42.0036   11.7290 LP  0  0  0  0  0  0  0  0  0  0  0  0  # atno 27271 bound_to 10094
  224.7278   38.6892    8.7585 LP  0  0  0  0  0  0  0  0  0  0  0  0  # atno 27272 bound_to 18278
  225.2842   38.2259    7.2948 LP  0  0  0  0  0  0  0  0  0  0  0  0  # atno 27273 bound_to 18278
  220.7138   27.2165    7.8110 LP  0  0  0  0  0  0  0  0  0  0  0  0  # atno 27274 bound_to 11459
  232.5163   30.9497    3.7480 LP  0  0  0  0  0  0  0  0  0  0  0  0  # atno 27275 bound_to 16948
  231.3001   29.7173    3.7936 LP  0  0  0  0  0  0  0  0  0  0  0  0  # atno 27276 bound_to 16948

> <Gold.Score>
     Fitness  S(hb_ext) S(vdw_ext)  S(hb_int)    S(int)      intcor
     33.65       7.10      19.78       0.00      -0.66      -0.79

> <Gold.Goldscore.Fitness>
33.6457

> <Gold.Goldscore.Internal.Vdw>
-1.0321

> <Gold.Goldscore.Internal.Torsion>
-0.4152

> <Gold.Goldscore.External.Vdw>
19.7838

> <Gold.Goldscore.Internal.HBond>
0.0000

> <Gold.Goldscore.External.HBond>
7.0991

> <Gold.Goldscore.Internal.Correction>
-0.7912

> <Gold.Goldscore.Hbonds>
donor molecule, donor type, donor heavy atom, donor atom, acceptor molecule, acceptor atom, score
      P1  H 11466 11484       L1    11  0.16
      P1  H 17335 17361       L1    17  0.57
      L1  H     8    22       P1 26869  0.77
      L1  H    10    23       P1 11412  0.51

> <Gold.Goldscore.Internal.Vdw.Weighted>
-1.0321

> <Gold.Goldscore.Internal.Torsion.Weighted>
-0.4152

> <Gold.Goldscore.External.Vdw.Weighted>
27.2027

> <Gold.Goldscore.Internal.HBond.Weighted>
0.0000

> <Gold.Goldscore.External.HBond.Weighted>
7.0991

> <Gold.Goldscore.Internal.Correction.Weighted>
-0.7912

> <Gold.Rescore>
     Score     S(PLP)   S(hbond)     S(cho)   S(metal)  DE(clash)   DE(tors)     intcor
     15.49      -9.80       2.07       0.00       0.00       0.00       0.26       ----

> <Gold.PLP.Fitness>
15.4893

> <Gold.PLP.PLP>
-9.8003

> <Gold.PLP.part.hbond>
-1.9039

> <Gold.PLP.part.metal>
0.0000

> <Gold.PLP.part.buried>
5.4549

> <Gold.PLP.part.nonpolar>
-15.6214

> <Gold.PLP.part.repulsive>
0.4495

> <Gold.PLP.ligand.clash>
0.0000

> <Gold.PLP.ligand.torsion>
0.2643

> <Gold.PLP.Chemscore.Hbond>
2.0725

> <Gold.PLP.Chemscore.CHOScore>
0.0000

> <Gold.PLP.Chemscore.Metal>
0.0000

> <Gold.Chemscore.Hbonds>
donor molecule, donor type, donor heavy atom, donor atom, acceptor molecule, acceptor atom, score
      L1  H     8    22       P1 26869  1.00
      P1  H 11466 11484       L1    11  1.00
      P1  H 17335 17361       L1    17  1.00

> <Gold.PLP.Chemscore.Internal.Correction>
   9.000000E+99

