#       Name:                CT1002167954
#       Creating user name   hitesit
#       Creation time:       Sun Apr 16 22:59:47 2023


#       File generated by GOLD software.
#

@<TRIPOS>MOLECULE
CT1002167954|ligand_prepared|mol2|1|dock10
    29    30     1
SMALL
NO_CHARGES


@<TRIPOS>ATOM
      1 C1         228.7367  32.0743  13.1856 C.3            1 RES1               0.0000
      2 C2         228.0642  30.7107  13.4446 C.ar           1 RES1               0.0000
      3 C3         228.2458  32.5414  11.8185 C.2            1 RES1               0.0000
      4 C4         228.3212  32.9809  14.3389 C.2            1 RES1               0.0000
      5 C5         230.2818  32.0137  13.1583 C.3            1 RES1               0.0000
      6 C6         228.5565  29.5532  12.8492 C.ar           1 RES1               0.0000
      7 C7         226.9542  30.5943  14.2772 C.ar           1 RES1               0.0000
      8 N8         227.3322  33.5535  11.7871 N.am           1 RES1               0.0000
      9 O9         228.6246  32.0033  10.7854 O.2            1 RES1               0.0000
     10 N10        227.5288  34.0616  14.0527 N.am           1 RES1               0.0000
     11 O11        228.6591  32.7597  15.4953 O.2            1 RES1               0.0000
     12 C12        230.9439  33.3603  12.9126 C.3            1 RES1               0.0000
     13 C13        227.9628  28.3234  13.0800 C.ar           1 RES1               0.0000
     14 C14        226.3618  29.3634  14.5064 C.ar           1 RES1               0.0000
     15 C15        226.9902  34.3716  12.8337 C.2            1 RES1               0.0000
     16 C16        226.8654  28.2276  13.9090 C.ar           1 RES1               0.0000
     17 O17        226.2418  35.3303  12.6662 O.2            1 RES1               0.0000
     18 H18        230.6365  31.6155  14.1169 H              1 RES1               0.0000
     19 H19        230.5940  31.3177  12.3699 H              1 RES1               0.0000
     20 H20        229.4178  29.6094  12.1919 H              1 RES1               0.0000
     21 H21        226.5403  31.4746  14.7570 H              1 RES1               0.0000
     22 H22        226.8596  33.7171  10.9038 H              1 RES1               0.0000
     23 H23        227.3213  34.6936  14.8194 H              1 RES1               0.0000
     24 H24        232.0273  33.2614  12.9030 H              1 RES1               0.0000
     25 H25        230.6330  33.7742  11.9555 H              1 RES1               0.0000
     26 H26        230.6753  34.0702  13.6922 H              1 RES1               0.0000
     27 H27        228.3621  27.4327  12.6063 H              1 RES1               0.0000
     28 H28        225.4979  29.2928  15.1591 H              1 RES1               0.0000
     29 H29        226.4007  27.2640  14.0899 H              1 RES1               0.0000
@<TRIPOS>BOND
    1    1    2 1     
    2    1    3 1     
    3    1    4 1     
    4    1    5 1     
    5    2    6 ar    
    6    2    7 ar    
    7    3    8 1     
    8    3    9 2     
    9    4   10 1     
   10    4   11 2     
   11    5   12 1     
   12    5   18 1     
   13    5   19 1     
   14    6   13 ar    
   15    6   20 1     
   16    7   14 ar    
   17    7   21 1     
   18    8   15 1     
   19    8   22 1     
   20   10   15 1     
   21   10   23 1     
   22   12   24 1     
   23   12   25 1     
   24   12   26 1     
   25   13   16 ar    
   26   13   27 1     
   27   14   16 ar    
   28   14   28 1     
   29   15   17 2     
   30   16   29 1     
@<TRIPOS>SUBSTRUCTURE
      1 RES1           1
@<TRIPOS>SET
DONOR_HYDROGENS      STATIC     ATOMS    <user>   **** ""
2 22 23
ATOM$RED        STATIC     ATOMS    COLORGROUP SYSTEM
2 22 23
@<TRIPOS>COMMENT
> <Gold.Version>
2022.3.0

> <Gold.Id.Protein>
unknown|4d1n_clean|pdb

> <Gold.Protein.RotatedTorsions>
[ 16995 16956 16955 16953 ] final -143.49 input   60.02 | X-H torsion
[ 18503 18464 18463 18461 ] final -150.06 input   59.99 | X-H torsion
[ 18563 18529 18530 18531 ] final  -14.23 input   85.91 | X-H torsion
[ 18713 18683 18684 18685 ] final   52.58 input  120.10 | X-H torsion
[ 18779 18741 18742 18743 ] final -143.27 input   94.66 | X-H torsion
[ 18963 18915 18916 18917 ] final -152.40 input   99.61 | X-H torsion
[ 19029 19005 19006 19007 ] final  -83.63 input  120.28 | X-H torsion
[ 17195 17175 17176 17177 ] final  154.77 input   50.47 | X-H torsion
[ 17251 17219 17220 17221 ] final   27.58 input  121.85 | X-H torsion
[ 18823 18809 18810 18811 ] final  107.68 input  109.66 | X-H torsion
[ 19103 19061 19062 19063 ] final   22.88 input   93.64 | X-H torsion
[ 18495 18453 18454 18455 ] final  -26.55 input  105.49 | X-H torsion
[ 18295 18273 18274 18275 ] final   50.48 input   34.55 | X-H torsion
[ 18327 18313 18314 18315 ] final -158.26 input   52.32 | X-H torsion
[ 18409 18361 18362 18363 ] final  138.41 input   29.77 | X-H torsion
[ 7524 7513 7514 7515 ] final   40.78 input   82.77 | X-H torsion
[ 7477 7455 7456 7457 ] final  -77.94 input   99.19 | X-H torsion
[ 18603 18589 18590 18591 ] final -101.60 input  124.64 | X-H torsion
[ 10105 10094 10093 10090 ] final  147.65 input   59.99 | X-H torsion
[ 18299 18278 18277 18274 ] final -157.11 input   60.00 | X-H torsion
[ 11477 11459 11460 11461 ] final    7.90 input   48.11 | X-H torsion
[ 18657 18629 18627 18624 ] final  -58.25 input   60.03 | X-H torsion
[ 11425 11414 11413 11410 ] final   43.49 input   60.02 | X-H torsion
[ 18875 18843 18844 18845 ] final    0.53 input   86.72 | X-H torsion
[ 17303 17281 17282 17283 ] final  -68.96 input   51.85 | X-H torsion
[ 22447 22415 22416 22417 ] final   44.41 input   56.20 | X-H torsion
[ 18243 18203 18204 18205 ] final  142.56 input   41.90 | X-H torsion
[ 11805 11781 11782 11783 ] final -179.37 input   87.31 | X-H torsion
[ 16987 16945 16946 16947 ] final    3.93 input   84.34 | X-H torsion
[ 27198 18532 18531 18530 ] final  177.56 input   -0.00 | X-H torsion
[ 27200 18626 18625 18624 ] final  -75.77 input    0.00 | X-H torsion
[ 27203 18686 18685 18684 ] final  -54.31 input   -0.00 | X-H torsion
[ 27223 17126 17125 17124 ] final   42.83 input    0.00 | X-H torsion
[ 27227 11604 11603 11602 ] final   62.80 input    0.00 | X-H torsion
[ 27231 17052 17051 17050 ] final  -47.33 input   -0.00 | X-H torsion
[ 27233 18744 18743 18742 ] final  139.29 input   -0.00 | X-H torsion
[ 27235 18592 18591 18590 ] final -175.30 input   -0.00 | X-H torsion
[ 27238 18918 18917 18916 ] final   12.66 input    0.00 | X-H torsion
[ 27240 19008 19007 19006 ] final   48.91 input    0.00 | X-H torsion
[ 27243 17178 17177 17176 ] final  106.19 input    0.00 | X-H torsion
[ 27245 18364 18363 18362 ] final  178.29 input    0.00 | X-H torsion
[ 27248 11412 11411 11410 ] final -145.76 input   -0.00 | X-H torsion
[ 27250 18206 18205 18204 ] final  118.71 input   -0.00 | X-H torsion
[ 27254 17222 17221 17220 ] final -168.18 input   -0.00 | X-H torsion
[ 27259 18316 18315 18314 ] final -122.80 input   -0.00 | X-H torsion
[ 27261 18456 18455 18454 ] final -121.69 input    0.00 | X-H torsion
[ 27264 18276 18275 18274 ] final  -58.34 input    0.00 | X-H torsion
[ 27267 17016 17015 17014 ] final -113.49 input    0.00 | X-H torsion
[ 27275 16948 16947 16946 ] final  106.37 input   -0.00 | X-H torsion

> <Gold.Protein.ActiveResidues>
 TRP414  CYS420  VAL421  GLY422  LEU460  SER462  SER482  GLN483  ILE485  ARG486 
 TYR487  ASP500  ASN503  TRP566  TYR567  GLY568  LEU569  PRO570  ALA571  VAL572 
 SER573  ASN574  PHE589  SER590  GLY591  TRP592  TYR593  MET594  GLY595  THR596 
 GLU597  ILE598  GLY599  VAL600  ARG601  ASP602  TYR603  ARG608  ILE653  VAL654 
 TRP683  PRO687  HEM750  H4B760 

> <Gold.Protein.RotatedAtoms>
  232.0610   34.0340   20.9369 H   0  0  0  0  0  0  0  0  0  0  0  0  # atno 7477 bound_to 7455
  232.5681   35.7620   19.6014 H   0  0  0  0  0  0  0  0  0  0  0  0  # atno 7524 bound_to 7513
  230.2057   42.0457   13.0319 H   0  0  0  0  0  0  0  0  0  0  0  0  # atno 10105 bound_to 10094
  221.5418   25.5112    9.0842 H   0  0  0  0  0  0  0  0  0  0  0  0  # atno 11425 bound_to 11414
  220.3861   27.4816    7.8000 H   0  0  0  0  0  0  0  0  0  0  0  0  # atno 11477 bound_to 11459
  225.5082   24.7633    2.0672 H   0  0  0  0  0  0  0  0  0  0  0  0  # atno 11805 bound_to 11781
  231.9983   28.4614    2.2363 H   0  0  0  0  0  0  0  0  0  0  0  0  # atno 16987 bound_to 16945
  227.8703   26.2062    6.1171 H   0  0  0  0  0  0  0  0  0  0  0  0  # atno 16995 bound_to 16956
  226.1839   32.8523    7.3886 H   0  0  0  0  0  0  0  0  0  0  0  0  # atno 17195 bound_to 17175
  223.3514   33.2671   10.4559 H   0  0  0  0  0  0  0  0  0  0  0  0  # atno 17251 bound_to 17219
  220.7197   31.3888   11.9788 H   0  0  0  0  0  0  0  0  0  0  0  0  # atno 17303 bound_to 17281
  220.5961   36.0994   12.1365 H   0  0  0  0  0  0  0  0  0  0  0  0  # atno 18243 bound_to 18203
  224.3862   38.4631   10.7897 H   0  0  0  0  0  0  0  0  0  0  0  0  # atno 18295 bound_to 18273
  225.0829   38.2117    7.3720 H   0  0  0  0  0  0  0  0  0  0  0  0  # atno 18299 bound_to 18278
  227.3893   37.6149   11.1998 H   0  0  0  0  0  0  0  0  0  0  0  0  # atno 18327 bound_to 18313
  231.5179   37.8538   10.4063 H   0  0  0  0  0  0  0  0  0  0  0  0  # atno 18409 bound_to 18361
  233.8464   34.9811    9.7567 H   0  0  0  0  0  0  0  0  0  0  0  0  # atno 18495 bound_to 18453
  229.9687   28.4226    6.3563 H   0  0  0  0  0  0  0  0  0  0  0  0  # atno 18503 bound_to 18464
  235.1953   31.6575   10.7795 H   0  0  0  0  0  0  0  0  0  0  0  0  # atno 18563 bound_to 18529
  237.5487   30.8262   10.7830 H   0  0  0  0  0  0  0  0  0  0  0  0  # atno 18603 bound_to 18589
  238.3115   28.0656   14.2252 H   0  0  0  0  0  0  0  0  0  0  0  0  # atno 18657 bound_to 18629
  236.5229   27.1919   11.3247 H   0  0  0  0  0  0  0  0  0  0  0  0  # atno 18713 bound_to 18683
  234.3807   26.2873    9.9803 H   0  0  0  0  0  0  0  0  0  0  0  0  # atno 18779 bound_to 18741
  237.7240   25.3300    8.9236 H   0  0  0  0  0  0  0  0  0  0  0  0  # atno 18823 bound_to 18809
  237.3503   22.7425   10.0135 H   0  0  0  0  0  0  0  0  0  0  0  0  # atno 18875 bound_to 18843
  236.3880   21.5410   12.5191 H   0  0  0  0  0  0  0  0  0  0  0  0  # atno 18963 bound_to 18915
  233.2980   20.9781   10.7076 H   0  0  0  0  0  0  0  0  0  0  0  0  # atno 19029 bound_to 19005
  234.7631   20.3413    8.7035 H   0  0  0  0  0  0  0  0  0  0  0  0  # atno 19103 bound_to 19061
  238.3418   34.3285   10.1738 H   0  0  0  0  0  0  0  0  0  0  0  0  # atno 22447 bound_to 22415
  226.4568   27.0075    6.0312 LP  0  0  0  0  0  0  0  0  0  0  0  0  # atno 27193 bound_to 16956
  227.7185   27.6557    6.8403 LP  0  0  0  0  0  0  0  0  0  0  0  0  # atno 27194 bound_to 16956
  229.1328   29.0059    7.6243 LP  0  0  0  0  0  0  0  0  0  0  0  0  # atno 27195 bound_to 18464
  230.0806   27.6883    7.8038 LP  0  0  0  0  0  0  0  0  0  0  0  0  # atno 27196 bound_to 18464
  234.9621   32.7523   12.1259 LP  0  0  0  0  0  0  0  0  0  0  0  0  # atno 27197 bound_to 18529
  236.5904   28.6825   10.7280 LP  0  0  0  0  0  0  0  0  0  0  0  0  # atno 27198 bound_to 18532
  235.4508   29.5633   11.6901 LP  0  0  0  0  0  0  0  0  0  0  0  0  # atno 27199 bound_to 18532
  236.8915   24.0419   11.3495 LP  0  0  0  0  0  0  0  0  0  0  0  0  # atno 27200 bound_to 18626
  236.2888   24.1390   12.9703 LP  0  0  0  0  0  0  0  0  0  0  0  0  # atno 27201 bound_to 18626
  236.4781   26.5435   12.9422 LP  0  0  0  0  0  0  0  0  0  0  0  0  # atno 27202 bound_to 18683
  233.9635   23.7641   11.2733 LP  0  0  0  0  0  0  0  0  0  0  0  0  # atno 27203 bound_to 18686
  233.1220   24.3821    9.8913 LP  0  0  0  0  0  0  0  0  0  0  0  0  # atno 27204 bound_to 18686
  236.1120   26.0719   10.0786 LP  0  0  0  0  0  0  0  0  0  0  0  0  # atno 27209 bound_to 18741
  235.8154   22.0853   10.9654 LP  0  0  0  0  0  0  0  0  0  0  0  0  # atno 27210 bound_to 18915
  234.0661   22.3578    9.9623 LP  0  0  0  0  0  0  0  0  0  0  0  0  # atno 27211 bound_to 19005
  227.6351   34.7384    8.9252 LP  0  0  0  0  0  0  0  0  0  0  0  0  # atno 27223 bound_to 17126
  226.4200   34.1566   10.0139 LP  0  0  0  0  0  0  0  0  0  0  0  0  # atno 27224 bound_to 17126
  225.8798   31.7105    8.6688 LP  0  0  0  0  0  0  0  0  0  0  0  0  # atno 27225 bound_to 17175
  224.4231   31.8976   10.2445 LP  0  0  0  0  0  0  0  0  0  0  0  0  # atno 27226 bound_to 17219
  224.6755   28.8333    5.4004 LP  0  0  0  0  0  0  0  0  0  0  0  0  # atno 27227 bound_to 11604
  225.8977   28.1106    4.4084 LP  0  0  0  0  0  0  0  0  0  0  0  0  # atno 27228 bound_to 11604
  226.5164   32.8352    4.7835 LP  0  0  0  0  0  0  0  0  0  0  0  0  # atno 27231 bound_to 17052
  227.2915   31.4705    5.5164 LP  0  0  0  0  0  0  0  0  0  0  0  0  # atno 27232 bound_to 17052
  236.4649   22.3686    7.4203 LP  0  0  0  0  0  0  0  0  0  0  0  0  # atno 27233 bound_to 18744
  235.0095   22.5901    8.3328 LP  0  0  0  0  0  0  0  0  0  0  0  0  # atno 27234 bound_to 18744
  238.0072   26.0086   10.0542 LP  0  0  0  0  0  0  0  0  0  0  0  0  # atno 27235 bound_to 18592
  238.3006   27.0882    8.7319 LP  0  0  0  0  0  0  0  0  0  0  0  0  # atno 27236 bound_to 18592
  236.5681   24.1659    8.3231 LP  0  0  0  0  0  0  0  0  0  0  0  0  # atno 27237 bound_to 18809
  233.3757   18.7294   11.2474 LP  0  0  0  0  0  0  0  0  0  0  0  0  # atno 27238 bound_to 18918
  233.0835   19.1462    9.5918 LP  0  0  0  0  0  0  0  0  0  0  0  0  # atno 27239 bound_to 18918
  231.8749   19.6555    6.7196 LP  0  0  0  0  0  0  0  0  0  0  0  0  # atno 27240 bound_to 19008
  232.9763   18.4551    7.3078 LP  0  0  0  0  0  0  0  0  0  0  0  0  # atno 27241 bound_to 19008
  234.0971   21.0817    7.2684 LP  0  0  0  0  0  0  0  0  0  0  0  0  # atno 27242 bound_to 19061
  222.4780   30.9435    8.5449 LP  0  0  0  0  0  0  0  0  0  0  0  0  # atno 27243 bound_to 17178
  221.7109   32.4899    8.4030 LP  0  0  0  0  0  0  0  0  0  0  0  0  # atno 27244 bound_to 17178
  233.2488   34.0814   11.7493 LP  0  0  0  0  0  0  0  0  0  0  0  0  # atno 27245 bound_to 18364
  232.4500   35.6167   11.8163 LP  0  0  0  0  0  0  0  0  0  0  0  0  # atno 27246 bound_to 18364
  233.0475   34.0950    8.4797 LP  0  0  0  0  0  0  0  0  0  0  0  0  # atno 27247 bound_to 18453
  221.0095   29.4088   10.5150 LP  0  0  0  0  0  0  0  0  0  0  0  0  # atno 27248 bound_to 11412
  220.7921   28.0468   11.5627 LP  0  0  0  0  0  0  0  0  0  0  0  0  # atno 27249 bound_to 11412
  223.9896   34.9792   10.2231 LP  0  0  0  0  0  0  0  0  0  0  0  0  # atno 27250 bound_to 18206
  223.8522   34.8220   11.9425 LP  0  0  0  0  0  0  0  0  0  0  0  0  # atno 27251 bound_to 18206
  220.0890   33.5570   11.6925 LP  0  0  0  0  0  0  0  0  0  0  0  0  # atno 27254 bound_to 17222
  221.7846   33.9042   11.6257 LP  0  0  0  0  0  0  0  0  0  0  0  0  # atno 27255 bound_to 17222
  224.0369   36.8497   11.3533 LP  0  0  0  0  0  0  0  0  0  0  0  0  # atno 27256 bound_to 18273
  228.2324   36.3767   10.2971 LP  0  0  0  0  0  0  0  0  0  0  0  0  # atno 27257 bound_to 18313
  230.9066   36.2739   10.8471 LP  0  0  0  0  0  0  0  0  0  0  0  0  # atno 27258 bound_to 18361
  230.1749   37.0262    8.0477 LP  0  0  0  0  0  0  0  0  0  0  0  0  # atno 27259 bound_to 18316
  230.1056   38.7189    8.4080 LP  0  0  0  0  0  0  0  0  0  0  0  0  # atno 27260 bound_to 18316
  237.2098   33.4476   10.1517 LP  0  0  0  0  0  0  0  0  0  0  0  0  # atno 27261 bound_to 18456
  236.0750   34.7439   10.3300 LP  0  0  0  0  0  0  0  0  0  0  0  0  # atno 27262 bound_to 18456
  234.1842   35.2308   19.1986 LP  0  0  0  0  0  0  0  0  0  0  0  0  # atno 27263 bound_to 7513
  226.5743   39.6663   10.2331 LP  0  0  0  0  0  0  0  0  0  0  0  0  # atno 27264 bound_to 18276
  227.1683   39.4430   11.8448 LP  0  0  0  0  0  0  0  0  0  0  0  0  # atno 27265 bound_to 18276
  232.6464   32.9111   19.7323 LP  0  0  0  0  0  0  0  0  0  0  0  0  # atno 27266 bound_to 7455
  231.5473   33.4977    5.7324 LP  0  0  0  0  0  0  0  0  0  0  0  0  # atno 27267 bound_to 17016
  232.1281   34.8787    4.8632 LP  0  0  0  0  0  0  0  0  0  0  0  0  # atno 27268 bound_to 17016
  239.0075   30.5278   11.6948 LP  0  0  0  0  0  0  0  0  0  0  0  0  # atno 27269 bound_to 18589
  230.2104   41.5989   11.4678 LP  0  0  0  0  0  0  0  0  0  0  0  0  # atno 27270 bound_to 10094
  229.5727   40.6106   12.6006 LP  0  0  0  0  0  0  0  0  0  0  0  0  # atno 27271 bound_to 10094
  226.3578   38.8076    8.1895 LP  0  0  0  0  0  0  0  0  0  0  0  0  # atno 27272 bound_to 18278
  224.8815   38.7725    8.8866 LP  0  0  0  0  0  0  0  0  0  0  0  0  # atno 27273 bound_to 18278
  221.1400   27.5293    9.3856 LP  0  0  0  0  0  0  0  0  0  0  0  0  # atno 27274 bound_to 11459
  232.7231   30.4371    3.4965 LP  0  0  0  0  0  0  0  0  0  0  0  0  # atno 27275 bound_to 16948
  231.0933   30.2299    4.0451 LP  0  0  0  0  0  0  0  0  0  0  0  0  # atno 27276 bound_to 16948

> <Gold.Score>
     Fitness  S(hb_ext) S(vdw_ext)  S(hb_int)    S(int)      intcor
     36.76       4.24      25.05       0.00      -1.93      -0.76

> <Gold.Goldscore.Fitness>
36.7596

> <Gold.Goldscore.Internal.Vdw>
-2.3184

> <Gold.Goldscore.Internal.Torsion>
-0.3662

> <Gold.Goldscore.External.Vdw>
25.0515

> <Gold.Goldscore.Internal.HBond>
0.0000

> <Gold.Goldscore.External.HBond>
4.2431

> <Gold.Goldscore.Internal.Correction>
-0.7554

> <Gold.Goldscore.Hbonds>
donor molecule, donor type, donor heavy atom, donor atom, acceptor molecule, acceptor atom, score
      P1  M 26885 27277       L1    11  0.41
      L1  H     8    22       P1 17126  0.09

> <Gold.Goldscore.Internal.Vdw.Weighted>
-2.3184

> <Gold.Goldscore.Internal.Torsion.Weighted>
-0.3662

> <Gold.Goldscore.External.Vdw.Weighted>
34.4458

> <Gold.Goldscore.Internal.HBond.Weighted>
0.0000

> <Gold.Goldscore.External.HBond.Weighted>
4.2431

> <Gold.Goldscore.Internal.Correction.Weighted>
-0.7554

> <Gold.Rescore>
     Score     S(PLP)   S(hbond)     S(cho)   S(metal)  DE(clash)   DE(tors)     intcor
     33.35     -28.53       0.16       0.00       1.00       1.35       0.15       ----

> <Gold.PLP.Fitness>
33.3521

> <Gold.PLP.PLP>
-28.5303

> <Gold.PLP.part.hbond>
-2.4281

> <Gold.PLP.part.metal>
-0.8699

> <Gold.PLP.part.buried>
22.6064

> <Gold.PLP.part.nonpolar>
-56.8739

> <Gold.PLP.part.repulsive>
6.5302

> <Gold.PLP.ligand.clash>
1.3459

> <Gold.PLP.ligand.torsion>
0.1513

> <Gold.PLP.Chemscore.Hbond>
0.1568

> <Gold.PLP.Chemscore.CHOScore>
0.0000

> <Gold.PLP.Chemscore.Metal>
1.0000

> <Gold.Chemscore.Hbonds>
donor molecule, donor type, donor heavy atom, donor atom, acceptor molecule, acceptor atom, score
      L1  H     8    22       P1 17126  0.98
      P1  M 26885 26885       L1    11  1.00

> <Gold.PLP.Chemscore.Internal.Correction>
   9.000000E+99

