#       Name:                CT1002167954
#       Creating user name   hitesit
#       Creation time:       Sun Apr 16 22:59:44 2023


#       File generated by GOLD software.
#

@<TRIPOS>MOLECULE
CT1002167954|ligand_prepared|mol2|1|dock7
    29    30     1
SMALL
NO_CHARGES


@<TRIPOS>ATOM
      1 C1         229.0887  25.9220  12.1882 C.3            1 RES1               0.0000
      2 C2         227.8585  26.5945  12.8310 C.ar           1 RES1               0.0000
      3 C3         228.6611  24.5026  11.8267 C.2            1 RES1               0.0000
      4 C4         229.4667  26.7827  10.9877 C.2            1 RES1               0.0000
      5 C5         230.3171  25.8417  13.1241 C.3            1 RES1               0.0000
      6 C6         227.9729  27.8339  13.4535 C.ar           1 RES1               0.0000
      7 C7         226.6044  25.9900  12.8071 C.ar           1 RES1               0.0000
      8 N8         228.4486  24.2230  10.5089 N.am           1 RES1               0.0000
      9 O9         228.4748  23.6524  12.6885 O.2            1 RES1               0.0000
     10 N10        229.3390  26.2339   9.7386 N.am           1 RES1               0.0000
     11 O11        229.8582  27.9367  11.1113 O.2            1 RES1               0.0000
     12 C12        231.5056  25.1146  12.5149 C.3            1 RES1               0.0000
     13 C13        226.8729  28.4482  14.0288 C.ar           1 RES1               0.0000
     14 C14        225.5057  26.6060  13.3832 C.ar           1 RES1               0.0000
     15 C15        228.8179  25.0036   9.4431 C.2            1 RES1               0.0000
     16 C16        225.6386  27.8350  13.9936 C.ar           1 RES1               0.0000
     17 O17        228.6848  24.6016   8.2909 O.2            1 RES1               0.0000
     18 H18        230.6251  26.8602  13.3908 H              1 RES1               0.0000
     19 H19        230.0243  25.3273  14.0478 H              1 RES1               0.0000
     20 H20        228.9366  28.3305  13.4931 H              1 RES1               0.0000
     21 H21        226.4765  25.0227  12.3333 H              1 RES1               0.0000
     22 H22        227.9709  23.3530  10.2962 H              1 RES1               0.0000
     23 H23        229.6624  26.7944   8.9565 H              1 RES1               0.0000
     24 H24        232.3398  25.0867  13.2128 H              1 RES1               0.0000
     25 H25        231.2420  24.0901  12.2607 H              1 RES1               0.0000
     26 H26        231.8393  25.6138  11.6076 H              1 RES1               0.0000
     27 H27        226.9830  29.4148  14.5092 H              1 RES1               0.0000
     28 H28        224.5364  26.1195  13.3538 H              1 RES1               0.0000
     29 H29        224.7770  28.3166  14.4440 H              1 RES1               0.0000
@<TRIPOS>BOND
    1    1    2 1     
    2    1    3 1     
    3    1    4 1     
    4    1    5 1     
    5    2    6 ar    
    6    2    7 ar    
    7    3    8 1     
    8    3    9 2     
    9    4   10 1     
   10    4   11 2     
   11    5   12 1     
   12    5   18 1     
   13    5   19 1     
   14    6   13 ar    
   15    6   20 1     
   16    7   14 ar    
   17    7   21 1     
   18    8   15 1     
   19    8   22 1     
   20   10   15 1     
   21   10   23 1     
   22   12   24 1     
   23   12   25 1     
   24   12   26 1     
   25   13   16 ar    
   26   13   27 1     
   27   14   16 ar    
   28   14   28 1     
   29   15   17 2     
   30   16   29 1     
@<TRIPOS>SUBSTRUCTURE
      1 RES1           1
@<TRIPOS>SET
DONOR_HYDROGENS      STATIC     ATOMS    <user>   **** ""
2 22 23
ATOM$RED        STATIC     ATOMS    COLORGROUP SYSTEM
2 22 23
@<TRIPOS>COMMENT
> <Gold.Version>
2022.3.0

> <Gold.Id.Protein>
unknown|4d1n_clean|pdb

> <Gold.Protein.RotatedTorsions>
[ 16995 16956 16955 16953 ] final   -6.95 input   60.02 | X-H torsion
[ 18503 18464 18463 18461 ] final  141.08 input   59.99 | X-H torsion
[ 18563 18529 18530 18531 ] final -175.90 input   85.91 | X-H torsion
[ 18713 18683 18684 18685 ] final   57.31 input  120.10 | X-H torsion
[ 18779 18741 18742 18743 ] final  -43.47 input   94.66 | X-H torsion
[ 18963 18915 18916 18917 ] final -129.40 input   99.61 | X-H torsion
[ 19029 19005 19006 19007 ] final  -32.68 input  120.28 | X-H torsion
[ 17195 17175 17176 17177 ] final  -90.76 input   50.47 | X-H torsion
[ 17251 17219 17220 17221 ] final -130.92 input  121.85 | X-H torsion
[ 18823 18809 18810 18811 ] final   43.58 input  109.66 | X-H torsion
[ 19103 19061 19062 19063 ] final  113.45 input   93.64 | X-H torsion
[ 18495 18453 18454 18455 ] final  -94.41 input  105.49 | X-H torsion
[ 18295 18273 18274 18275 ] final   56.92 input   34.55 | X-H torsion
[ 18327 18313 18314 18315 ] final   65.11 input   52.32 | X-H torsion
[ 18409 18361 18362 18363 ] final   70.67 input   29.77 | X-H torsion
[ 7524 7513 7514 7515 ] final   76.74 input   82.77 | X-H torsion
[ 7477 7455 7456 7457 ] final  123.32 input   99.19 | X-H torsion
[ 18603 18589 18590 18591 ] final  -36.87 input  124.64 | X-H torsion
[ 10105 10094 10093 10090 ] final  123.34 input   59.99 | X-H torsion
[ 18299 18278 18277 18274 ] final   44.59 input   60.00 | X-H torsion
[ 11477 11459 11460 11461 ] final  -11.24 input   48.11 | X-H torsion
[ 18657 18629 18627 18624 ] final -135.60 input   60.03 | X-H torsion
[ 11425 11414 11413 11410 ] final  130.39 input   60.02 | X-H torsion
[ 18875 18843 18844 18845 ] final   23.29 input   86.72 | X-H torsion
[ 17303 17281 17282 17283 ] final  -41.17 input   51.85 | X-H torsion
[ 22447 22415 22416 22417 ] final -178.90 input   56.20 | X-H torsion
[ 18243 18203 18204 18205 ] final  -94.84 input   41.90 | X-H torsion
[ 11805 11781 11782 11783 ] final   26.55 input   87.31 | X-H torsion
[ 16987 16945 16946 16947 ] final  -33.00 input   84.34 | X-H torsion
[ 27198 18532 18531 18530 ] final  -68.18 input   -0.00 | X-H torsion
[ 27200 18626 18625 18624 ] final   56.86 input    0.00 | X-H torsion
[ 27203 18686 18685 18684 ] final -175.95 input   -0.00 | X-H torsion
[ 27223 17126 17125 17124 ] final   52.61 input    0.00 | X-H torsion
[ 27227 11604 11603 11602 ] final  -11.62 input    0.00 | X-H torsion
[ 27231 17052 17051 17050 ] final  -96.58 input   -0.00 | X-H torsion
[ 27233 18744 18743 18742 ] final   -7.54 input   -0.00 | X-H torsion
[ 27235 18592 18591 18590 ] final   44.02 input   -0.00 | X-H torsion
[ 27238 18918 18917 18916 ] final   68.80 input    0.00 | X-H torsion
[ 27240 19008 19007 19006 ] final  102.67 input    0.00 | X-H torsion
[ 27243 17178 17177 17176 ] final  -73.23 input    0.00 | X-H torsion
[ 27245 18364 18363 18362 ] final  -82.37 input    0.00 | X-H torsion
[ 27248 11412 11411 11410 ] final   57.85 input   -0.00 | X-H torsion
[ 27250 18206 18205 18204 ] final   47.74 input   -0.00 | X-H torsion
[ 27254 17222 17221 17220 ] final    4.50 input   -0.00 | X-H torsion
[ 27259 18316 18315 18314 ] final   42.22 input   -0.00 | X-H torsion
[ 27261 18456 18455 18454 ] final  145.57 input    0.00 | X-H torsion
[ 27264 18276 18275 18274 ] final   88.05 input    0.00 | X-H torsion
[ 27267 17016 17015 17014 ] final  -64.03 input    0.00 | X-H torsion
[ 27275 16948 16947 16946 ] final  153.74 input   -0.00 | X-H torsion

> <Gold.Protein.ActiveResidues>
 TRP414  CYS420  VAL421  GLY422  LEU460  SER462  SER482  GLN483  ILE485  ARG486 
 TYR487  ASP500  ASN503  TRP566  TYR567  GLY568  LEU569  PRO570  ALA571  VAL572 
 SER573  ASN574  PHE589  SER590  GLY591  TRP592  TYR593  MET594  GLY595  THR596 
 GLU597  ILE598  GLY599  VAL600  ARG601  ASP602  TYR603  ARG608  ILE653  VAL654 
 TRP683  PRO687  HEM750  H4B760 

> <Gold.Protein.RotatedAtoms>
  232.6834   32.7170   19.9880 H   0  0  0  0  0  0  0  0  0  0  0  0  # atno 7477 bound_to 7455
  232.5360   35.4465   19.1562 H   0  0  0  0  0  0  0  0  0  0  0  0  # atno 7524 bound_to 7513
  230.3375   42.2234   12.7059 H   0  0  0  0  0  0  0  0  0  0  0  0  # atno 10105 bound_to 10094
  221.7947   24.5453    9.8977 H   0  0  0  0  0  0  0  0  0  0  0  0  # atno 11425 bound_to 11414
  220.1906   27.6579    7.9428 H   0  0  0  0  0  0  0  0  0  0  0  0  # atno 11477 bound_to 11459
  224.6599   23.6336    3.0909 H   0  0  0  0  0  0  0  0  0  0  0  0  # atno 11805 bound_to 11781
  232.3084   28.5273    1.7753 H   0  0  0  0  0  0  0  0  0  0  0  0  # atno 16987 bound_to 16945
  227.4703   27.7546    6.7997 H   0  0  0  0  0  0  0  0  0  0  0  0  # atno 16995 bound_to 16956
  226.4320   32.4664    8.7827 H   0  0  0  0  0  0  0  0  0  0  0  0  # atno 17195 bound_to 17175
  224.2184   31.8126   10.0006 H   0  0  0  0  0  0  0  0  0  0  0  0  # atno 17251 bound_to 17219
  220.5741   30.9958   12.0369 H   0  0  0  0  0  0  0  0  0  0  0  0  # atno 17303 bound_to 17281
  220.7747   36.4477   10.6357 H   0  0  0  0  0  0  0  0  0  0  0  0  # atno 18243 bound_to 18203
  224.3391   38.4384   10.7069 H   0  0  0  0  0  0  0  0  0  0  0  0  # atno 18295 bound_to 18273
  226.0853   38.9587    8.7215 H   0  0  0  0  0  0  0  0  0  0  0  0  # atno 18299 bound_to 18278
  228.2408   36.2304   10.9270 H   0  0  0  0  0  0  0  0  0  0  0  0  # atno 18327 bound_to 18313
  231.8902   37.3027   11.1416 H   0  0  0  0  0  0  0  0  0  0  0  0  # atno 18409 bound_to 18361
  232.9232   34.6377    9.8186 H   0  0  0  0  0  0  0  0  0  0  0  0  # atno 18495 bound_to 18453
  229.3090   29.0954    6.8379 H   0  0  0  0  0  0  0  0  0  0  0  0  # atno 18503 bound_to 18464
  235.1069   32.9413   11.9765 H   0  0  0  0  0  0  0  0  0  0  0  0  # atno 18563 bound_to 18529
  237.5780   30.2195   11.5041 H   0  0  0  0  0  0  0  0  0  0  0  0  # atno 18603 bound_to 18589
  238.7380   27.6130   15.2167 H   0  0  0  0  0  0  0  0  0  0  0  0  # atno 18657 bound_to 18629
  236.5010   27.2549   11.3526 H   0  0  0  0  0  0  0  0  0  0  0  0  # atno 18713 bound_to 18683
  235.2874   25.4032   10.4527 H   0  0  0  0  0  0  0  0  0  0  0  0  # atno 18779 bound_to 18741
  237.2834   24.7286    9.4912 H   0  0  0  0  0  0  0  0  0  0  0  0  # atno 18823 bound_to 18809
  237.3147   22.9826   10.2648 H   0  0  0  0  0  0  0  0  0  0  0  0  # atno 18875 bound_to 18843
  236.4742   21.2716   12.3148 H   0  0  0  0  0  0  0  0  0  0  0  0  # atno 18963 bound_to 18915
  233.9471   20.8332   10.3448 H   0  0  0  0  0  0  0  0  0  0  0  0  # atno 19029 bound_to 19005
  235.1008   21.2843    7.9484 H   0  0  0  0  0  0  0  0  0  0  0  0  # atno 19103 bound_to 19061
  238.6706   35.8827    9.7511 H   0  0  0  0  0  0  0  0  0  0  0  0  # atno 22447 bound_to 22415
  228.0591   26.3374    6.2591 LP  0  0  0  0  0  0  0  0  0  0  0  0  # atno 27193 bound_to 16956
  226.5193   26.7659    5.9247 LP  0  0  0  0  0  0  0  0  0  0  0  0  # atno 27194 bound_to 16956
  229.5732   28.2058    8.1742 LP  0  0  0  0  0  0  0  0  0  0  0  0  # atno 27195 bound_to 18464
  230.3047   27.8106    6.7687 LP  0  0  0  0  0  0  0  0  0  0  0  0  # atno 27196 bound_to 18464
  235.0477   31.5109   10.9684 LP  0  0  0  0  0  0  0  0  0  0  0  0  # atno 27197 bound_to 18529
  236.0629   28.9512   12.0568 LP  0  0  0  0  0  0  0  0  0  0  0  0  # atno 27198 bound_to 18532
  235.9783   29.2946   10.3613 LP  0  0  0  0  0  0  0  0  0  0  0  0  # atno 27199 bound_to 18532
  236.9679   23.9926   12.9330 LP  0  0  0  0  0  0  0  0  0  0  0  0  # atno 27200 bound_to 18626
  236.2123   24.1883   11.3868 LP  0  0  0  0  0  0  0  0  0  0  0  0  # atno 27201 bound_to 18626
  236.4999   26.4810   12.9146 LP  0  0  0  0  0  0  0  0  0  0  0  0  # atno 27202 bound_to 18683
  233.8129   23.9103    9.7757 LP  0  0  0  0  0  0  0  0  0  0  0  0  # atno 27203 bound_to 18686
  233.2726   24.2359   11.3888 LP  0  0  0  0  0  0  0  0  0  0  0  0  # atno 27204 bound_to 18686
  235.2256   26.9363    9.6167 LP  0  0  0  0  0  0  0  0  0  0  0  0  # atno 27209 bound_to 18741
  235.7298   22.3527   11.1680 LP  0  0  0  0  0  0  0  0  0  0  0  0  # atno 27210 bound_to 18915
  233.4282   22.5002   10.3189 LP  0  0  0  0  0  0  0  0  0  0  0  0  # atno 27211 bound_to 19005
  227.5228   34.8031    8.8545 LP  0  0  0  0  0  0  0  0  0  0  0  0  # atno 27223 bound_to 17126
  226.5323   34.0919   10.0846 LP  0  0  0  0  0  0  0  0  0  0  0  0  # atno 27224 bound_to 17126
  225.6327   32.0949    7.2801 LP  0  0  0  0  0  0  0  0  0  0  0  0  # atno 27225 bound_to 17175
  223.5883   33.2980   10.6829 LP  0  0  0  0  0  0  0  0  0  0  0  0  # atno 27226 bound_to 17219
  225.3705   29.3265    4.7915 LP  0  0  0  0  0  0  0  0  0  0  0  0  # atno 27227 bound_to 11604
  225.2026   27.6174    5.0173 LP  0  0  0  0  0  0  0  0  0  0  0  0  # atno 27228 bound_to 11604
  226.3315   32.7178    5.4711 LP  0  0  0  0  0  0  0  0  0  0  0  0  # atno 27231 bound_to 17052
  227.4764   31.5879    4.8288 LP  0  0  0  0  0  0  0  0  0  0  0  0  # atno 27232 bound_to 17052
  234.9109   22.7386    7.8717 LP  0  0  0  0  0  0  0  0  0  0  0  0  # atno 27233 bound_to 18744
  236.5635   22.2200    7.8814 LP  0  0  0  0  0  0  0  0  0  0  0  0  # atno 27234 bound_to 18744
  238.7972   26.8229    8.8823 LP  0  0  0  0  0  0  0  0  0  0  0  0  # atno 27235 bound_to 18592
  237.5106   26.2739    9.9038 LP  0  0  0  0  0  0  0  0  0  0  0  0  # atno 27236 bound_to 18592
  236.9993   24.7544    7.7677 LP  0  0  0  0  0  0  0  0  0  0  0  0  # atno 27237 bound_to 18809
  232.6236   18.9633   11.0377 LP  0  0  0  0  0  0  0  0  0  0  0  0  # atno 27238 bound_to 18918
  233.8356   18.9122    9.8015 LP  0  0  0  0  0  0  0  0  0  0  0  0  # atno 27239 bound_to 18918
  232.4874   19.4829    6.2632 LP  0  0  0  0  0  0  0  0  0  0  0  0  # atno 27240 bound_to 19008
  232.3638   18.6277    7.7643 LP  0  0  0  0  0  0  0  0  0  0  0  0  # atno 27241 bound_to 19008
  233.7665   20.1585    8.0077 LP  0  0  0  0  0  0  0  0  0  0  0  0  # atno 27242 bound_to 19061
  221.7151   32.4912    8.3955 LP  0  0  0  0  0  0  0  0  0  0  0  0  # atno 27243 bound_to 17178
  222.4739   30.9421    8.5524 LP  0  0  0  0  0  0  0  0  0  0  0  0  # atno 27244 bound_to 17178
  233.5375   35.3601   11.9065 LP  0  0  0  0  0  0  0  0  0  0  0  0  # atno 27245 bound_to 18364
  232.1613   34.3380   11.6591 LP  0  0  0  0  0  0  0  0  0  0  0  0  # atno 27246 bound_to 18364
  233.9493   34.4304    8.4192 LP  0  0  0  0  0  0  0  0  0  0  0  0  # atno 27247 bound_to 18453
  221.1351   28.0192   11.4782 LP  0  0  0  0  0  0  0  0  0  0  0  0  # atno 27248 bound_to 11412
  220.6665   29.4364   10.5995 LP  0  0  0  0  0  0  0  0  0  0  0  0  # atno 27249 bound_to 11412
  223.1337   34.8292   10.7289 LP  0  0  0  0  0  0  0  0  0  0  0  0  # atno 27250 bound_to 18206
  224.7081   34.9720   11.4367 LP  0  0  0  0  0  0  0  0  0  0  0  0  # atno 27251 bound_to 18206
  221.7852   33.8869   11.7348 LP  0  0  0  0  0  0  0  0  0  0  0  0  # atno 27254 bound_to 17222
  220.0884   33.5742   11.5834 LP  0  0  0  0  0  0  0  0  0  0  0  0  # atno 27255 bound_to 17222
  224.0835   36.8741   11.4351 LP  0  0  0  0  0  0  0  0  0  0  0  0  # atno 27256 bound_to 18273
  227.4046   37.7226   10.5623 LP  0  0  0  0  0  0  0  0  0  0  0  0  # atno 27257 bound_to 18313
  230.5462   36.8073   10.1355 LP  0  0  0  0  0  0  0  0  0  0  0  0  # atno 27258 bound_to 18361
  229.8872   38.6729    8.4411 LP  0  0  0  0  0  0  0  0  0  0  0  0  # atno 27259 bound_to 18316
  230.3934   37.0723    8.0146 LP  0  0  0  0  0  0  0  0  0  0  0  0  # atno 27260 bound_to 18316
  236.8320   34.2018   11.0792 LP  0  0  0  0  0  0  0  0  0  0  0  0  # atno 27261 bound_to 18456
  236.4528   33.9897    9.4025 LP  0  0  0  0  0  0  0  0  0  0  0  0  # atno 27262 bound_to 18456
  234.2155   35.5383   19.6325 LP  0  0  0  0  0  0  0  0  0  0  0  0  # atno 27263 bound_to 7513
  226.6718   39.3810   11.8636 LP  0  0  0  0  0  0  0  0  0  0  0  0  # atno 27264 bound_to 18276
  227.0708   39.7283   10.2143 LP  0  0  0  0  0  0  0  0  0  0  0  0  # atno 27265 bound_to 18276
  232.0389   34.1968   20.6585 LP  0  0  0  0  0  0  0  0  0  0  0  0  # atno 27266 bound_to 7455
  232.1995   33.4123    5.4283 LP  0  0  0  0  0  0  0  0  0  0  0  0  # atno 27267 bound_to 17016
  231.4759   34.9641    5.1672 LP  0  0  0  0  0  0  0  0  0  0  0  0  # atno 27268 bound_to 17016
  238.9788   31.1239   10.9863 LP  0  0  0  0  0  0  0  0  0  0  0  0  # atno 27269 bound_to 18589
  230.0402   41.2410   11.4439 LP  0  0  0  0  0  0  0  0  0  0  0  0  # atno 27270 bound_to 10094
  229.6102   40.7895   12.9531 LP  0  0  0  0  0  0  0  0  0  0  0  0  # atno 27271 bound_to 10094
  224.5444   38.5212    8.4328 LP  0  0  0  0  0  0  0  0  0  0  0  0  # atno 27272 bound_to 18278
  225.6858   38.3067    7.2848 LP  0  0  0  0  0  0  0  0  0  0  0  0  # atno 27273 bound_to 18278
  221.3255   27.3619    9.2501 LP  0  0  0  0  0  0  0  0  0  0  0  0  # atno 27274 bound_to 11459
  232.4529   31.0065    3.7912 LP  0  0  0  0  0  0  0  0  0  0  0  0  # atno 27275 bound_to 16948
  231.3635   29.6606    3.7504 LP  0  0  0  0  0  0  0  0  0  0  0  0  # atno 27276 bound_to 16948

> <Gold.Score>
     Fitness  S(hb_ext) S(vdw_ext)  S(hb_int)    S(int)      intcor
     37.01       6.10      23.68       0.00      -1.65      -0.77

> <Gold.Goldscore.Fitness>
37.0125

> <Gold.Goldscore.Internal.Vdw>
-2.0313

> <Gold.Goldscore.Internal.Torsion>
-0.3835

> <Gold.Goldscore.External.Vdw>
23.6814

> <Gold.Goldscore.Internal.HBond>
0.0000

> <Gold.Goldscore.External.HBond>
6.0960

> <Gold.Goldscore.Internal.Correction>
-0.7693

> <Gold.Goldscore.Hbonds>
donor molecule, donor type, donor heavy atom, donor atom, acceptor molecule, acceptor atom, score
      P1  H 19345 19394       L1    17  0.85
      L1  H    10    23       P1 18464  0.49

> <Gold.Goldscore.Internal.Vdw.Weighted>
-2.0313

> <Gold.Goldscore.Internal.Torsion.Weighted>
-0.3835

> <Gold.Goldscore.External.Vdw.Weighted>
32.5620

> <Gold.Goldscore.Internal.HBond.Weighted>
0.0000

> <Gold.Goldscore.External.HBond.Weighted>
6.0960

> <Gold.Goldscore.Internal.Correction.Weighted>
-0.7693

> <Gold.Rescore>
     Score     S(PLP)   S(hbond)     S(cho)   S(metal)  DE(clash)   DE(tors)     intcor
     14.37     -11.45       1.54       0.00       0.00       1.10       0.30       ----

> <Gold.PLP.Fitness>
14.3720

> <Gold.PLP.PLP>
-11.4473

> <Gold.PLP.part.hbond>
-3.5957

> <Gold.PLP.part.metal>
0.0000

> <Gold.PLP.part.buried>
7.0710

> <Gold.PLP.part.nonpolar>
-19.4833

> <Gold.PLP.part.repulsive>
4.2634

> <Gold.PLP.ligand.clash>
1.1039

> <Gold.PLP.ligand.torsion>
0.2979

> <Gold.PLP.Chemscore.Hbond>
1.5414

> <Gold.PLP.Chemscore.CHOScore>
0.0000

> <Gold.PLP.Chemscore.Metal>
0.0000

> <Gold.Chemscore.Hbonds>
donor molecule, donor type, donor heavy atom, donor atom, acceptor molecule, acceptor atom, score
      L1  H    10    23       P1 18464  0.19
      P1  H 19345 19394       L1    17  1.00

> <Gold.PLP.Chemscore.Internal.Correction>
   9.000000E+99

