#       Name:                CT1002167954
#       Creating user name   hitesit
#       Creation time:       Sun Apr 16 22:59:42 2023


#       File generated by GOLD software.
#

@<TRIPOS>MOLECULE
CT1002167954|ligand_prepared|mol2|1|dock4
    29    30     1
SMALL
NO_CHARGES


@<TRIPOS>ATOM
      1 C1         228.3548  31.6232  13.5960 C.3            1 RES1               0.0000
      2 C2         228.0170  30.1670  13.2164 C.ar           1 RES1               0.0000
      3 C3         229.8255  31.6299  14.0024 C.2            1 RES1               0.0000
      4 C4         228.0456  32.4677  12.3649 C.2            1 RES1               0.0000
      5 C5         227.5171  32.1720  14.7745 C.3            1 RES1               0.0000
      6 C6         227.0467  29.4584  13.9186 C.ar           1 RES1               0.0000
      7 C7         228.6642  29.5208  12.1665 C.ar           1 RES1               0.0000
      8 N8         230.7190  32.1810  13.1318 N.am           1 RES1               0.0000
      9 O9         230.2006  31.1239  15.0528 O.2            1 RES1               0.0000
     10 N10        229.0914  33.0871  11.7320 N.am           1 RES1               0.0000
     11 O11        226.9080  32.5889  11.9273 O.2            1 RES1               0.0000
     12 C12        227.8154  33.6236  15.1151 C.3            1 RES1               0.0000
     13 C13        226.7326  28.1522  13.5817 C.ar           1 RES1               0.0000
     14 C14        228.3487  28.2145  11.8313 C.ar           1 RES1               0.0000
     15 C15        230.4178  32.9571  12.0415 C.2            1 RES1               0.0000
     16 C16        227.3830  27.5296  12.5377 C.ar           1 RES1               0.0000
     17 O17        231.3049  33.5026  11.3914 O.2            1 RES1               0.0000
     18 H18        226.4530  32.0794  14.5246 H              1 RES1               0.0000
     19 H19        227.7082  31.5548  15.6611 H              1 RES1               0.0000
     20 H20        226.5261  29.9311  14.7448 H              1 RES1               0.0000
     21 H21        229.4282  30.0398  11.5975 H              1 RES1               0.0000
     22 H22        231.7021  31.9992  13.3076 H              1 RES1               0.0000
     23 H23        228.8595  33.7022  10.9585 H              1 RES1               0.0000
     24 H24        227.2010  33.9584  15.9483 H              1 RES1               0.0000
     25 H25        228.8600  33.7478  15.3931 H              1 RES1               0.0000
     26 H26        227.6123  34.2692  14.2633 H              1 RES1               0.0000
     27 H27        225.9727  27.6171  14.1416 H              1 RES1               0.0000
     28 H28        228.8636  27.7281  11.0093 H              1 RES1               0.0000
     29 H29        227.1364  26.5065  12.2737 H              1 RES1               0.0000
@<TRIPOS>BOND
    1    1    2 1     
    2    1    3 1     
    3    1    4 1     
    4    1    5 1     
    5    2    6 ar    
    6    2    7 ar    
    7    3    8 1     
    8    3    9 2     
    9    4   10 1     
   10    4   11 2     
   11    5   12 1     
   12    5   18 1     
   13    5   19 1     
   14    6   13 ar    
   15    6   20 1     
   16    7   14 ar    
   17    7   21 1     
   18    8   15 1     
   19    8   22 1     
   20   10   15 1     
   21   10   23 1     
   22   12   24 1     
   23   12   25 1     
   24   12   26 1     
   25   13   16 ar    
   26   13   27 1     
   27   14   16 ar    
   28   14   28 1     
   29   15   17 2     
   30   16   29 1     
@<TRIPOS>SUBSTRUCTURE
      1 RES1           1
@<TRIPOS>SET
DONOR_HYDROGENS      STATIC     ATOMS    <user>   **** ""
2 22 23
ATOM$RED        STATIC     ATOMS    COLORGROUP SYSTEM
2 22 23
@<TRIPOS>COMMENT
> <Gold.Version>
2022.3.0

> <Gold.Id.Protein>
unknown|4d1n_clean|pdb

> <Gold.Protein.RotatedTorsions>
[ 16995 16956 16955 16953 ] final  -81.44 input   60.02 | X-H torsion
[ 18503 18464 18463 18461 ] final  -52.67 input   59.99 | X-H torsion
[ 18563 18529 18530 18531 ] final  163.91 input   85.91 | X-H torsion
[ 18713 18683 18684 18685 ] final  174.75 input  120.10 | X-H torsion
[ 18779 18741 18742 18743 ] final  154.20 input   94.66 | X-H torsion
[ 18963 18915 18916 18917 ] final    2.96 input   99.61 | X-H torsion
[ 19029 19005 19006 19007 ] final  147.17 input  120.28 | X-H torsion
[ 17195 17175 17176 17177 ] final  129.56 input   50.47 | X-H torsion
[ 17251 17219 17220 17221 ] final  106.78 input  121.85 | X-H torsion
[ 18823 18809 18810 18811 ] final -153.45 input  109.66 | X-H torsion
[ 19103 19061 19062 19063 ] final  -88.38 input   93.64 | X-H torsion
[ 18495 18453 18454 18455 ] final   53.11 input  105.49 | X-H torsion
[ 18295 18273 18274 18275 ] final  109.18 input   34.55 | X-H torsion
[ 18327 18313 18314 18315 ] final   73.08 input   52.32 | X-H torsion
[ 18409 18361 18362 18363 ] final -119.33 input   29.77 | X-H torsion
[ 7524 7513 7514 7515 ] final -177.68 input   82.77 | X-H torsion
[ 7477 7455 7456 7457 ] final -164.25 input   99.19 | X-H torsion
[ 18603 18589 18590 18591 ] final -133.64 input  124.64 | X-H torsion
[ 10105 10094 10093 10090 ] final   21.94 input   59.99 | X-H torsion
[ 18299 18278 18277 18274 ] final  -52.77 input   60.00 | X-H torsion
[ 11477 11459 11460 11461 ] final  176.71 input   48.11 | X-H torsion
[ 18657 18629 18627 18624 ] final   55.27 input   60.03 | X-H torsion
[ 11425 11414 11413 11410 ] final   60.32 input   60.02 | X-H torsion
[ 18875 18843 18844 18845 ] final   95.13 input   86.72 | X-H torsion
[ 17303 17281 17282 17283 ] final -128.05 input   51.85 | X-H torsion
[ 22447 22415 22416 22417 ] final    8.61 input   56.20 | X-H torsion
[ 18243 18203 18204 18205 ] final  -87.10 input   41.90 | X-H torsion
[ 11805 11781 11782 11783 ] final   15.70 input   87.31 | X-H torsion
[ 16987 16945 16946 16947 ] final   -1.13 input   84.34 | X-H torsion
[ 27198 18532 18531 18530 ] final   29.05 input   -0.00 | X-H torsion
[ 27200 18626 18625 18624 ] final   51.39 input    0.00 | X-H torsion
[ 27203 18686 18685 18684 ] final  -41.59 input   -0.00 | X-H torsion
[ 27223 17126 17125 17124 ] final  -76.87 input    0.00 | X-H torsion
[ 27227 11604 11603 11602 ] final -134.74 input    0.00 | X-H torsion
[ 27231 17052 17051 17050 ] final   90.43 input   -0.00 | X-H torsion
[ 27233 18744 18743 18742 ] final   88.84 input   -0.00 | X-H torsion
[ 27235 18592 18591 18590 ] final  161.92 input   -0.00 | X-H torsion
[ 27238 18918 18917 18916 ] final  172.97 input    0.00 | X-H torsion
[ 27240 19008 19007 19006 ] final  123.61 input    0.00 | X-H torsion
[ 27243 17178 17177 17176 ] final   -7.26 input    0.00 | X-H torsion
[ 27245 18364 18363 18362 ] final  -17.90 input    0.00 | X-H torsion
[ 27248 11412 11411 11410 ] final -104.53 input   -0.00 | X-H torsion
[ 27250 18206 18205 18204 ] final  -89.86 input   -0.00 | X-H torsion
[ 27254 17222 17221 17220 ] final  146.75 input   -0.00 | X-H torsion
[ 27259 18316 18315 18314 ] final -159.70 input   -0.00 | X-H torsion
[ 27261 18456 18455 18454 ] final  169.55 input    0.00 | X-H torsion
[ 27264 18276 18275 18274 ] final -175.49 input    0.00 | X-H torsion
[ 27267 17016 17015 17014 ] final -172.48 input    0.00 | X-H torsion
[ 27275 16948 16947 16946 ] final   68.24 input   -0.00 | X-H torsion

> <Gold.Protein.ActiveResidues>
 TRP414  CYS420  VAL421  GLY422  LEU460  SER462  SER482  GLN483  ILE485  ARG486 
 TYR487  ASP500  ASN503  TRP566  TYR567  GLY568  LEU569  PRO570  ALA571  VAL572 
 SER573  ASN574  PHE589  SER590  GLY591  TRP592  TYR593  MET594  GLY595  THR596 
 GLU597  ILE598  GLY599  VAL600  ARG601  ASP602  TYR603  ARG608  ILE653  VAL654 
 TRP683  PRO687  HEM750  H4B760 

> <Gold.Protein.RotatedAtoms>
  232.4629   32.8943   20.9940 H   0  0  0  0  0  0  0  0  0  0  0  0  # atno 7477 bound_to 7455
  233.8291   35.0086   18.8031 H   0  0  0  0  0  0  0  0  0  0  0  0  # atno 7524 bound_to 7513
  230.1693   41.5157   11.4540 H   0  0  0  0  0  0  0  0  0  0  0  0  # atno 10105 bound_to 10094
  221.6994   25.4290    9.2926 H   0  0  0  0  0  0  0  0  0  0  0  0  # atno 11425 bound_to 11414
  221.3070   27.4682    9.3382 H   0  0  0  0  0  0  0  0  0  0  0  0  # atno 11477 bound_to 11459
  224.5025   23.6756    3.0446 H   0  0  0  0  0  0  0  0  0  0  0  0  # atno 11805 bound_to 11781
  232.0552   28.4798    2.1862 H   0  0  0  0  0  0  0  0  0  0  0  0  # atno 16987 bound_to 16945
  228.2328   26.9323    6.6386 H   0  0  0  0  0  0  0  0  0  0  0  0  # atno 16995 bound_to 16956
  225.9601   32.5950    7.2191 H   0  0  0  0  0  0  0  0  0  0  0  0  # atno 17195 bound_to 17175
  224.2443   32.9420   11.0813 H   0  0  0  0  0  0  0  0  0  0  0  0  # atno 17251 bound_to 17219
  221.0336   31.8537   11.3153 H   0  0  0  0  0  0  0  0  0  0  0  0  # atno 17303 bound_to 17281
  220.8515   36.3779   10.5769 H   0  0  0  0  0  0  0  0  0  0  0  0  # atno 18243 bound_to 18203
  223.9483   37.9247   10.2817 H   0  0  0  0  0  0  0  0  0  0  0  0  # atno 18295 bound_to 18273
  224.7084   38.6705    8.7276 H   0  0  0  0  0  0  0  0  0  0  0  0  # atno 18299 bound_to 18278
  228.2107   36.2523   11.0445 H   0  0  0  0  0  0  0  0  0  0  0  0  # atno 18327 bound_to 18313
  230.5560   36.9282   10.0370 H   0  0  0  0  0  0  0  0  0  0  0  0  # atno 18409 bound_to 18361
  234.2292   34.6779    8.7350 H   0  0  0  0  0  0  0  0  0  0  0  0  # atno 18495 bound_to 18453
  230.2371   27.6182    7.4778 H   0  0  0  0  0  0  0  0  0  0  0  0  # atno 18503 bound_to 18464
  234.9631   32.7436   12.1704 H   0  0  0  0  0  0  0  0  0  0  0  0  # atno 18563 bound_to 18529
  237.8908   31.1092   10.5852 H   0  0  0  0  0  0  0  0  0  0  0  0  # atno 18603 bound_to 18589
  237.1318   27.0594   14.4485 H   0  0  0  0  0  0  0  0  0  0  0  0  # atno 18657 bound_to 18629
  236.2763   27.3540   12.8284 H   0  0  0  0  0  0  0  0  0  0  0  0  # atno 18713 bound_to 18683
  234.9583   26.9085    9.6315 H   0  0  0  0  0  0  0  0  0  0  0  0  # atno 18779 bound_to 18741
  237.1744   24.9456    7.7617 H   0  0  0  0  0  0  0  0  0  0  0  0  # atno 18823 bound_to 18809
  238.0010   23.4886   10.8583 H   0  0  0  0  0  0  0  0  0  0  0  0  # atno 18875 bound_to 18843
  235.9709   21.7590   10.8758 H   0  0  0  0  0  0  0  0  0  0  0  0  # atno 18963 bound_to 18915
  233.4279   22.5161   10.3213 H   0  0  0  0  0  0  0  0  0  0  0  0  # atno 19029 bound_to 19005
  233.6746   20.3225    7.7352 H   0  0  0  0  0  0  0  0  0  0  0  0  # atno 19103 bound_to 19061
  238.7407   34.1230    9.8670 H   0  0  0  0  0  0  0  0  0  0  0  0  # atno 22447 bound_to 22415
  227.0101   26.2367    5.8211 LP  0  0  0  0  0  0  0  0  0  0  0  0  # atno 27193 bound_to 16956
  226.8001   27.6951    6.5250 LP  0  0  0  0  0  0  0  0  0  0  0  0  # atno 27194 bound_to 16956
  229.7396   28.7101    6.3791 LP  0  0  0  0  0  0  0  0  0  0  0  0  # atno 27195 bound_to 18464
  229.2034   28.7945    7.9192 LP  0  0  0  0  0  0  0  0  0  0  0  0  # atno 27196 bound_to 18464
  235.1867   31.7020   10.7808 LP  0  0  0  0  0  0  0  0  0  0  0  0  # atno 27197 bound_to 18529
  235.3764   29.7005   11.2468 LP  0  0  0  0  0  0  0  0  0  0  0  0  # atno 27198 bound_to 18532
  236.6648   28.5454   11.1713 LP  0  0  0  0  0  0  0  0  0  0  0  0  # atno 27199 bound_to 18532
  237.0383   23.9782   12.8924 LP  0  0  0  0  0  0  0  0  0  0  0  0  # atno 27200 bound_to 18626
  236.1419   24.2027   11.4274 LP  0  0  0  0  0  0  0  0  0  0  0  0  # atno 27201 bound_to 18626
  236.7227   26.3827   11.4515 LP  0  0  0  0  0  0  0  0  0  0  0  0  # atno 27202 bound_to 18683
  233.8263   23.8557   11.3712 LP  0  0  0  0  0  0  0  0  0  0  0  0  # atno 27203 bound_to 18686
  233.2593   24.2905    9.7934 LP  0  0  0  0  0  0  0  0  0  0  0  0  # atno 27204 bound_to 18686
  235.5473   25.4645   10.4197 LP  0  0  0  0  0  0  0  0  0  0  0  0  # atno 27209 bound_to 18741
  236.2293   21.8689   12.5961 LP  0  0  0  0  0  0  0  0  0  0  0  0  # atno 27210 bound_to 18915
  233.9384   20.8465   10.3419 LP  0  0  0  0  0  0  0  0  0  0  0  0  # atno 27211 bound_to 19005
  227.2556   33.9508   10.1413 LP  0  0  0  0  0  0  0  0  0  0  0  0  # atno 27223 bound_to 17126
  226.7995   34.9442    8.7978 LP  0  0  0  0  0  0  0  0  0  0  0  0  # atno 27224 bound_to 17126
  226.1028   31.9668    8.8377 LP  0  0  0  0  0  0  0  0  0  0  0  0  # atno 27225 bound_to 17175
  223.5633   32.2106    9.6425 LP  0  0  0  0  0  0  0  0  0  0  0  0  # atno 27226 bound_to 17219
  225.7917   27.8905    4.5085 LP  0  0  0  0  0  0  0  0  0  0  0  0  # atno 27227 bound_to 11604
  224.7815   29.0534    5.3003 LP  0  0  0  0  0  0  0  0  0  0  0  0  # atno 27228 bound_to 11604
  227.4743   31.5416    4.9240 LP  0  0  0  0  0  0  0  0  0  0  0  0  # atno 27231 bound_to 17052
  226.3336   32.7641    5.3759 LP  0  0  0  0  0  0  0  0  0  0  0  0  # atno 27232 bound_to 17052
  235.8945   22.6437    7.0409 LP  0  0  0  0  0  0  0  0  0  0  0  0  # atno 27233 bound_to 18744
  235.5799   22.3150    8.7122 LP  0  0  0  0  0  0  0  0  0  0  0  0  # atno 27234 bound_to 18744
  238.3424   25.9633   10.0031 LP  0  0  0  0  0  0  0  0  0  0  0  0  # atno 27235 bound_to 18592
  237.9654   27.1335    8.7830 LP  0  0  0  0  0  0  0  0  0  0  0  0  # atno 27236 bound_to 18592
  237.1060   24.5420    9.4600 LP  0  0  0  0  0  0  0  0  0  0  0  0  # atno 27237 bound_to 18809
  232.8131   19.1915    9.7039 LP  0  0  0  0  0  0  0  0  0  0  0  0  # atno 27238 bound_to 18918
  233.6461   18.6841   11.1353 LP  0  0  0  0  0  0  0  0  0  0  0  0  # atno 27239 bound_to 18918
  232.7435   19.3008    6.2464 LP  0  0  0  0  0  0  0  0  0  0  0  0  # atno 27240 bound_to 19008
  232.1077   18.8099    7.7810 LP  0  0  0  0  0  0  0  0  0  0  0  0  # atno 27241 bound_to 19008
  235.1629   21.1001    8.2165 LP  0  0  0  0  0  0  0  0  0  0  0  0  # atno 27242 bound_to 19061
  222.3184   32.1481    7.7572 LP  0  0  0  0  0  0  0  0  0  0  0  0  # atno 27243 bound_to 17178
  221.8706   31.2853    9.1907 LP  0  0  0  0  0  0  0  0  0  0  0  0  # atno 27244 bound_to 17178
  232.6786   35.6955   11.8484 LP  0  0  0  0  0  0  0  0  0  0  0  0  # atno 27245 bound_to 18364
  233.0202   34.0026   11.7172 LP  0  0  0  0  0  0  0  0  0  0  0  0  # atno 27246 bound_to 18364
  232.6735   34.3912    9.4777 LP  0  0  0  0  0  0  0  0  0  0  0  0  # atno 27247 bound_to 18453
  220.4330   29.3791   10.7118 LP  0  0  0  0  0  0  0  0  0  0  0  0  # atno 27248 bound_to 11412
  221.3686   28.0765   11.3659 LP  0  0  0  0  0  0  0  0  0  0  0  0  # atno 27249 bound_to 11412
  224.2701   34.8806   11.8751 LP  0  0  0  0  0  0  0  0  0  0  0  0  # atno 27250 bound_to 18206
  223.5718   34.9206   10.2905 LP  0  0  0  0  0  0  0  0  0  0  0  0  # atno 27251 bound_to 18206
  220.2961   33.6960   11.0774 LP  0  0  0  0  0  0  0  0  0  0  0  0  # atno 27254 bound_to 17222
  221.5775   33.7652   12.2408 LP  0  0  0  0  0  0  0  0  0  0  0  0  # atno 27255 bound_to 17222
  224.4695   37.3816   11.8552 LP  0  0  0  0  0  0  0  0  0  0  0  0  # atno 27256 bound_to 18273
  227.4338   37.7013   10.4481 LP  0  0  0  0  0  0  0  0  0  0  0  0  # atno 27257 bound_to 18313
  231.8375   37.1698   11.2047 LP  0  0  0  0  0  0  0  0  0  0  0  0  # atno 27258 bound_to 18361
  230.6783   37.2360    7.9926 LP  0  0  0  0  0  0  0  0  0  0  0  0  # atno 27259 bound_to 18316
  229.6023   38.5092    8.4631 LP  0  0  0  0  0  0  0  0  0  0  0  0  # atno 27260 bound_to 18316
  237.0502   33.9309   10.9868 LP  0  0  0  0  0  0  0  0  0  0  0  0  # atno 27261 bound_to 18456
  236.2345   34.2606    9.4948 LP  0  0  0  0  0  0  0  0  0  0  0  0  # atno 27262 bound_to 18456
  232.9552   35.9650   19.9767 LP  0  0  0  0  0  0  0  0  0  0  0  0  # atno 27263 bound_to 7513
  227.7252   39.6334   11.1598 LP  0  0  0  0  0  0  0  0  0  0  0  0  # atno 27264 bound_to 18276
  226.0174   39.4758   10.9181 LP  0  0  0  0  0  0  0  0  0  0  0  0  # atno 27265 bound_to 18276
  232.2541   34.0237   19.6765 LP  0  0  0  0  0  0  0  0  0  0  0  0  # atno 27266 bound_to 7455
  231.0673   34.2014    5.6930 LP  0  0  0  0  0  0  0  0  0  0  0  0  # atno 27267 bound_to 17016
  232.6082   34.1750    4.9026 LP  0  0  0  0  0  0  0  0  0  0  0  0  # atno 27268 bound_to 17016
  238.6714   30.2498   11.8891 LP  0  0  0  0  0  0  0  0  0  0  0  0  # atno 27269 bound_to 18589
  229.5748   40.6405   12.6897 LP  0  0  0  0  0  0  0  0  0  0  0  0  # atno 27270 bound_to 10094
  230.2451   42.1032   12.9690 LP  0  0  0  0  0  0  0  0  0  0  0  0  # atno 27271 bound_to 10094
  225.3236   38.2309    7.2864 LP  0  0  0  0  0  0  0  0  0  0  0  0  # atno 27272 bound_to 18278
  226.2928   38.8873    8.4250 LP  0  0  0  0  0  0  0  0  0  0  0  0  # atno 27273 bound_to 18278
  220.2659   27.5419    7.9257 LP  0  0  0  0  0  0  0  0  0  0  0  0  # atno 27274 bound_to 11459
  232.5553   29.9091    3.3819 LP  0  0  0  0  0  0  0  0  0  0  0  0  # atno 27275 bound_to 16948
  231.2611   30.7579    4.1596 LP  0  0  0  0  0  0  0  0  0  0  0  0  # atno 27276 bound_to 16948

> <Gold.Score>
     Fitness  S(hb_ext) S(vdw_ext)  S(hb_int)    S(int)      intcor
     35.58       0.84      25.88       0.00      -0.84      -0.77

> <Gold.Goldscore.Fitness>
35.5801

> <Gold.Goldscore.Internal.Vdw>
-1.2324

> <Gold.Goldscore.Internal.Torsion>
-0.3733

> <Gold.Goldscore.External.Vdw>
25.8755

> <Gold.Goldscore.Internal.HBond>
0.0000

> <Gold.Goldscore.External.HBond>
0.8377

> <Gold.Goldscore.Internal.Correction>
-0.7693

> <Gold.Goldscore.Hbonds>
donor molecule, donor type, donor heavy atom, donor atom, acceptor molecule, acceptor atom, score
      L1  H     8    22       P1 18691  0.11
      L1  H    10    23       P1 17126  0.07

> <Gold.Goldscore.Internal.Vdw.Weighted>
-1.2324

> <Gold.Goldscore.Internal.Torsion.Weighted>
-0.3733

> <Gold.Goldscore.External.Vdw.Weighted>
35.5788

> <Gold.Goldscore.Internal.HBond.Weighted>
0.0000

> <Gold.Goldscore.External.HBond.Weighted>
0.8377

> <Gold.Goldscore.Internal.Correction.Weighted>
-0.7693

> <Gold.Rescore>
     Score     S(PLP)   S(hbond)     S(cho)   S(metal)  DE(clash)   DE(tors)     intcor
     32.03     -29.41       1.20       0.00       0.00       0.00       0.49       ----

> <Gold.PLP.Fitness>
32.0297

> <Gold.PLP.PLP>
-29.4133

> <Gold.PLP.part.hbond>
-4.0000

> <Gold.PLP.part.metal>
0.0000

> <Gold.PLP.part.buried>
12.8268

> <Gold.PLP.part.nonpolar>
-41.2961

> <Gold.PLP.part.repulsive>
1.0930

> <Gold.PLP.ligand.clash>
0.0000

> <Gold.PLP.ligand.torsion>
0.4948

> <Gold.PLP.Chemscore.Hbond>
1.2020

> <Gold.PLP.Chemscore.CHOScore>
0.0000

> <Gold.PLP.Chemscore.Metal>
0.0000

> <Gold.Chemscore.Hbonds>
donor molecule, donor type, donor heavy atom, donor atom, acceptor molecule, acceptor atom, score
      L1  H     8    22       P1 18691  0.78

> <Gold.PLP.Chemscore.Internal.Correction>
   9.000000E+99

