#       Name:                CT1002167954
#       Creating user name   hitesit
#       Creation time:       Sun Apr 16 22:59:41 2023


#       File generated by GOLD software.
#

@<TRIPOS>MOLECULE
CT1002167954|ligand_prepared|mol2|1|dock3
    29    30     1
SMALL
NO_CHARGES


@<TRIPOS>ATOM
      1 C1         227.7572  23.3760  14.6981 C.3            1 RES1               0.0000
      2 C2         229.0682  24.0383  14.2275 C.ar           1 RES1               0.0000
      3 C3         227.2070  24.2599  15.8135 C.2            1 RES1               0.0000
      4 C4         226.8573  23.2913  13.4702 C.2            1 RES1               0.0000
      5 C5         227.9444  21.9446  15.2528 C.3            1 RES1               0.0000
      6 C6         230.1988  24.0272  15.0389 C.ar           1 RES1               0.0000
      7 C7         229.1629  24.6610  12.9857 C.ar           1 RES1               0.0000
      8 N8         226.1223  25.0357  15.5280 N.am           1 RES1               0.0000
      9 O9         227.7407  24.3052  16.9150 O.2            1 RES1               0.0000
     10 N10        225.7060  24.0345  13.4654 N.am           1 RES1               0.0000
     11 O11        227.1431  22.6007  12.4999 O.2            1 RES1               0.0000
     12 C12        226.6494  21.2874  15.7034 C.3            1 RES1               0.0000
     13 C13        231.3821  24.6145  14.6229 C.ar           1 RES1               0.0000
     14 C14        230.3472  25.2479  12.5717 C.ar           1 RES1               0.0000
     15 C15        225.3131  24.9265  14.4258 C.2            1 RES1               0.0000
     16 C16        231.4573  25.2248  13.3890 C.ar           1 RES1               0.0000
     17 O17        224.2909  25.5988  14.3248 O.2            1 RES1               0.0000
     18 H18        228.4045  21.3221  14.4755 H              1 RES1               0.0000
     19 H19        228.6355  21.9833  16.1039 H              1 RES1               0.0000
     20 H20        230.1579  23.5537  16.0142 H              1 RES1               0.0000
     21 H21        228.3020  24.6922  12.3266 H              1 RES1               0.0000
     22 H22        225.8915  25.7645  16.1958 H              1 RES1               0.0000
     23 H23        225.0843  23.9112  12.6726 H              1 RES1               0.0000
     24 H24        226.8372  20.2855  16.0836 H              1 RES1               0.0000
     25 H25        226.1775  21.8670  16.4941 H              1 RES1               0.0000
     26 H26        225.9479  21.2097  14.8754 H              1 RES1               0.0000
     27 H27        232.2525  24.5948  15.2704 H              1 RES1               0.0000
     28 H28        230.4017  25.7277  11.6001 H              1 RES1               0.0000
     29 H29        232.3845  25.6845  13.0631 H              1 RES1               0.0000
@<TRIPOS>BOND
    1    1    2 1     
    2    1    3 1     
    3    1    4 1     
    4    1    5 1     
    5    2    6 ar    
    6    2    7 ar    
    7    3    8 1     
    8    3    9 2     
    9    4   10 1     
   10    4   11 2     
   11    5   12 1     
   12    5   18 1     
   13    5   19 1     
   14    6   13 ar    
   15    6   20 1     
   16    7   14 ar    
   17    7   21 1     
   18    8   15 1     
   19    8   22 1     
   20   10   15 1     
   21   10   23 1     
   22   12   24 1     
   23   12   25 1     
   24   12   26 1     
   25   13   16 ar    
   26   13   27 1     
   27   14   16 ar    
   28   14   28 1     
   29   15   17 2     
   30   16   29 1     
@<TRIPOS>SUBSTRUCTURE
      1 RES1           1
@<TRIPOS>SET
DONOR_HYDROGENS      STATIC     ATOMS    <user>   **** ""
2 22 23
ATOM$RED        STATIC     ATOMS    COLORGROUP SYSTEM
2 22 23
@<TRIPOS>COMMENT
> <Gold.Version>
2022.3.0

> <Gold.Id.Protein>
unknown|4d1n_clean|pdb

> <Gold.Protein.RotatedTorsions>
[ 16995 16956 16955 16953 ] final   24.98 input   60.02 | X-H torsion
[ 18503 18464 18463 18461 ] final  150.95 input   59.99 | X-H torsion
[ 18563 18529 18530 18531 ] final -159.52 input   85.91 | X-H torsion
[ 18713 18683 18684 18685 ] final  -52.30 input  120.10 | X-H torsion
[ 18779 18741 18742 18743 ] final  162.54 input   94.66 | X-H torsion
[ 18963 18915 18916 18917 ] final -156.94 input   99.61 | X-H torsion
[ 19029 19005 19006 19007 ] final   95.74 input  120.28 | X-H torsion
[ 17195 17175 17176 17177 ] final  146.57 input   50.47 | X-H torsion
[ 17251 17219 17220 17221 ] final  -80.20 input  121.85 | X-H torsion
[ 18823 18809 18810 18811 ] final   91.29 input  109.66 | X-H torsion
[ 19103 19061 19062 19063 ] final  -11.52 input   93.64 | X-H torsion
[ 18495 18453 18454 18455 ] final  127.10 input  105.49 | X-H torsion
[ 18295 18273 18274 18275 ] final -120.43 input   34.55 | X-H torsion
[ 18327 18313 18314 18315 ] final -160.13 input   52.32 | X-H torsion
[ 18409 18361 18362 18363 ] final -130.67 input   29.77 | X-H torsion
[ 7524 7513 7514 7515 ] final  144.50 input   82.77 | X-H torsion
[ 7477 7455 7456 7457 ] final -173.87 input   99.19 | X-H torsion
[ 18603 18589 18590 18591 ] final -120.16 input  124.64 | X-H torsion
[ 10105 10094 10093 10090 ] final  -41.46 input   59.99 | X-H torsion
[ 18299 18278 18277 18274 ] final  -67.91 input   60.00 | X-H torsion
[ 11477 11459 11460 11461 ] final   91.30 input   48.11 | X-H torsion
[ 18657 18629 18627 18624 ] final  178.77 input   60.03 | X-H torsion
[ 11425 11414 11413 11410 ] final   19.77 input   60.02 | X-H torsion
[ 18875 18843 18844 18845 ] final   82.08 input   86.72 | X-H torsion
[ 17303 17281 17282 17283 ] final  -86.63 input   51.85 | X-H torsion
[ 22447 22415 22416 22417 ] final  177.57 input   56.20 | X-H torsion
[ 18243 18203 18204 18205 ] final   51.76 input   41.90 | X-H torsion
[ 11805 11781 11782 11783 ] final   65.71 input   87.31 | X-H torsion
[ 16987 16945 16946 16947 ] final  132.58 input   84.34 | X-H torsion
[ 27198 18532 18531 18530 ] final    8.78 input   -0.00 | X-H torsion
[ 27200 18626 18625 18624 ] final  -24.72 input    0.00 | X-H torsion
[ 27203 18686 18685 18684 ] final -170.54 input   -0.00 | X-H torsion
[ 27223 17126 17125 17124 ] final  -42.68 input    0.00 | X-H torsion
[ 27227 11604 11603 11602 ] final   63.09 input    0.00 | X-H torsion
[ 27231 17052 17051 17050 ] final  -60.46 input   -0.00 | X-H torsion
[ 27233 18744 18743 18742 ] final  -58.22 input   -0.00 | X-H torsion
[ 27235 18592 18591 18590 ] final   22.95 input   -0.00 | X-H torsion
[ 27238 18918 18917 18916 ] final   78.32 input    0.00 | X-H torsion
[ 27240 19008 19007 19006 ] final    5.14 input    0.00 | X-H torsion
[ 27243 17178 17177 17176 ] final   31.39 input    0.00 | X-H torsion
[ 27245 18364 18363 18362 ] final -173.83 input    0.00 | X-H torsion
[ 27248 11412 11411 11410 ] final -161.11 input   -0.00 | X-H torsion
[ 27250 18206 18205 18204 ] final -139.82 input   -0.00 | X-H torsion
[ 27254 17222 17221 17220 ] final   65.38 input   -0.00 | X-H torsion
[ 27259 18316 18315 18314 ] final   48.66 input   -0.00 | X-H torsion
[ 27261 18456 18455 18454 ] final -112.30 input    0.00 | X-H torsion
[ 27264 18276 18275 18274 ] final  -83.86 input    0.00 | X-H torsion
[ 27267 17016 17015 17014 ] final   29.53 input    0.00 | X-H torsion
[ 27275 16948 16947 16946 ] final  101.90 input   -0.00 | X-H torsion

> <Gold.Protein.ActiveResidues>
 TRP414  CYS420  VAL421  GLY422  LEU460  SER462  SER482  GLN483  ILE485  ARG486 
 TYR487  ASP500  ASN503  TRP566  TYR567  GLY568  LEU569  PRO570  ALA571  VAL572 
 SER573  ASN574  PHE589  SER590  GLY591  TRP592  TYR593  MET594  GLY595  THR596 
 GLU597  ILE598  GLY599  VAL600  ARG601  ASP602  TYR603  ARG608  ILE653  VAL654 
 TRP683  PRO687  HEM750  H4B760 

> <Gold.Protein.RotatedAtoms>
  232.5126   32.8012   20.8898 H   0  0  0  0  0  0  0  0  0  0  0  0  # atno 7477 bound_to 7455
  233.2700   34.9957   18.6744 H   0  0  0  0  0  0  0  0  0  0  0  0  # atno 7524 bound_to 7513
  229.7298   40.7140   11.8159 H   0  0  0  0  0  0  0  0  0  0  0  0  # atno 10105 bound_to 10094
  221.2704   25.5025    8.8115 H   0  0  0  0  0  0  0  0  0  0  0  0  # atno 11425 bound_to 11414
  221.3992   26.9949    8.2155 H   0  0  0  0  0  0  0  0  0  0  0  0  # atno 11477 bound_to 11459
  225.2584   23.6729    3.0803 H   0  0  0  0  0  0  0  0  0  0  0  0  # atno 11805 bound_to 11781
  230.7610   27.7380    1.5432 H   0  0  0  0  0  0  0  0  0  0  0  0  # atno 16987 bound_to 16945
  226.9853   27.7635    6.6269 H   0  0  0  0  0  0  0  0  0  0  0  0  # atno 16995 bound_to 16956
  226.1120   32.7787    7.3181 H   0  0  0  0  0  0  0  0  0  0  0  0  # atno 17195 bound_to 17175
  223.6104   32.1056    9.6417 H   0  0  0  0  0  0  0  0  0  0  0  0  # atno 17251 bound_to 17219
  220.8225   31.5994   11.8436 H   0  0  0  0  0  0  0  0  0  0  0  0  # atno 17303 bound_to 17281
  221.4289   35.2780   11.6712 H   0  0  0  0  0  0  0  0  0  0  0  0  # atno 18243 bound_to 18203
  224.0915   36.8817   11.4771 H   0  0  0  0  0  0  0  0  0  0  0  0  # atno 18295 bound_to 18273
  224.5886   38.5696    8.5370 H   0  0  0  0  0  0  0  0  0  0  0  0  # atno 18299 bound_to 18278
  227.3944   37.5999   11.2242 H   0  0  0  0  0  0  0  0  0  0  0  0  # atno 18327 bound_to 18313
  230.6021   37.0879    9.9795 H   0  0  0  0  0  0  0  0  0  0  0  0  # atno 18409 bound_to 18361
  233.4038   34.1567    8.3116 H   0  0  0  0  0  0  0  0  0  0  0  0  # atno 18495 bound_to 18453
  229.3871   29.0459    6.7061 H   0  0  0  0  0  0  0  0  0  0  0  0  # atno 18503 bound_to 18464
  235.2224   33.0366   11.7717 H   0  0  0  0  0  0  0  0  0  0  0  0  # atno 18563 bound_to 18529
  237.7251   31.0019   10.6461 H   0  0  0  0  0  0  0  0  0  0  0  0  # atno 18603 bound_to 18589
  238.3594   27.0906   15.5503 H   0  0  0  0  0  0  0  0  0  0  0  0  # atno 18657 bound_to 18629
  236.7609   26.0348   12.0530 H   0  0  0  0  0  0  0  0  0  0  0  0  # atno 18713 bound_to 18683
  234.8408   26.8636    9.6577 H   0  0  0  0  0  0  0  0  0  0  0  0  # atno 18779 bound_to 18741
  237.6651   25.2215    9.1429 H   0  0  0  0  0  0  0  0  0  0  0  0  # atno 18823 bound_to 18809
  237.8113   23.4512   10.8027 H   0  0  0  0  0  0  0  0  0  0  0  0  # atno 18875 bound_to 18843
  236.3652   21.6009   12.5454 H   0  0  0  0  0  0  0  0  0  0  0  0  # atno 18963 bound_to 18915
  234.0823   22.3649    9.9566 H   0  0  0  0  0  0  0  0  0  0  0  0  # atno 19029 bound_to 19005
  234.3219   20.0868    8.5891 H   0  0  0  0  0  0  0  0  0  0  0  0  # atno 19103 bound_to 19061
  238.6289   35.8780    9.7858 H   0  0  0  0  0  0  0  0  0  0  0  0  # atno 22447 bound_to 22415
  228.2422   26.7341    6.5386 LP  0  0  0  0  0  0  0  0  0  0  0  0  # atno 27193 bound_to 16956
  226.8247   26.3602    5.8193 LP  0  0  0  0  0  0  0  0  0  0  0  0  # atno 27194 bound_to 16956
  229.4765   28.3357    8.1671 LP  0  0  0  0  0  0  0  0  0  0  0  0  # atno 27195 bound_to 18464
  230.3228   27.7305    6.9086 LP  0  0  0  0  0  0  0  0  0  0  0  0  # atno 27196 bound_to 18464
  234.9359   31.4188   11.1664 LP  0  0  0  0  0  0  0  0  0  0  0  0  # atno 27197 bound_to 18529
  235.4027   29.6301   11.5422 LP  0  0  0  0  0  0  0  0  0  0  0  0  # atno 27198 bound_to 18532
  236.6385   28.6157   10.8759 LP  0  0  0  0  0  0  0  0  0  0  0  0  # atno 27199 bound_to 18532
  237.3947   23.9217   11.8874 LP  0  0  0  0  0  0  0  0  0  0  0  0  # atno 27200 bound_to 18626
  235.7856   24.2592   12.4324 LP  0  0  0  0  0  0  0  0  0  0  0  0  # atno 27201 bound_to 18626
  236.2422   27.6906   12.2202 LP  0  0  0  0  0  0  0  0  0  0  0  0  # atno 27202 bound_to 18683
  233.8739   23.8674    9.8089 LP  0  0  0  0  0  0  0  0  0  0  0  0  # atno 27203 bound_to 18686
  233.2116   24.2788   11.3556 LP  0  0  0  0  0  0  0  0  0  0  0  0  # atno 27204 bound_to 18686
  235.6622   25.5084   10.3940 LP  0  0  0  0  0  0  0  0  0  0  0  0  # atno 27209 bound_to 18741
  235.8380   22.0259   10.9393 LP  0  0  0  0  0  0  0  0  0  0  0  0  # atno 27210 bound_to 18915
  233.2954   20.9951   10.7003 LP  0  0  0  0  0  0  0  0  0  0  0  0  # atno 27211 bound_to 19005
  227.6824   34.0656    9.8883 LP  0  0  0  0  0  0  0  0  0  0  0  0  # atno 27223 bound_to 17126
  226.3727   34.8294    9.0507 LP  0  0  0  0  0  0  0  0  0  0  0  0  # atno 27224 bound_to 17126
  225.9514   31.7838    8.7391 LP  0  0  0  0  0  0  0  0  0  0  0  0  # atno 27225 bound_to 17175
  224.1737   33.0158   11.0285 LP  0  0  0  0  0  0  0  0  0  0  0  0  # atno 27226 bound_to 17219
  224.6742   28.8293    5.4017 LP  0  0  0  0  0  0  0  0  0  0  0  0  # atno 27227 bound_to 11604
  225.8990   28.1146    4.4072 LP  0  0  0  0  0  0  0  0  0  0  0  0  # atno 27228 bound_to 11604
  226.4308   32.8532    4.9611 LP  0  0  0  0  0  0  0  0  0  0  0  0  # atno 27231 bound_to 17052
  227.3771   31.4525    5.3388 LP  0  0  0  0  0  0  0  0  0  0  0  0  # atno 27232 bound_to 17052
  235.1626   22.4933    8.5243 LP  0  0  0  0  0  0  0  0  0  0  0  0  # atno 27233 bound_to 18744
  236.3118   22.4653    7.2288 LP  0  0  0  0  0  0  0  0  0  0  0  0  # atno 27234 bound_to 18744
  238.5551   26.9903    8.7655 LP  0  0  0  0  0  0  0  0  0  0  0  0  # atno 27235 bound_to 18592
  237.7527   26.1065   10.0205 LP  0  0  0  0  0  0  0  0  0  0  0  0  # atno 27236 bound_to 18592
  236.6258   24.2721    8.1085 LP  0  0  0  0  0  0  0  0  0  0  0  0  # atno 27237 bound_to 18809
  232.5356   19.0073   10.9330 LP  0  0  0  0  0  0  0  0  0  0  0  0  # atno 27238 bound_to 18918
  233.9236   18.8683    9.9062 LP  0  0  0  0  0  0  0  0  0  0  0  0  # atno 27239 bound_to 18918
  231.6957   19.4263    7.2959 LP  0  0  0  0  0  0  0  0  0  0  0  0  # atno 27240 bound_to 19008
  233.1555   18.6843    6.7315 LP  0  0  0  0  0  0  0  0  0  0  0  0  # atno 27241 bound_to 19008
  234.5291   21.3309    7.3805 LP  0  0  0  0  0  0  0  0  0  0  0  0  # atno 27242 bound_to 19061
  222.5911   31.6441    7.7682 LP  0  0  0  0  0  0  0  0  0  0  0  0  # atno 27243 bound_to 17178
  221.5978   31.7893    9.1797 LP  0  0  0  0  0  0  0  0  0  0  0  0  # atno 27244 bound_to 17178
  233.3496   34.1423   11.7661 LP  0  0  0  0  0  0  0  0  0  0  0  0  # atno 27245 bound_to 18364
  232.3491   35.5558   11.7995 LP  0  0  0  0  0  0  0  0  0  0  0  0  # atno 27246 bound_to 18364
  233.4798   34.9003    9.8913 LP  0  0  0  0  0  0  0  0  0  0  0  0  # atno 27247 bound_to 18453
  221.2263   29.3286   10.5069 LP  0  0  0  0  0  0  0  0  0  0  0  0  # atno 27248 bound_to 11412
  220.5752   28.1270   11.5708 LP  0  0  0  0  0  0  0  0  0  0  0  0  # atno 27249 bound_to 11412
  224.7465   34.9856   11.3301 LP  0  0  0  0  0  0  0  0  0  0  0  0  # atno 27250 bound_to 18206
  223.0953   34.8156   10.8356 LP  0  0  0  0  0  0  0  0  0  0  0  0  # atno 27251 bound_to 18206
  221.3927   33.9337   10.9513 LP  0  0  0  0  0  0  0  0  0  0  0  0  # atno 27254 bound_to 17222
  220.4809   33.5275   12.3669 LP  0  0  0  0  0  0  0  0  0  0  0  0  # atno 27255 bound_to 17222
  224.3280   38.4121   10.6742 LP  0  0  0  0  0  0  0  0  0  0  0  0  # atno 27256 bound_to 18273
  228.2274   36.3912   10.2734 LP  0  0  0  0  0  0  0  0  0  0  0  0  # atno 27257 bound_to 18313
  231.7930   37.0152   11.2603 LP  0  0  0  0  0  0  0  0  0  0  0  0  # atno 27258 bound_to 18361
  229.9799   38.6996    8.4285 LP  0  0  0  0  0  0  0  0  0  0  0  0  # atno 27259 bound_to 18316
  230.3007   37.0455    8.0272 LP  0  0  0  0  0  0  0  0  0  0  0  0  # atno 27260 bound_to 18316
  237.1668   33.4440   10.0167 LP  0  0  0  0  0  0  0  0  0  0  0  0  # atno 27261 bound_to 18456
  236.1179   34.7475   10.4650 LP  0  0  0  0  0  0  0  0  0  0  0  0  # atno 27262 bound_to 18456
  233.5001   35.9777   20.1022 LP  0  0  0  0  0  0  0  0  0  0  0  0  # atno 27263 bound_to 7513
  226.9510   39.7182   10.1923 LP  0  0  0  0  0  0  0  0  0  0  0  0  # atno 27264 bound_to 18276
  226.7916   39.3911   11.8857 LP  0  0  0  0  0  0  0  0  0  0  0  0  # atno 27265 bound_to 18276
  232.2056   34.1145   19.7782 LP  0  0  0  0  0  0  0  0  0  0  0  0  # atno 27266 bound_to 7455
  232.5055   34.4808    4.8304 LP  0  0  0  0  0  0  0  0  0  0  0  0  # atno 27267 bound_to 17016
  231.1700   33.8956    5.7652 LP  0  0  0  0  0  0  0  0  0  0  0  0  # atno 27268 bound_to 17016
  238.8342   30.3552   11.8292 LP  0  0  0  0  0  0  0  0  0  0  0  0  # atno 27269 bound_to 18589
  229.8456   41.3743   13.2980 LP  0  0  0  0  0  0  0  0  0  0  0  0  # atno 27270 bound_to 10094
  230.4171   42.1773   11.9960 LP  0  0  0  0  0  0  0  0  0  0  0  0  # atno 27271 bound_to 10094
  225.5673   38.2759    7.2702 LP  0  0  0  0  0  0  0  0  0  0  0  0  # atno 27272 bound_to 18278
  226.1697   38.9438    8.6331 LP  0  0  0  0  0  0  0  0  0  0  0  0  # atno 27273 bound_to 18278
  220.1784   27.9912    8.9912 LP  0  0  0  0  0  0  0  0  0  0  0  0  # atno 27274 bound_to 11459
  232.7214   30.3730    3.4755 LP  0  0  0  0  0  0  0  0  0  0  0  0  # atno 27275 bound_to 16948
  231.0950   30.2940    4.0661 LP  0  0  0  0  0  0  0  0  0  0  0  0  # atno 27276 bound_to 16948

> <Gold.Score>
     Fitness  S(hb_ext) S(vdw_ext)  S(hb_int)    S(int)      intcor
     25.08       1.76      18.30       0.00      -1.85      -0.79

> <Gold.Goldscore.Fitness>
25.0822

> <Gold.Goldscore.Internal.Vdw>
-2.2726

> <Gold.Goldscore.Internal.Torsion>
-0.3668

> <Gold.Goldscore.External.Vdw>
18.3039

> <Gold.Goldscore.Internal.HBond>
0.0000

> <Gold.Goldscore.External.HBond>
1.7625

> <Gold.Goldscore.Internal.Correction>
-0.7912

> <Gold.Goldscore.Hbonds>
donor molecule, donor type, donor heavy atom, donor atom, acceptor molecule, acceptor atom, score
      L1  H     8    22       P1 26869  0.29

> <Gold.Goldscore.Internal.Vdw.Weighted>
-2.2726

> <Gold.Goldscore.Internal.Torsion.Weighted>
-0.3668

> <Gold.Goldscore.External.Vdw.Weighted>
25.1679

> <Gold.Goldscore.Internal.HBond.Weighted>
0.0000

> <Gold.Goldscore.External.HBond.Weighted>
1.7625

> <Gold.Goldscore.Internal.Correction.Weighted>
-0.7912

> <Gold.Rescore>
     Score     S(PLP)   S(hbond)     S(cho)   S(metal)  DE(clash)   DE(tors)     intcor
     18.21     -18.74       0.40       0.00       0.00       0.14       0.80       ----

> <Gold.PLP.Fitness>
18.2072

> <Gold.PLP.PLP>
-18.7447

> <Gold.PLP.part.hbond>
-1.1532

> <Gold.PLP.part.metal>
0.0000

> <Gold.PLP.part.buried>
-6.4331

> <Gold.PLP.part.nonpolar>
-14.0086

> <Gold.PLP.part.repulsive>
2.4536

> <Gold.PLP.ligand.clash>
0.1435

> <Gold.PLP.ligand.torsion>
0.8015

> <Gold.PLP.Chemscore.Hbond>
0.4030

> <Gold.PLP.Chemscore.CHOScore>
0.0000

> <Gold.PLP.Chemscore.Metal>
0.0000

> <Gold.PLP.Chemscore.Internal.Correction>
   9.000000E+99

