#       Name:                CT1002167954
#       Creating user name   hitesit
#       Creation time:       Sun Apr 16 22:59:43 2023


#       File generated by GOLD software.
#

@<TRIPOS>MOLECULE
CT1002167954|ligand_prepared|mol2|1|dock5
    29    30     1
SMALL
NO_CHARGES


@<TRIPOS>ATOM
      1 C1         228.3836  32.4499  13.6994 C.3            1 RES1               0.0000
      2 C2         228.1774  31.1154  12.9542 C.ar           1 RES1               0.0000
      3 C3         229.8922  32.6452  13.8188 C.2            1 RES1               0.0000
      4 C4         227.6822  33.5167  12.8660 C.2            1 RES1               0.0000
      5 C5         227.7714  32.4738  15.1193 C.3            1 RES1               0.0000
      6 C6         227.5853  31.0911  11.6950 C.ar           1 RES1               0.0000
      7 C7         228.5757  29.9030  13.5110 C.ar           1 RES1               0.0000
      8 N8         230.4733  33.5830  13.0169 N.am           1 RES1               0.0000
      9 O9         230.5674  31.9594  14.5764 O.2            1 RES1               0.0000
     10 N10        228.4550  34.4848  12.2801 N.am           1 RES1               0.0000
     11 O11        226.4690  33.5181  12.6977 O.2            1 RES1               0.0000
     12 C12        226.4253  31.7735  15.2184 C.3            1 RES1               0.0000
     13 C13        227.4007  29.8983  11.0157 C.ar           1 RES1               0.0000
     14 C14        228.3900  28.7112  12.8300 C.ar           1 RES1               0.0000
     15 C15        229.8218  34.5486  12.2925 C.2            1 RES1               0.0000
     16 C16        227.8033  28.7077  11.5824 C.ar           1 RES1               0.0000
     17 O17        230.4483  35.4197  11.6960 O.2            1 RES1               0.0000
     18 H18        228.4714  31.9932  15.8138 H              1 RES1               0.0000
     19 H19        227.6502  33.5177  15.4341 H              1 RES1               0.0000
     20 H20        227.2599  32.0178  11.2342 H              1 RES1               0.0000
     21 H21        229.0384  29.8815  14.4918 H              1 RES1               0.0000
     22 H22        231.4860  33.5645  12.9496 H              1 RES1               0.0000
     23 H23        227.9661  35.2268  11.7894 H              1 RES1               0.0000
     24 H24        226.0405  31.8195  16.2351 H              1 RES1               0.0000
     25 H25        225.6974  32.2417  14.5591 H              1 RES1               0.0000
     26 H26        226.5137  30.7263  14.9366 H              1 RES1               0.0000
     27 H27        226.9373  29.9008  10.0346 H              1 RES1               0.0000
     28 H28        228.7078  27.7765  13.2801 H              1 RES1               0.0000
     29 H29        227.6590  27.7735  11.0498 H              1 RES1               0.0000
@<TRIPOS>BOND
    1    1    2 1     
    2    1    3 1     
    3    1    4 1     
    4    1    5 1     
    5    2    6 ar    
    6    2    7 ar    
    7    3    8 1     
    8    3    9 2     
    9    4   10 1     
   10    4   11 2     
   11    5   12 1     
   12    5   18 1     
   13    5   19 1     
   14    6   13 ar    
   15    6   20 1     
   16    7   14 ar    
   17    7   21 1     
   18    8   15 1     
   19    8   22 1     
   20   10   15 1     
   21   10   23 1     
   22   12   24 1     
   23   12   25 1     
   24   12   26 1     
   25   13   16 ar    
   26   13   27 1     
   27   14   16 ar    
   28   14   28 1     
   29   15   17 2     
   30   16   29 1     
@<TRIPOS>SUBSTRUCTURE
      1 RES1           1
@<TRIPOS>SET
DONOR_HYDROGENS      STATIC     ATOMS    <user>   **** ""
2 22 23
ATOM$RED        STATIC     ATOMS    COLORGROUP SYSTEM
2 22 23
@<TRIPOS>COMMENT
> <Gold.Version>
2022.3.0

> <Gold.Id.Protein>
unknown|4d1n_clean|pdb

> <Gold.Protein.RotatedTorsions>
[ 16995 16956 16955 16953 ] final -135.60 input   60.02 | X-H torsion
[ 18503 18464 18463 18461 ] final   -3.30 input   59.99 | X-H torsion
[ 18563 18529 18530 18531 ] final  169.10 input   85.91 | X-H torsion
[ 18713 18683 18684 18685 ] final   84.73 input  120.10 | X-H torsion
[ 18779 18741 18742 18743 ] final   71.59 input   94.66 | X-H torsion
[ 18963 18915 18916 18917 ] final  172.46 input   99.61 | X-H torsion
[ 19029 19005 19006 19007 ] final  -43.32 input  120.28 | X-H torsion
[ 17195 17175 17176 17177 ] final   21.67 input   50.47 | X-H torsion
[ 17251 17219 17220 17221 ] final   55.81 input  121.85 | X-H torsion
[ 18823 18809 18810 18811 ] final  140.39 input  109.66 | X-H torsion
[ 19103 19061 19062 19063 ] final -144.27 input   93.64 | X-H torsion
[ 18495 18453 18454 18455 ] final  -40.92 input  105.49 | X-H torsion
[ 18295 18273 18274 18275 ] final  115.24 input   34.55 | X-H torsion
[ 18327 18313 18314 18315 ] final   67.77 input   52.32 | X-H torsion
[ 18409 18361 18362 18363 ] final  -32.93 input   29.77 | X-H torsion
[ 7524 7513 7514 7515 ] final   37.39 input   82.77 | X-H torsion
[ 7477 7455 7456 7457 ] final   43.95 input   99.19 | X-H torsion
[ 18603 18589 18590 18591 ] final  -28.86 input  124.64 | X-H torsion
[ 10105 10094 10093 10090 ] final -107.71 input   59.99 | X-H torsion
[ 18299 18278 18277 18274 ] final -152.61 input   60.00 | X-H torsion
[ 11477 11459 11460 11461 ] final -157.47 input   48.11 | X-H torsion
[ 18657 18629 18627 18624 ] final   86.29 input   60.03 | X-H torsion
[ 11425 11414 11413 11410 ] final -136.26 input   60.02 | X-H torsion
[ 18875 18843 18844 18845 ] final -133.39 input   86.72 | X-H torsion
[ 17303 17281 17282 17283 ] final   61.10 input   51.85 | X-H torsion
[ 22447 22415 22416 22417 ] final -116.06 input   56.20 | X-H torsion
[ 18243 18203 18204 18205 ] final  135.27 input   41.90 | X-H torsion
[ 11805 11781 11782 11783 ] final  -47.81 input   87.31 | X-H torsion
[ 16987 16945 16946 16947 ] final   61.00 input   84.34 | X-H torsion
[ 27198 18532 18531 18530 ] final  -59.79 input   -0.00 | X-H torsion
[ 27200 18626 18625 18624 ] final  -64.07 input    0.00 | X-H torsion
[ 27203 18686 18685 18684 ] final  -28.96 input   -0.00 | X-H torsion
[ 27223 17126 17125 17124 ] final   45.61 input    0.00 | X-H torsion
[ 27227 11604 11603 11602 ] final  -82.21 input    0.00 | X-H torsion
[ 27231 17052 17051 17050 ] final  132.67 input   -0.00 | X-H torsion
[ 27233 18744 18743 18742 ] final  -47.25 input   -0.00 | X-H torsion
[ 27235 18592 18591 18590 ] final    5.17 input   -0.00 | X-H torsion
[ 27238 18918 18917 18916 ] final -123.27 input    0.00 | X-H torsion
[ 27240 19008 19007 19006 ] final    3.67 input    0.00 | X-H torsion
[ 27243 17178 17177 17176 ] final  124.19 input    0.00 | X-H torsion
[ 27245 18364 18363 18362 ] final  179.12 input    0.00 | X-H torsion
[ 27248 11412 11411 11410 ] final  -50.33 input   -0.00 | X-H torsion
[ 27250 18206 18205 18204 ] final   34.78 input   -0.00 | X-H torsion
[ 27254 17222 17221 17220 ] final   44.01 input   -0.00 | X-H torsion
[ 27259 18316 18315 18314 ] final  104.53 input   -0.00 | X-H torsion
[ 27261 18456 18455 18454 ] final   75.07 input    0.00 | X-H torsion
[ 27264 18276 18275 18274 ] final  -72.89 input    0.00 | X-H torsion
[ 27267 17016 17015 17014 ] final  171.90 input    0.00 | X-H torsion
[ 27275 16948 16947 16946 ] final  -30.53 input   -0.00 | X-H torsion

> <Gold.Protein.ActiveResidues>
 TRP414  CYS420  VAL421  GLY422  LEU460  SER462  SER482  GLN483  ILE485  ARG486 
 TYR487  ASP500  ASN503  TRP566  TYR567  GLY568  LEU569  PRO570  ALA571  VAL572 
 SER573  ASN574  PHE589  SER590  GLY591  TRP592  TYR593  MET594  GLY595  THR596 
 GLU597  ILE598  GLY599  VAL600  ARG601  ASP602  TYR603  ARG608  ILE653  VAL654 
 TRP683  PRO687  HEM750  H4B760 

> <Gold.Protein.RotatedAtoms>
  232.4147   33.6854   19.4725 H   0  0  0  0  0  0  0  0  0  0  0  0  # atno 7477 bound_to 7455
  232.5885   35.7881   19.6419 H   0  0  0  0  0  0  0  0  0  0  0  0  # atno 7524 bound_to 7513
  229.5888   40.7150   12.8284 H   0  0  0  0  0  0  0  0  0  0  0  0  # atno 10105 bound_to 10094
  220.8107   23.8029    9.3175 H   0  0  0  0  0  0  0  0  0  0  0  0  # atno 11425 bound_to 11414
  221.0053   27.7044    9.4612 H   0  0  0  0  0  0  0  0  0  0  0  0  # atno 11477 bound_to 11459
  224.0141   24.2521    2.4818 H   0  0  0  0  0  0  0  0  0  0  0  0  # atno 11805 bound_to 11781
  231.2392   28.1202    2.3754 H   0  0  0  0  0  0  0  0  0  0  0  0  # atno 16987 bound_to 16945
  227.9647   26.2643    6.1828 H   0  0  0  0  0  0  0  0  0  0  0  0  # atno 16995 bound_to 16956
  225.5838   31.5321    8.0674 H   0  0  0  0  0  0  0  0  0  0  0  0  # atno 17195 bound_to 17175
  223.6350   33.3027   10.7840 H   0  0  0  0  0  0  0  0  0  0  0  0  # atno 17251 bound_to 17219
  220.5764   30.2057   10.9152 H   0  0  0  0  0  0  0  0  0  0  0  0  # atno 17303 bound_to 17281
  220.6574   36.0125   12.1728 H   0  0  0  0  0  0  0  0  0  0  0  0  # atno 18243 bound_to 18203
  223.9109   37.8405   10.2704 H   0  0  0  0  0  0  0  0  0  0  0  0  # atno 18295 bound_to 18273
  225.0175   38.2113    7.4058 H   0  0  0  0  0  0  0  0  0  0  0  0  # atno 18299 bound_to 18278
  228.2316   36.2361   10.9668 H   0  0  0  0  0  0  0  0  0  0  0  0  # atno 18327 bound_to 18313
  231.0039   36.2412   10.9371 H   0  0  0  0  0  0  0  0  0  0  0  0  # atno 18409 bound_to 18361
  233.6537   34.9502    9.8608 H   0  0  0  0  0  0  0  0  0  0  0  0  # atno 18495 bound_to 18453
  229.8267   27.9183    8.0715 H   0  0  0  0  0  0  0  0  0  0  0  0  # atno 18503 bound_to 18464
  234.9993   32.8019   12.1280 H   0  0  0  0  0  0  0  0  0  0  0  0  # atno 18563 bound_to 18529
  237.6517   30.1709   11.5896 H   0  0  0  0  0  0  0  0  0  0  0  0  # atno 18603 bound_to 18589
  237.2258   26.8053   14.8697 H   0  0  0  0  0  0  0  0  0  0  0  0  # atno 18657 bound_to 18629
  236.3797   27.5556   11.6111 H   0  0  0  0  0  0  0  0  0  0  0  0  # atno 18713 bound_to 18683
  236.0426   26.5256    9.8265 H   0  0  0  0  0  0  0  0  0  0  0  0  # atno 18779 bound_to 18741
  237.6990   25.3984    8.4316 H   0  0  0  0  0  0  0  0  0  0  0  0  # atno 18823 bound_to 18809
  238.9690   22.5616    9.9579 H   0  0  0  0  0  0  0  0  0  0  0  0  # atno 18875 bound_to 18843
  236.1776   22.0207   12.5859 H   0  0  0  0  0  0  0  0  0  0  0  0  # atno 18963 bound_to 18915
  233.8113   20.8082   10.4318 H   0  0  0  0  0  0  0  0  0  0  0  0  # atno 19029 bound_to 19005
  233.9492   20.9528    7.2750 H   0  0  0  0  0  0  0  0  0  0  0  0  # atno 19103 bound_to 19061
  239.3195   35.4469    9.2620 H   0  0  0  0  0  0  0  0  0  0  0  0  # atno 22447 bound_to 22415
  226.4776   26.8916    5.9767 LP  0  0  0  0  0  0  0  0  0  0  0  0  # atno 27193 bound_to 16956
  227.6027   27.7131    6.8286 LP  0  0  0  0  0  0  0  0  0  0  0  0  # atno 27194 bound_to 16956
  230.1890   28.0736    6.4930 LP  0  0  0  0  0  0  0  0  0  0  0  0  # atno 27195 bound_to 18464
  229.1673   29.1286    7.2070 LP  0  0  0  0  0  0  0  0  0  0  0  0  # atno 27196 bound_to 18464
  235.1517   31.6458   10.8218 LP  0  0  0  0  0  0  0  0  0  0  0  0  # atno 27197 bound_to 18529
  235.9684   29.0348   12.0690 LP  0  0  0  0  0  0  0  0  0  0  0  0  # atno 27198 bound_to 18532
  236.0728   29.2110   10.3491 LP  0  0  0  0  0  0  0  0  0  0  0  0  # atno 27199 bound_to 18532
  237.0456   24.0069   11.4281 LP  0  0  0  0  0  0  0  0  0  0  0  0  # atno 27200 bound_to 18626
  236.1346   24.1740   12.8917 LP  0  0  0  0  0  0  0  0  0  0  0  0  # atno 27201 bound_to 18626
  236.6202   26.1829   12.6582 LP  0  0  0  0  0  0  0  0  0  0  0  0  # atno 27202 bound_to 18683
  233.6761   23.9573   11.4301 LP  0  0  0  0  0  0  0  0  0  0  0  0  # atno 27203 bound_to 18686
  233.4094   24.1890    9.7344 LP  0  0  0  0  0  0  0  0  0  0  0  0  # atno 27204 bound_to 18686
  234.4871   25.8389   10.2290 LP  0  0  0  0  0  0  0  0  0  0  0  0  # atno 27209 bound_to 18741
  236.0242   21.6093   10.8991 LP  0  0  0  0  0  0  0  0  0  0  0  0  # atno 27210 bound_to 18915
  233.5617   22.5249   10.2334 LP  0  0  0  0  0  0  0  0  0  0  0  0  # atno 27211 bound_to 19005
  227.6048   34.7577    8.9034 LP  0  0  0  0  0  0  0  0  0  0  0  0  # atno 27223 bound_to 17126
  226.4503   34.1373   10.0357 LP  0  0  0  0  0  0  0  0  0  0  0  0  # atno 27224 bound_to 17126
  226.4775   33.0256    7.9927 LP  0  0  0  0  0  0  0  0  0  0  0  0  # atno 27225 bound_to 17175
  224.1500   31.8633    9.9286 LP  0  0  0  0  0  0  0  0  0  0  0  0  # atno 27226 bound_to 17219
  225.9349   28.6268    4.3516 LP  0  0  0  0  0  0  0  0  0  0  0  0  # atno 27227 bound_to 11604
  224.6382   28.3170    5.4573 LP  0  0  0  0  0  0  0  0  0  0  0  0  # atno 27228 bound_to 11604
  227.2915   31.4706    5.5164 LP  0  0  0  0  0  0  0  0  0  0  0  0  # atno 27231 bound_to 17052
  226.5164   32.8352    4.7835 LP  0  0  0  0  0  0  0  0  0  0  0  0  # atno 27232 bound_to 17052
  235.0594   22.5547    8.4103 LP  0  0  0  0  0  0  0  0  0  0  0  0  # atno 27233 bound_to 18744
  236.4150   22.4040    7.3428 LP  0  0  0  0  0  0  0  0  0  0  0  0  # atno 27234 bound_to 18744
  238.3075   27.0863    8.7319 LP  0  0  0  0  0  0  0  0  0  0  0  0  # atno 27235 bound_to 18592
  238.0003   26.0105   10.0542 LP  0  0  0  0  0  0  0  0  0  0  0  0  # atno 27236 bound_to 18592
  236.5926   24.0990    8.8046 LP  0  0  0  0  0  0  0  0  0  0  0  0  # atno 27237 bound_to 18809
  233.7003   18.9689    9.6933 LP  0  0  0  0  0  0  0  0  0  0  0  0  # atno 27238 bound_to 18918
  232.7589   18.9067   11.1458 LP  0  0  0  0  0  0  0  0  0  0  0  0  # atno 27239 bound_to 18918
  231.6968   19.4139    7.3143 LP  0  0  0  0  0  0  0  0  0  0  0  0  # atno 27240 bound_to 19008
  233.1544   18.6968    6.7131 LP  0  0  0  0  0  0  0  0  0  0  0  0  # atno 27241 bound_to 19008
  234.8940   20.4830    8.6671 LP  0  0  0  0  0  0  0  0  0  0  0  0  # atno 27242 bound_to 19061
  222.3324   30.9397    8.7733 LP  0  0  0  0  0  0  0  0  0  0  0  0  # atno 27243 bound_to 17178
  221.8566   32.4937    8.1746 LP  0  0  0  0  0  0  0  0  0  0  0  0  # atno 27244 bound_to 17178
  233.2597   34.0871   11.7511 LP  0  0  0  0  0  0  0  0  0  0  0  0  # atno 27245 bound_to 18364
  232.4390   35.6110   11.8145 LP  0  0  0  0  0  0  0  0  0  0  0  0  # atno 27246 bound_to 18364
  233.2356   34.1251    8.3780 LP  0  0  0  0  0  0  0  0  0  0  0  0  # atno 27247 bound_to 18453
  220.0605   28.8736   11.1893 LP  0  0  0  0  0  0  0  0  0  0  0  0  # atno 27248 bound_to 11412
  221.7411   28.5820   10.8883 LP  0  0  0  0  0  0  0  0  0  0  0  0  # atno 27249 bound_to 11412
  223.0766   34.8068   10.9146 LP  0  0  0  0  0  0  0  0  0  0  0  0  # atno 27250 bound_to 18206
  224.7652   34.9944   11.2511 LP  0  0  0  0  0  0  0  0  0  0  0  0  # atno 27251 bound_to 18206
  221.6227   33.9437   11.1753 LP  0  0  0  0  0  0  0  0  0  0  0  0  # atno 27254 bound_to 17222
  220.2509   33.5174   12.1429 LP  0  0  0  0  0  0  0  0  0  0  0  0  # atno 27255 bound_to 17222
  224.5065   37.4648   11.8663 LP  0  0  0  0  0  0  0  0  0  0  0  0  # atno 27256 bound_to 18273
  227.4135   37.7170   10.5237 LP  0  0  0  0  0  0  0  0  0  0  0  0  # atno 27257 bound_to 18313
  231.4041   37.8348   10.3335 LP  0  0  0  0  0  0  0  0  0  0  0  0  # atno 27258 bound_to 18361
  230.7418   38.4955    8.2383 LP  0  0  0  0  0  0  0  0  0  0  0  0  # atno 27259 bound_to 18316
  229.5387   37.2496    8.2174 LP  0  0  0  0  0  0  0  0  0  0  0  0  # atno 27260 bound_to 18316
  236.1616   34.7380   10.5670 LP  0  0  0  0  0  0  0  0  0  0  0  0  # atno 27261 bound_to 18456
  237.1231   33.4535    9.9147 LP  0  0  0  0  0  0  0  0  0  0  0  0  # atno 27262 bound_to 18456
  234.1643   35.2053   19.1592 LP  0  0  0  0  0  0  0  0  0  0  0  0  # atno 27263 bound_to 7513
  226.7867   39.6993   10.1893 LP  0  0  0  0  0  0  0  0  0  0  0  0  # atno 27264 bound_to 18276
  226.9560   39.4100   11.8886 LP  0  0  0  0  0  0  0  0  0  0  0  0  # atno 27265 bound_to 18276
  232.3012   33.2514   21.1618 LP  0  0  0  0  0  0  0  0  0  0  0  0  # atno 27266 bound_to 7455
  231.0623   34.4200    5.6058 LP  0  0  0  0  0  0  0  0  0  0  0  0  # atno 27267 bound_to 17016
  232.6132   33.9563    4.9898 LP  0  0  0  0  0  0  0  0  0  0  0  0  # atno 27268 bound_to 17016
  238.9063   31.1717   10.9022 LP  0  0  0  0  0  0  0  0  0  0  0  0  # atno 27269 bound_to 18589
  230.2995   42.1782   12.8403 LP  0  0  0  0  0  0  0  0  0  0  0  0  # atno 27270 bound_to 10094
  230.1055   41.3725   11.4332 LP  0  0  0  0  0  0  0  0  0  0  0  0  # atno 27271 bound_to 10094
  226.3640   38.7815    8.1205 LP  0  0  0  0  0  0  0  0  0  0  0  0  # atno 27272 bound_to 18278
  224.9411   38.7989    8.9216 LP  0  0  0  0  0  0  0  0  0  0  0  0  # atno 27273 bound_to 18278
  220.5523   27.3178    7.8089 LP  0  0  0  0  0  0  0  0  0  0  0  0  # atno 27274 bound_to 11459
  231.3199   29.6981    3.7796 LP  0  0  0  0  0  0  0  0  0  0  0  0  # atno 27275 bound_to 16948
  232.4965   30.9690    3.7620 LP  0  0  0  0  0  0  0  0  0  0  0  0  # atno 27276 bound_to 16948

> <Gold.Score>
     Fitness  S(hb_ext) S(vdw_ext)  S(hb_int)    S(int)      intcor
     38.62       1.54      30.78       0.00      -5.24      -0.77

> <Gold.Goldscore.Fitness>
38.6166

> <Gold.Goldscore.Internal.Vdw>
-5.0208

> <Gold.Goldscore.Internal.Torsion>
-0.9905

> <Gold.Goldscore.External.Vdw>
30.7767

> <Gold.Goldscore.Internal.HBond>
0.0000

> <Gold.Goldscore.External.HBond>
1.5407

> <Gold.Goldscore.Internal.Correction>
-0.7693

> <Gold.Goldscore.Hbonds>
donor molecule, donor type, donor heavy atom, donor atom, acceptor molecule, acceptor atom, score
      P1  H 18361 18409       L1    17  0.77

> <Gold.Goldscore.Internal.Vdw.Weighted>
-5.0208

> <Gold.Goldscore.Internal.Torsion.Weighted>
-0.9905

> <Gold.Goldscore.External.Vdw.Weighted>
42.3179

> <Gold.Goldscore.Internal.HBond.Weighted>
0.0000

> <Gold.Goldscore.External.HBond.Weighted>
1.5407

> <Gold.Goldscore.Internal.Correction.Weighted>
-0.7693

> <Gold.Rescore>
     Score     S(PLP)   S(hbond)     S(cho)   S(metal)  DE(clash)   DE(tors)     intcor
     34.63     -34.24       1.17       0.00       0.00       0.47       1.33       ----

> <Gold.PLP.Fitness>
34.6277

> <Gold.PLP.PLP>
-34.2448

> <Gold.PLP.part.hbond>
-3.6331

> <Gold.PLP.part.metal>
0.0000

> <Gold.PLP.part.buried>
17.7988

> <Gold.PLP.part.nonpolar>
-51.2973

> <Gold.PLP.part.repulsive>
0.6445

> <Gold.PLP.ligand.clash>
0.4693

> <Gold.PLP.ligand.torsion>
1.3265

> <Gold.PLP.Chemscore.Hbond>
1.1684

> <Gold.PLP.Chemscore.CHOScore>
0.0000

> <Gold.PLP.Chemscore.Metal>
0.0000

> <Gold.Chemscore.Hbonds>
donor molecule, donor type, donor heavy atom, donor atom, acceptor molecule, acceptor atom, score
      P1  H 18361 18409       L1    17  0.13

> <Gold.PLP.Chemscore.Internal.Correction>
   9.000000E+99

