#       Name:                CT1002167954
#       Creating user name   hitesit
#       Creation time:       Sun Apr 16 22:59:40 2023


#       File generated by GOLD software.
#

@<TRIPOS>MOLECULE
CT1002167954|ligand_prepared|mol2|1|dock2
    29    30     1
SMALL
NO_CHARGES


@<TRIPOS>ATOM
      1 C1         228.6655  24.9700  13.1482 C.3            1 RES1               0.0000
      2 C2         227.5256  25.7037  13.8839 C.ar           1 RES1               0.0000
      3 C3         228.0083  23.8454  12.3534 C.2            1 RES1               0.0000
      4 C4         229.3604  26.0177  12.2856 C.2            1 RES1               0.0000
      5 C5         229.7222  24.3514  14.0927 C.3            1 RES1               0.0000
      6 C6         227.0400  25.2232  15.0963 C.ar           1 RES1               0.0000
      7 C7         226.9524  26.8615  13.3647 C.ar           1 RES1               0.0000
      8 N8         227.9136  23.9989  11.0016 N.am           1 RES1               0.0000
      9 O9         227.5449  22.8568  12.9085 O.2            1 RES1               0.0000
     10 N10        229.2844  25.8816  10.9242 N.am           1 RES1               0.0000
     11 O11        229.9589  26.9690  12.7725 O.2            1 RES1               0.0000
     12 C12        230.9138  23.7465  13.3672 C.3            1 RES1               0.0000
     13 C13        226.0205  25.8781  15.7671 C.ar           1 RES1               0.0000
     14 C14        225.9327  27.5148  14.0371 C.ar           1 RES1               0.0000
     15 C15        228.5666  24.9368  10.2429 C.2            1 RES1               0.0000
     16 C16        225.4665  27.0244  15.2383 C.ar           1 RES1               0.0000
     17 O17        228.5028  24.9119   9.0171 O.2            1 RES1               0.0000
     18 H18        230.0831  25.1294  14.7767 H              1 RES1               0.0000
     19 H19        229.2428  23.5706  14.6960 H              1 RES1               0.0000
     20 H20        227.4620  24.3211  15.5268 H              1 RES1               0.0000
     21 H21        227.3026  27.2649  12.4207 H              1 RES1               0.0000
     22 H22        227.3003  23.3571  10.5093 H              1 RES1               0.0000
     23 H23        229.8120  26.5461  10.3671 H              1 RES1               0.0000
     24 H24        231.6245  23.3267  14.0760 H              1 RES1               0.0000
     25 H25        230.5942  22.9515  12.6966 H              1 RES1               0.0000
     26 H26        231.4296  24.5010  12.7768 H              1 RES1               0.0000
     27 H27        225.6562  25.4874  16.7115 H              1 RES1               0.0000
     28 H28        225.4993  28.4163  13.6168 H              1 RES1               0.0000
     29 H29        224.6681  27.5375  15.7641 H              1 RES1               0.0000
@<TRIPOS>BOND
    1    1    2 1     
    2    1    3 1     
    3    1    4 1     
    4    1    5 1     
    5    2    6 ar    
    6    2    7 ar    
    7    3    8 1     
    8    3    9 2     
    9    4   10 1     
   10    4   11 2     
   11    5   12 1     
   12    5   18 1     
   13    5   19 1     
   14    6   13 ar    
   15    6   20 1     
   16    7   14 ar    
   17    7   21 1     
   18    8   15 1     
   19    8   22 1     
   20   10   15 1     
   21   10   23 1     
   22   12   24 1     
   23   12   25 1     
   24   12   26 1     
   25   13   16 ar    
   26   13   27 1     
   27   14   16 ar    
   28   14   28 1     
   29   15   17 2     
   30   16   29 1     
@<TRIPOS>SUBSTRUCTURE
      1 RES1           1
@<TRIPOS>SET
DONOR_HYDROGENS      STATIC     ATOMS    <user>   **** ""
2 22 23
ATOM$RED        STATIC     ATOMS    COLORGROUP SYSTEM
2 22 23
@<TRIPOS>COMMENT
> <Gold.Version>
2022.3.0

> <Gold.Id.Protein>
unknown|4d1n_clean|pdb

> <Gold.Protein.RotatedTorsions>
[ 16995 16956 16955 16953 ] final   52.99 input   60.02 | X-H torsion
[ 18503 18464 18463 18461 ] final -155.16 input   59.99 | X-H torsion
[ 18563 18529 18530 18531 ] final -109.56 input   85.91 | X-H torsion
[ 18713 18683 18684 18685 ] final  -20.52 input  120.10 | X-H torsion
[ 18779 18741 18742 18743 ] final  -93.77 input   94.66 | X-H torsion
[ 18963 18915 18916 18917 ] final  101.01 input   99.61 | X-H torsion
[ 19029 19005 19006 19007 ] final -149.72 input  120.28 | X-H torsion
[ 17195 17175 17176 17177 ] final  -84.53 input   50.47 | X-H torsion
[ 17251 17219 17220 17221 ] final -121.43 input  121.85 | X-H torsion
[ 18823 18809 18810 18811 ] final   53.41 input  109.66 | X-H torsion
[ 19103 19061 19062 19063 ] final -122.92 input   93.64 | X-H torsion
[ 18495 18453 18454 18455 ] final   61.89 input  105.49 | X-H torsion
[ 18295 18273 18274 18275 ] final   78.15 input   34.55 | X-H torsion
[ 18327 18313 18314 18315 ] final    5.91 input   52.32 | X-H torsion
[ 18409 18361 18362 18363 ] final -108.05 input   29.77 | X-H torsion
[ 7524 7513 7514 7515 ] final  -93.01 input   82.77 | X-H torsion
[ 7477 7455 7456 7457 ] final  158.25 input   99.19 | X-H torsion
[ 18603 18589 18590 18591 ] final -134.11 input  124.64 | X-H torsion
[ 10105 10094 10093 10090 ] final   44.53 input   59.99 | X-H torsion
[ 18299 18278 18277 18274 ] final   -0.47 input   60.00 | X-H torsion
[ 11477 11459 11460 11461 ] final   -8.14 input   48.11 | X-H torsion
[ 18657 18629 18627 18624 ] final  176.74 input   60.03 | X-H torsion
[ 11425 11414 11413 11410 ] final  -27.17 input   60.02 | X-H torsion
[ 18875 18843 18844 18845 ] final   24.85 input   86.72 | X-H torsion
[ 17303 17281 17282 17283 ] final  105.28 input   51.85 | X-H torsion
[ 22447 22415 22416 22417 ] final  130.73 input   56.20 | X-H torsion
[ 18243 18203 18204 18205 ] final    8.15 input   41.90 | X-H torsion
[ 11805 11781 11782 11783 ] final  -91.28 input   87.31 | X-H torsion
[ 16987 16945 16946 16947 ] final -170.19 input   84.34 | X-H torsion
[ 27198 18532 18531 18530 ] final -109.69 input   -0.00 | X-H torsion
[ 27200 18626 18625 18624 ] final   98.44 input    0.00 | X-H torsion
[ 27203 18686 18685 18684 ] final   36.56 input   -0.00 | X-H torsion
[ 27223 17126 17125 17124 ] final  -87.19 input    0.00 | X-H torsion
[ 27227 11604 11603 11602 ] final  -40.78 input    0.00 | X-H torsion
[ 27231 17052 17051 17050 ] final   47.81 input   -0.00 | X-H torsion
[ 27233 18744 18743 18742 ] final -142.03 input   -0.00 | X-H torsion
[ 27235 18592 18591 18590 ] final   26.72 input   -0.00 | X-H torsion
[ 27238 18918 18917 18916 ] final  125.16 input    0.00 | X-H torsion
[ 27240 19008 19007 19006 ] final   -1.41 input    0.00 | X-H torsion
[ 27243 17178 17177 17176 ] final   63.28 input    0.00 | X-H torsion
[ 27245 18364 18363 18362 ] final -139.22 input    0.00 | X-H torsion
[ 27248 11412 11411 11410 ] final  -87.19 input   -0.00 | X-H torsion
[ 27250 18206 18205 18204 ] final   98.44 input   -0.00 | X-H torsion
[ 27254 17222 17221 17220 ] final -158.91 input   -0.00 | X-H torsion
[ 27259 18316 18315 18314 ] final   50.62 input   -0.00 | X-H torsion
[ 27261 18456 18455 18454 ] final  163.12 input    0.00 | X-H torsion
[ 27264 18276 18275 18274 ] final  -74.53 input    0.00 | X-H torsion
[ 27267 17016 17015 17014 ] final   74.53 input    0.00 | X-H torsion
[ 27275 16948 16947 16946 ] final  -82.97 input   -0.00 | X-H torsion

> <Gold.Protein.ActiveResidues>
 TRP414  CYS420  VAL421  GLY422  LEU460  SER462  SER482  GLN483  ILE485  ARG486 
 TYR487  ASP500  ASN503  TRP566  TYR567  GLY568  LEU569  PRO570  ALA571  VAL572 
 SER573  ASN574  PHE589  SER590  GLY591  TRP592  TYR593  MET594  GLY595  THR596 
 GLU597  ILE598  GLY599  VAL600  ARG601  ASP602  TYR603  ARG608  ILE653  VAL654 
 TRP683  PRO687  HEM750  H4B760 

> <Gold.Protein.RotatedAtoms>
  232.6282   32.6442   20.5110 H   0  0  0  0  0  0  0  0  0  0  0  0  # atno 7477 bound_to 7455
  234.1851   35.6391   19.7505 H   0  0  0  0  0  0  0  0  0  0  0  0  # atno 7524 bound_to 7513
  230.3034   41.8302   11.5856 H   0  0  0  0  0  0  0  0  0  0  0  0  # atno 10105 bound_to 10094
  220.7336   25.0887    8.5001 H   0  0  0  0  0  0  0  0  0  0  0  0  # atno 11425 bound_to 11414
  220.2182   27.6299    7.9142 H   0  0  0  0  0  0  0  0  0  0  0  0  # atno 11477 bound_to 11459
  224.2650   24.7050    2.0675 H   0  0  0  0  0  0  0  0  0  0  0  0  # atno 11805 bound_to 11781
  231.1835   27.8095    0.8139 H   0  0  0  0  0  0  0  0  0  0  0  0  # atno 16987 bound_to 16945
  226.6465   27.5682    6.3983 H   0  0  0  0  0  0  0  0  0  0  0  0  # atno 16995 bound_to 16956
  226.3934   32.3869    8.8170 H   0  0  0  0  0  0  0  0  0  0  0  0  # atno 17195 bound_to 17175
  224.1102   31.8267    9.9013 H   0  0  0  0  0  0  0  0  0  0  0  0  # atno 17251 bound_to 17219
  220.8181   30.5756   10.4212 H   0  0  0  0  0  0  0  0  0  0  0  0  # atno 17303 bound_to 17281
  221.5499   35.3724   11.0324 H   0  0  0  0  0  0  0  0  0  0  0  0  # atno 18243 bound_to 18203
  224.1748   38.2893   10.4717 H   0  0  0  0  0  0  0  0  0  0  0  0  # atno 18295 bound_to 18273
  225.4325   38.9390    9.0192 H   0  0  0  0  0  0  0  0  0  0  0  0  # atno 18299 bound_to 18278
  228.1981   36.5110   10.0983 H   0  0  0  0  0  0  0  0  0  0  0  0  # atno 18327 bound_to 18313
  230.5358   36.7740   10.1169 H   0  0  0  0  0  0  0  0  0  0  0  0  # atno 18409 bound_to 18361
  234.1793   34.6103    8.6288 H   0  0  0  0  0  0  0  0  0  0  0  0  # atno 18495 bound_to 18453
  229.9194   28.4895    6.3507 H   0  0  0  0  0  0  0  0  0  0  0  0  # atno 18503 bound_to 18464
  235.4723   32.9098   11.0742 H   0  0  0  0  0  0  0  0  0  0  0  0  # atno 18563 bound_to 18529
  237.8971   31.1126   10.5837 H   0  0  0  0  0  0  0  0  0  0  0  0  # atno 18603 bound_to 18589
  238.3343   27.0695   15.5547 H   0  0  0  0  0  0  0  0  0  0  0  0  # atno 18657 bound_to 18629
  236.7663   26.2192   11.6107 H   0  0  0  0  0  0  0  0  0  0  0  0  # atno 18713 bound_to 18683
  234.5968   25.6658   10.3183 H   0  0  0  0  0  0  0  0  0  0  0  0  # atno 18779 bound_to 18741
  237.3801   24.8416    9.4638 H   0  0  0  0  0  0  0  0  0  0  0  0  # atno 18823 bound_to 18809
  237.3173   22.9990   10.2823 H   0  0  0  0  0  0  0  0  0  0  0  0  # atno 18875 bound_to 18843
  235.7635   22.6119   11.8630 H   0  0  0  0  0  0  0  0  0  0  0  0  # atno 18963 bound_to 18915
  232.9343   21.8660   10.7495 H   0  0  0  0  0  0  0  0  0  0  0  0  # atno 19029 bound_to 19005
  233.7689   20.7053    7.3898 H   0  0  0  0  0  0  0  0  0  0  0  0  # atno 19103 bound_to 19061
  238.1754   35.5268   10.1921 H   0  0  0  0  0  0  0  0  0  0  0  0  # atno 22447 bound_to 22415
  228.1804   27.1417    6.7342 LP  0  0  0  0  0  0  0  0  0  0  0  0  # atno 27193 bound_to 16956
  227.2279   26.1493    5.8541 LP  0  0  0  0  0  0  0  0  0  0  0  0  # atno 27194 bound_to 16956
  229.1409   28.9658    7.6976 LP  0  0  0  0  0  0  0  0  0  0  0  0  # atno 27195 bound_to 18464
  230.1220   27.6610    7.7362 LP  0  0  0  0  0  0  0  0  0  0  0  0  # atno 27196 bound_to 18464
  234.6943   31.5413   11.8409 LP  0  0  0  0  0  0  0  0  0  0  0  0  # atno 27197 bound_to 18529
  236.4790   28.6229   11.7474 LP  0  0  0  0  0  0  0  0  0  0  0  0  # atno 27198 bound_to 18532
  235.5622   29.6229   10.6707 LP  0  0  0  0  0  0  0  0  0  0  0  0  # atno 27199 bound_to 18532
  236.3701   24.1208   12.9970 LP  0  0  0  0  0  0  0  0  0  0  0  0  # atno 27200 bound_to 18626
  236.8102   24.0601   11.3228 LP  0  0  0  0  0  0  0  0  0  0  0  0  # atno 27201 bound_to 18626
  236.2369   27.5077   12.6587 LP  0  0  0  0  0  0  0  0  0  0  0  0  # atno 27202 bound_to 18683
  232.9599   24.4593   11.0933 LP  0  0  0  0  0  0  0  0  0  0  0  0  # atno 27203 bound_to 18686
  234.1256   23.6869   10.0713 LP  0  0  0  0  0  0  0  0  0  0  0  0  # atno 27204 bound_to 18686
  235.9008   26.6796    9.7481 LP  0  0  0  0  0  0  0  0  0  0  0  0  # atno 27209 bound_to 18741
  236.4351   21.0225   11.6165 LP  0  0  0  0  0  0  0  0  0  0  0  0  # atno 27210 bound_to 18915
  234.4235   21.4854    9.9211 LP  0  0  0  0  0  0  0  0  0  0  0  0  # atno 27211 bound_to 19005
  227.1034   33.9496   10.1740 LP  0  0  0  0  0  0  0  0  0  0  0  0  # atno 27223 bound_to 17126
  226.9517   34.9454    8.7650 LP  0  0  0  0  0  0  0  0  0  0  0  0  # atno 27224 bound_to 17126
  225.6711   32.1741    7.2460 LP  0  0  0  0  0  0  0  0  0  0  0  0  # atno 27225 bound_to 17175
  223.6925   33.2844   10.7785 LP  0  0  0  0  0  0  0  0  0  0  0  0  # atno 27226 bound_to 17219
  225.6804   29.1515    4.5396 LP  0  0  0  0  0  0  0  0  0  0  0  0  # atno 27227 bound_to 11604
  224.8927   27.7924    5.2693 LP  0  0  0  0  0  0  0  0  0  0  0  0  # atno 27228 bound_to 11604
  227.3587   31.9345    4.4460 LP  0  0  0  0  0  0  0  0  0  0  0  0  # atno 27231 bound_to 17052
  226.4492   32.3712    5.8539 LP  0  0  0  0  0  0  0  0  0  0  0  0  # atno 27232 bound_to 17052
  236.2692   22.1590    8.4801 LP  0  0  0  0  0  0  0  0  0  0  0  0  # atno 27233 bound_to 18744
  235.2052   22.7997    7.2730 LP  0  0  0  0  0  0  0  0  0  0  0  0  # atno 27234 bound_to 18744
  238.6034   26.9641    8.7806 LP  0  0  0  0  0  0  0  0  0  0  0  0  # atno 27235 bound_to 18592
  237.7044   26.1326   10.0055 LP  0  0  0  0  0  0  0  0  0  0  0  0  # atno 27236 bound_to 18592
  236.9047   24.6438    7.7945 LP  0  0  0  0  0  0  0  0  0  0  0  0  # atno 27237 bound_to 18809
  232.4089   19.1751   10.2775 LP  0  0  0  0  0  0  0  0  0  0  0  0  # atno 27238 bound_to 18918
  234.0503   18.7004   10.5617 LP  0  0  0  0  0  0  0  0  0  0  0  0  # atno 27239 bound_to 18918
  231.7044   19.3691    7.3762 LP  0  0  0  0  0  0  0  0  0  0  0  0  # atno 27240 bound_to 19008
  233.1468   18.7415    6.6513 LP  0  0  0  0  0  0  0  0  0  0  0  0  # atno 27241 bound_to 19008
  235.0705   20.7253    8.5546 LP  0  0  0  0  0  0  0  0  0  0  0  0  # atno 27242 bound_to 19061
  222.6549   31.2421    8.0149 LP  0  0  0  0  0  0  0  0  0  0  0  0  # atno 27243 bound_to 17178
  221.5341   32.1912    8.9330 LP  0  0  0  0  0  0  0  0  0  0  0  0  # atno 27244 bound_to 17178
  233.6593   34.5476   11.8391 LP  0  0  0  0  0  0  0  0  0  0  0  0  # atno 27245 bound_to 18364
  232.0395   35.1505   11.7265 LP  0  0  0  0  0  0  0  0  0  0  0  0  # atno 27246 bound_to 18364
  232.7223   34.4572    9.5815 LP  0  0  0  0  0  0  0  0  0  0  0  0  # atno 27247 bound_to 18453
  220.2460   29.2631   10.8522 LP  0  0  0  0  0  0  0  0  0  0  0  0  # atno 27248 bound_to 11412
  221.5555   28.1926   11.2254 LP  0  0  0  0  0  0  0  0  0  0  0  0  # atno 27249 bound_to 11412
  223.6887   34.9388   10.2494 LP  0  0  0  0  0  0  0  0  0  0  0  0  # atno 27250 bound_to 18206
  224.1532   34.8624   11.9162 LP  0  0  0  0  0  0  0  0  0  0  0  0  # atno 27251 bound_to 18206
  220.1097   33.5392   11.8299 LP  0  0  0  0  0  0  0  0  0  0  0  0  # atno 27254 bound_to 17222
  221.7640   33.9219   11.4883 LP  0  0  0  0  0  0  0  0  0  0  0  0  # atno 27255 bound_to 17222
  224.2458   37.0213   11.6675 LP  0  0  0  0  0  0  0  0  0  0  0  0  # atno 27256 bound_to 18273
  227.4461   37.4498   11.3680 LP  0  0  0  0  0  0  0  0  0  0  0  0  # atno 27257 bound_to 18313
  231.8572   37.3191   11.1273 LP  0  0  0  0  0  0  0  0  0  0  0  0  # atno 27258 bound_to 18361
  230.0086   38.7057    8.4242 LP  0  0  0  0  0  0  0  0  0  0  0  0  # atno 27259 bound_to 18316
  230.2720   37.0394    8.0315 LP  0  0  0  0  0  0  0  0  0  0  0  0  # atno 27260 bound_to 18316
  236.9972   34.0027   11.0253 LP  0  0  0  0  0  0  0  0  0  0  0  0  # atno 27261 bound_to 18456
  236.2875   34.1889    9.4563 LP  0  0  0  0  0  0  0  0  0  0  0  0  # atno 27262 bound_to 18456
  232.6082   35.3506   19.0534 LP  0  0  0  0  0  0  0  0  0  0  0  0  # atno 27263 bound_to 7513
  226.8112   39.7025   10.1878 LP  0  0  0  0  0  0  0  0  0  0  0  0  # atno 27264 bound_to 18276
  226.9314   39.4068   11.8901 LP  0  0  0  0  0  0  0  0  0  0  0  0  # atno 27265 bound_to 18276
  232.0927   34.2679   20.1481 LP  0  0  0  0  0  0  0  0  0  0  0  0  # atno 27266 bound_to 7455
  232.0242   34.9320    4.8953 LP  0  0  0  0  0  0  0  0  0  0  0  0  # atno 27267 bound_to 17016
  231.6513   33.4444    5.7003 LP  0  0  0  0  0  0  0  0  0  0  0  0  # atno 27268 bound_to 17016
  238.6652   30.2464   11.8906 LP  0  0  0  0  0  0  0  0  0  0  0  0  # atno 27269 bound_to 18589
  229.5912   40.5699   12.3276 LP  0  0  0  0  0  0  0  0  0  0  0  0  # atno 27270 bound_to 10094
  230.0935   41.8567   13.1985 LP  0  0  0  0  0  0  0  0  0  0  0  0  # atno 27271 bound_to 10094
  224.6425   38.2752    7.7605 LP  0  0  0  0  0  0  0  0  0  0  0  0  # atno 27272 bound_to 18278
  226.2449   38.5726    7.6573 LP  0  0  0  0  0  0  0  0  0  0  0  0  # atno 27273 bound_to 18278
  221.2993   27.3886    9.2772 LP  0  0  0  0  0  0  0  0  0  0  0  0  # atno 27274 bound_to 11459
  231.1025   30.3643    4.0870 LP  0  0  0  0  0  0  0  0  0  0  0  0  # atno 27275 bound_to 16948
  232.7139   30.3028    3.4546 LP  0  0  0  0  0  0  0  0  0  0  0  0  # atno 27276 bound_to 16948

> <Gold.Score>
     Fitness  S(hb_ext) S(vdw_ext)  S(hb_int)    S(int)      intcor
     26.87       3.33      18.00       0.00      -1.20      -0.79

> <Gold.Goldscore.Fitness>
26.8727

> <Gold.Goldscore.Internal.Vdw>
-1.5808

> <Gold.Goldscore.Internal.Torsion>
-0.4143

> <Gold.Goldscore.External.Vdw>
17.9993

> <Gold.Goldscore.Internal.HBond>
0.0000

> <Gold.Goldscore.External.HBond>
3.3276

> <Gold.Goldscore.Internal.Correction>
-0.7912

> <Gold.Goldscore.Hbonds>
donor molecule, donor type, donor heavy atom, donor atom, acceptor molecule, acceptor atom, score
      P1  H 11466 11483       L1    17  0.01
      P1  H 19345 19394       L1    17  0.55

> <Gold.Goldscore.Internal.Vdw.Weighted>
-1.5808

> <Gold.Goldscore.Internal.Torsion.Weighted>
-0.4143

> <Gold.Goldscore.External.Vdw.Weighted>
24.7491

> <Gold.Goldscore.Internal.HBond.Weighted>
0.0000

> <Gold.Goldscore.External.HBond.Weighted>
3.3276

> <Gold.Goldscore.Internal.Correction.Weighted>
-0.7912

> <Gold.Rescore>
     Score     S(PLP)   S(hbond)     S(cho)   S(metal)  DE(clash)   DE(tors)     intcor
     15.50     -17.67       0.06       0.00       0.00       0.63       0.86       ----

> <Gold.PLP.Fitness>
15.4954

> <Gold.PLP.PLP>
-17.6741

> <Gold.PLP.part.hbond>
-5.1814

> <Gold.PLP.part.metal>
0.0000

> <Gold.PLP.part.buried>
-1.2344

> <Gold.PLP.part.nonpolar>
-17.4992

> <Gold.PLP.part.repulsive>
4.4526

> <Gold.PLP.ligand.clash>
0.6314

> <Gold.PLP.ligand.torsion>
0.8637

> <Gold.PLP.Chemscore.Hbond>
0.0601

> <Gold.PLP.Chemscore.CHOScore>
0.0000

> <Gold.PLP.Chemscore.Metal>
0.0000

> <Gold.Chemscore.Hbonds>
donor molecule, donor type, donor heavy atom, donor atom, acceptor molecule, acceptor atom, score
      P1  H 11466 11483       L1    17  0.01
      P1  H 19345 19394       L1    17  0.24

> <Gold.PLP.Chemscore.Internal.Correction>
   9.000000E+99

