#       Name:                CT1002167954
#       Creating user name   hitesit
#       Creation time:       Sun Apr 16 22:59:44 2023


#       File generated by GOLD software.
#

@<TRIPOS>MOLECULE
CT1002167954|ligand_prepared|mol2|1|dock6
    29    30     1
SMALL
NO_CHARGES


@<TRIPOS>ATOM
      1 C1         228.6511  26.1829  11.9096 C.3            1 RES1               0.0000
      2 C2         229.5693  25.5624  12.9822 C.ar           1 RES1               0.0000
      3 C3         229.3079  25.8923  10.5632 C.2            1 RES1               0.0000
      4 C4         227.2846  25.5309  12.0888 C.2            1 RES1               0.0000
      5 C5         228.4726  27.7127  12.0490 C.3            1 RES1               0.0000
      6 C6         230.7792  26.1648  13.3139 C.ar           1 RES1               0.0000
      7 C7         229.2195  24.3914  13.6493 C.ar           1 RES1               0.0000
      8 N8         228.7384  24.9355   9.7759 N.am           1 RES1               0.0000
      9 O9         230.3325  26.4660  10.2151 O.2            1 RES1               0.0000
     10 N10        226.8177  24.7305  11.0793 N.am           1 RES1               0.0000
     11 O11        226.6152  25.6898  13.1022 O.2            1 RES1               0.0000
     12 C12        228.4732  28.2013  13.4889 C.3            1 RES1               0.0000
     13 C13        231.6079  25.6181  14.2797 C.ar           1 RES1               0.0000
     14 C14        230.0498  23.8462  14.6146 C.ar           1 RES1               0.0000
     15 C15        227.4961  24.3786   9.9443 C.2            1 RES1               0.0000
     16 C16        231.2437  24.4589  14.9309 C.ar           1 RES1               0.0000
     17 O17        227.0310  23.6098   9.1078 O.2            1 RES1               0.0000
     18 H18        229.2833  28.2138  11.5057 H              1 RES1               0.0000
     19 H19        227.5248  28.0019  11.5785 H              1 RES1               0.0000
     20 H20        231.0837  27.0762  12.8103 H              1 RES1               0.0000
     21 H21        228.2855  23.8916  13.4160 H              1 RES1               0.0000
     22 H22        229.2869  24.6032   8.9891 H              1 RES1               0.0000
     23 H23        225.8773  24.3630  11.1835 H              1 RES1               0.0000
     24 H24        228.3448  29.2809  13.5299 H              1 RES1               0.0000
     25 H25        227.6637  27.7422  14.0524 H              1 RES1               0.0000
     26 H26        229.4117  27.9527  13.9802 H              1 RES1               0.0000
     27 H27        232.5471  26.1034  14.5240 H              1 RES1               0.0000
     28 H28        229.7594  22.9334  15.1241 H              1 RES1               0.0000
     29 H29        231.8929  24.0310  15.6877 H              1 RES1               0.0000
@<TRIPOS>BOND
    1    1    2 1     
    2    1    3 1     
    3    1    4 1     
    4    1    5 1     
    5    2    6 ar    
    6    2    7 ar    
    7    3    8 1     
    8    3    9 2     
    9    4   10 1     
   10    4   11 2     
   11    5   12 1     
   12    5   18 1     
   13    5   19 1     
   14    6   13 ar    
   15    6   20 1     
   16    7   14 ar    
   17    7   21 1     
   18    8   15 1     
   19    8   22 1     
   20   10   15 1     
   21   10   23 1     
   22   12   24 1     
   23   12   25 1     
   24   12   26 1     
   25   13   16 ar    
   26   13   27 1     
   27   14   16 ar    
   28   14   28 1     
   29   15   17 2     
   30   16   29 1     
@<TRIPOS>SUBSTRUCTURE
      1 RES1           1
@<TRIPOS>SET
DONOR_HYDROGENS      STATIC     ATOMS    <user>   **** ""
2 22 23
ATOM$RED        STATIC     ATOMS    COLORGROUP SYSTEM
2 22 23
@<TRIPOS>COMMENT
> <Gold.Version>
2022.3.0

> <Gold.Id.Protein>
unknown|4d1n_clean|pdb

> <Gold.Protein.RotatedTorsions>
[ 16995 16956 16955 16953 ] final  -67.39 input   60.02 | X-H torsion
[ 18503 18464 18463 18461 ] final  -70.54 input   59.99 | X-H torsion
[ 18563 18529 18530 18531 ] final   96.58 input   85.91 | X-H torsion
[ 18713 18683 18684 18685 ] final  144.12 input  120.10 | X-H torsion
[ 18779 18741 18742 18743 ] final -165.44 input   94.66 | X-H torsion
[ 18963 18915 18916 18917 ] final  115.80 input   99.61 | X-H torsion
[ 19029 19005 19006 19007 ] final -125.15 input  120.28 | X-H torsion
[ 17195 17175 17176 17177 ] final  -17.79 input   50.47 | X-H torsion
[ 17251 17219 17220 17221 ] final   41.88 input  121.85 | X-H torsion
[ 18823 18809 18810 18811 ] final -154.34 input  109.66 | X-H torsion
[ 19103 19061 19062 19063 ] final   31.77 input   93.64 | X-H torsion
[ 18495 18453 18454 18455 ] final  -27.63 input  105.49 | X-H torsion
[ 18295 18273 18274 18275 ] final -149.56 input   34.55 | X-H torsion
[ 18327 18313 18314 18315 ] final -151.48 input   52.32 | X-H torsion
[ 18409 18361 18362 18363 ] final  150.75 input   29.77 | X-H torsion
[ 7524 7513 7514 7515 ] final  109.62 input   82.77 | X-H torsion
[ 7477 7455 7456 7457 ] final -104.75 input   99.19 | X-H torsion
[ 18603 18589 18590 18591 ] final  163.66 input  124.64 | X-H torsion
[ 10105 10094 10093 10090 ] final   26.05 input   59.99 | X-H torsion
[ 18299 18278 18277 18274 ] final    5.46 input   60.00 | X-H torsion
[ 11477 11459 11460 11461 ] final   29.73 input   48.11 | X-H torsion
[ 18657 18629 18627 18624 ] final   -3.27 input   60.03 | X-H torsion
[ 11425 11414 11413 11410 ] final  -79.79 input   60.02 | X-H torsion
[ 18875 18843 18844 18845 ] final -163.88 input   86.72 | X-H torsion
[ 17303 17281 17282 17283 ] final -133.73 input   51.85 | X-H torsion
[ 22447 22415 22416 22417 ] final   11.09 input   56.20 | X-H torsion
[ 18243 18203 18204 18205 ] final -100.28 input   41.90 | X-H torsion
[ 11805 11781 11782 11783 ] final -150.99 input   87.31 | X-H torsion
[ 16987 16945 16946 16947 ] final  108.86 input   84.34 | X-H torsion
[ 27198 18532 18531 18530 ] final   87.97 input   -0.00 | X-H torsion
[ 27200 18626 18625 18624 ] final   12.88 input    0.00 | X-H torsion
[ 27203 18686 18685 18684 ] final   63.43 input   -0.00 | X-H torsion
[ 27223 17126 17125 17124 ] final   22.40 input    0.00 | X-H torsion
[ 27227 11604 11603 11602 ] final  -93.37 input    0.00 | X-H torsion
[ 27231 17052 17051 17050 ] final -139.21 input   -0.00 | X-H torsion
[ 27233 18744 18743 18742 ] final   18.51 input   -0.00 | X-H torsion
[ 27235 18592 18591 18590 ] final  -43.68 input   -0.00 | X-H torsion
[ 27238 18918 18917 18916 ] final   70.27 input    0.00 | X-H torsion
[ 27240 19008 19007 19006 ] final  172.43 input    0.00 | X-H torsion
[ 27243 17178 17177 17176 ] final -142.29 input    0.00 | X-H torsion
[ 27245 18364 18363 18362 ] final  -71.50 input    0.00 | X-H torsion
[ 27248 11412 11411 11410 ] final  -92.57 input   -0.00 | X-H torsion
[ 27250 18206 18205 18204 ] final  128.13 input   -0.00 | X-H torsion
[ 27254 17222 17221 17220 ] final   67.61 input   -0.00 | X-H torsion
[ 27259 18316 18315 18314 ] final   12.64 input   -0.00 | X-H torsion
[ 27261 18456 18455 18454 ] final   64.40 input    0.00 | X-H torsion
[ 27264 18276 18275 18274 ] final  -71.90 input    0.00 | X-H torsion
[ 27267 17016 17015 17014 ] final  100.85 input    0.00 | X-H torsion
[ 27275 16948 16947 16946 ] final   -2.05 input   -0.00 | X-H torsion

> <Gold.Protein.ActiveResidues>
 TRP414  CYS420  VAL421  GLY422  LEU460  SER462  SER482  GLN483  ILE485  ARG486 
 TYR487  ASP500  ASN503  TRP566  TYR567  GLY568  LEU569  PRO570  ALA571  VAL572 
 SER573  ASN574  PHE589  SER590  GLY591  TRP592  TYR593  MET594  GLY595  THR596 
 GLU597  ILE598  GLY599  VAL600  ARG601  ASP602  TYR603  ARG608  ILE653  VAL654 
 TRP683  PRO687  HEM750  H4B760 

> <Gold.Protein.RotatedAtoms>
  232.1483   33.6979   21.1548 H   0  0  0  0  0  0  0  0  0  0  0  0  # atno 7477 bound_to 7455
  232.7925   35.1718   18.8249 H   0  0  0  0  0  0  0  0  0  0  0  0  # atno 7524 bound_to 7513
  230.1964   41.5756   11.4678 H   0  0  0  0  0  0  0  0  0  0  0  0  # atno 10105 bound_to 10094
  220.4775   24.3197    8.6798 H   0  0  0  0  0  0  0  0  0  0  0  0  # atno 11425 bound_to 11414
  220.6615   27.2877    7.7464 H   0  0  0  0  0  0  0  0  0  0  0  0  # atno 11477 bound_to 11459
  225.1206   24.9044    1.9177 H   0  0  0  0  0  0  0  0  0  0  0  0  # atno 11805 bound_to 11781
  230.8003   27.8209    1.8945 H   0  0  0  0  0  0  0  0  0  0  0  0  # atno 16987 bound_to 16945
  228.1771   27.1360    6.7273 H   0  0  0  0  0  0  0  0  0  0  0  0  # atno 16995 bound_to 16956
  225.8365   31.6389    8.5888 H   0  0  0  0  0  0  0  0  0  0  0  0  # atno 17195 bound_to 17175
  223.4828   33.3076   10.6304 H   0  0  0  0  0  0  0  0  0  0  0  0  # atno 17251 bound_to 17219
  221.0547   31.8564   11.2307 H   0  0  0  0  0  0  0  0  0  0  0  0  # atno 17303 bound_to 17281
  220.7226   36.4915   10.6849 H   0  0  0  0  0  0  0  0  0  0  0  0  # atno 18243 bound_to 18203
  223.8946   36.8330   11.0852 H   0  0  0  0  0  0  0  0  0  0  0  0  # atno 18295 bound_to 18273
  225.5275   38.9548    9.0084 H   0  0  0  0  0  0  0  0  0  0  0  0  # atno 18299 bound_to 18278
  227.3745   37.6631   11.1079 H   0  0  0  0  0  0  0  0  0  0  0  0  # atno 18327 bound_to 18313
  231.3812   37.8467   10.2728 H   0  0  0  0  0  0  0  0  0  0  0  0  # atno 18409 bound_to 18361
  233.8327   34.9797    9.7660 H   0  0  0  0  0  0  0  0  0  0  0  0  # atno 18495 bound_to 18453
  230.3069   27.6398    7.1965 H   0  0  0  0  0  0  0  0  0  0  0  0  # atno 18503 bound_to 18464
  234.6741   31.8006   12.1416 H   0  0  0  0  0  0  0  0  0  0  0  0  # atno 18563 bound_to 18529
  238.7771   31.2390   10.7786 H   0  0  0  0  0  0  0  0  0  0  0  0  # atno 18603 bound_to 18589
  237.5586   27.7196   13.9787 H   0  0  0  0  0  0  0  0  0  0  0  0  # atno 18657 bound_to 18629
  236.2430   27.6365   12.4638 H   0  0  0  0  0  0  0  0  0  0  0  0  # atno 18713 bound_to 18683
  234.4905   26.5685    9.8245 H   0  0  0  0  0  0  0  0  0  0  0  0  # atno 18779 bound_to 18741
  237.1837   24.9554    7.7645 H   0  0  0  0  0  0  0  0  0  0  0  0  # atno 18823 bound_to 18809
  239.0782   22.8679   10.2914 H   0  0  0  0  0  0  0  0  0  0  0  0  # atno 18875 bound_to 18843
  235.8230   22.5722   12.0764 H   0  0  0  0  0  0  0  0  0  0  0  0  # atno 18963 bound_to 18915
  232.9644   21.4966   10.8052 H   0  0  0  0  0  0  0  0  0  0  0  0  # atno 19029 bound_to 19005
  234.8637   20.4333    8.6914 H   0  0  0  0  0  0  0  0  0  0  0  0  # atno 19103 bound_to 19061
  238.7110   34.1268    9.8909 H   0  0  0  0  0  0  0  0  0  0  0  0  # atno 22447 bound_to 22415
  227.2220   26.1510    5.8528 LP  0  0  0  0  0  0  0  0  0  0  0  0  # atno 27193 bound_to 16956
  226.6443   27.5755    6.4040 LP  0  0  0  0  0  0  0  0  0  0  0  0  # atno 27194 bound_to 16956
  229.5556   28.9034    6.4995 LP  0  0  0  0  0  0  0  0  0  0  0  0  # atno 27195 bound_to 18464
  229.3171   28.5794    8.0821 LP  0  0  0  0  0  0  0  0  0  0  0  0  # atno 27196 bound_to 18464
  235.4661   32.6140   10.8086 LP  0  0  0  0  0  0  0  0  0  0  0  0  # atno 27197 bound_to 18529
  235.7215   29.5066   10.4926 LP  0  0  0  0  0  0  0  0  0  0  0  0  # atno 27198 bound_to 18532
  236.3197   28.7392   11.9255 LP  0  0  0  0  0  0  0  0  0  0  0  0  # atno 27199 bound_to 18532
  237.3879   23.9116   12.4455 LP  0  0  0  0  0  0  0  0  0  0  0  0  # atno 27200 bound_to 18626
  235.7923   24.2692   11.8743 LP  0  0  0  0  0  0  0  0  0  0  0  0  # atno 27201 bound_to 18626
  236.7557   26.1027   11.8130 LP  0  0  0  0  0  0  0  0  0  0  0  0  # atno 27202 bound_to 18683
  232.8367   24.5546   10.7223 LP  0  0  0  0  0  0  0  0  0  0  0  0  # atno 27203 bound_to 18686
  234.2488   23.5916   10.4422 LP  0  0  0  0  0  0  0  0  0  0  0  0  # atno 27204 bound_to 18686
  236.0047   25.7969   10.2309 LP  0  0  0  0  0  0  0  0  0  0  0  0  # atno 27209 bound_to 18741
  236.3761   21.0619   11.4046 LP  0  0  0  0  0  0  0  0  0  0  0  0  # atno 27210 bound_to 18915
  234.3939   21.8484    9.8663 LP  0  0  0  0  0  0  0  0  0  0  0  0  # atno 27211 bound_to 19005
  227.8095   34.5784    9.1210 LP  0  0  0  0  0  0  0  0  0  0  0  0  # atno 27223 bound_to 17126
  226.2456   34.3166    9.8181 LP  0  0  0  0  0  0  0  0  0  0  0  0  # atno 27224 bound_to 17126
  226.2258   32.9191    7.4733 LP  0  0  0  0  0  0  0  0  0  0  0  0  # atno 27225 bound_to 17175
  224.2965   31.8585   10.0766 LP  0  0  0  0  0  0  0  0  0  0  0  0  # atno 27226 bound_to 17219
  225.9496   28.4590    4.3475 LP  0  0  0  0  0  0  0  0  0  0  0  0  # atno 27227 bound_to 11604
  224.6235   28.4848    5.4613 LP  0  0  0  0  0  0  0  0  0  0  0  0  # atno 27228 bound_to 11604
  226.4952   32.2882    5.9013 LP  0  0  0  0  0  0  0  0  0  0  0  0  # atno 27231 bound_to 17052
  227.3127   32.0175    4.3986 LP  0  0  0  0  0  0  0  0  0  0  0  0  # atno 27232 bound_to 17052
  235.0238   22.7976    7.5027 LP  0  0  0  0  0  0  0  0  0  0  0  0  # atno 27233 bound_to 18744
  236.4506   22.1610    8.2504 LP  0  0  0  0  0  0  0  0  0  0  0  0  # atno 27234 bound_to 18744
  237.6264   27.0757    8.9530 LP  0  0  0  0  0  0  0  0  0  0  0  0  # atno 27235 bound_to 18592
  238.6815   26.0211    9.8331 LP  0  0  0  0  0  0  0  0  0  0  0  0  # atno 27236 bound_to 18592
  237.0969   24.5325    9.4573 LP  0  0  0  0  0  0  0  0  0  0  0  0  # atno 27237 bound_to 18809
  232.6089   18.9702   11.0227 LP  0  0  0  0  0  0  0  0  0  0  0  0  # atno 27238 bound_to 18918
  233.8503   18.9054    9.8165 LP  0  0  0  0  0  0  0  0  0  0  0  0  # atno 27239 bound_to 18918
  233.1301   18.7992    6.5800 LP  0  0  0  0  0  0  0  0  0  0  0  0  # atno 27240 bound_to 19008
  231.7211   19.3115    7.4474 LP  0  0  0  0  0  0  0  0  0  0  0  0  # atno 27241 bound_to 19008
  233.9986   20.9917    7.2803 LP  0  0  0  0  0  0  0  0  0  0  0  0  # atno 27242 bound_to 19061
  221.5719   31.8749    9.1462 LP  0  0  0  0  0  0  0  0  0  0  0  0  # atno 27243 bound_to 17178
  222.6170   31.5585    7.8017 LP  0  0  0  0  0  0  0  0  0  0  0  0  # atno 27244 bound_to 17178
  233.4274   35.4819   11.9069 LP  0  0  0  0  0  0  0  0  0  0  0  0  # atno 27245 bound_to 18364
  232.2713   34.2162   11.6587 LP  0  0  0  0  0  0  0  0  0  0  0  0  # atno 27246 bound_to 18364
  233.0609   34.0963    8.4706 LP  0  0  0  0  0  0  0  0  0  0  0  0  # atno 27247 bound_to 18453
  220.2984   29.3049   10.8062 LP  0  0  0  0  0  0  0  0  0  0  0  0  # atno 27248 bound_to 11412
  221.5032   28.1507   11.2715 LP  0  0  0  0  0  0  0  0  0  0  0  0  # atno 27249 bound_to 11412
  224.1290   34.9950   10.2475 LP  0  0  0  0  0  0  0  0  0  0  0  0  # atno 27250 bound_to 18206
  223.7129   34.8062   11.9182 LP  0  0  0  0  0  0  0  0  0  0  0  0  # atno 27251 bound_to 18206
  221.3645   33.9310   10.9332 LP  0  0  0  0  0  0  0  0  0  0  0  0  # atno 27254 bound_to 17222
  220.5092   33.5302   12.3850 LP  0  0  0  0  0  0  0  0  0  0  0  0  # atno 27255 bound_to 17222
  224.5226   38.4602   11.0613 LP  0  0  0  0  0  0  0  0  0  0  0  0  # atno 27256 bound_to 18273
  228.2467   36.3298   10.3865 LP  0  0  0  0  0  0  0  0  0  0  0  0  # atno 27257 bound_to 18313
  231.0389   36.2808   10.9763 LP  0  0  0  0  0  0  0  0  0  0  0  0  # atno 27258 bound_to 18361
  229.5193   38.4286    8.4627 LP  0  0  0  0  0  0  0  0  0  0  0  0  # atno 27259 bound_to 18316
  230.7613   37.3165    7.9930 LP  0  0  0  0  0  0  0  0  0  0  0  0  # atno 27260 bound_to 18316
  236.1012   34.7482   10.4180 LP  0  0  0  0  0  0  0  0  0  0  0  0  # atno 27261 bound_to 18456
  237.1836   33.4433   10.0637 LP  0  0  0  0  0  0  0  0  0  0  0  0  # atno 27262 bound_to 18456
  233.9654   35.8060   19.9554 LP  0  0  0  0  0  0  0  0  0  0  0  0  # atno 27263 bound_to 7513
  226.7718   39.6973   10.1906 LP  0  0  0  0  0  0  0  0  0  0  0  0  # atno 27264 bound_to 18276
  226.9708   39.4119   11.8873 LP  0  0  0  0  0  0  0  0  0  0  0  0  # atno 27265 bound_to 18276
  232.5613   33.2392   19.5196 LP  0  0  0  0  0  0  0  0  0  0  0  0  # atno 27266 bound_to 7455
  231.6689   35.0012    5.0517 LP  0  0  0  0  0  0  0  0  0  0  0  0  # atno 27267 bound_to 17016
  232.0065   33.3752    5.5439 LP  0  0  0  0  0  0  0  0  0  0  0  0  # atno 27268 bound_to 17016
  237.8006   30.1222   11.6991 LP  0  0  0  0  0  0  0  0  0  0  0  0  # atno 27269 bound_to 18589
  229.5729   40.6182   12.6258 LP  0  0  0  0  0  0  0  0  0  0  0  0  # atno 27270 bound_to 10094
  230.2197   42.0652   13.0189 LP  0  0  0  0  0  0  0  0  0  0  0  0  # atno 27271 bound_to 10094
  224.5983   38.2990    7.8441 LP  0  0  0  0  0  0  0  0  0  0  0  0  # atno 27272 bound_to 18278
  226.1935   38.5329    7.5846 LP  0  0  0  0  0  0  0  0  0  0  0  0  # atno 27273 bound_to 18278
  220.8786   27.7133    9.4365 LP  0  0  0  0  0  0  0  0  0  0  0  0  # atno 27274 bound_to 11459
  231.6600   29.5234    3.5915 LP  0  0  0  0  0  0  0  0  0  0  0  0  # atno 27275 bound_to 16948
  232.1564   31.1436    3.9501 LP  0  0  0  0  0  0  0  0  0  0  0  0  # atno 27276 bound_to 16948

> <Gold.Score>
     Fitness  S(hb_ext) S(vdw_ext)  S(hb_int)    S(int)      intcor
     27.26       3.58      21.10       0.00      -5.33      -0.77

> <Gold.Goldscore.Fitness>
27.2571

> <Gold.Goldscore.Internal.Vdw>
-4.8187

> <Gold.Goldscore.Internal.Torsion>
-1.2807

> <Gold.Goldscore.External.Vdw>
21.0958

> <Gold.Goldscore.Internal.HBond>
0.0000

> <Gold.Goldscore.External.HBond>
3.5805

> <Gold.Goldscore.Internal.Correction>
-0.7693

> <Gold.Goldscore.Hbonds>
donor molecule, donor type, donor heavy atom, donor atom, acceptor molecule, acceptor atom, score
      P1  H 11693 11717       L1    17  0.17
      P1  H 19345 19394       L1    17  0.09
      L1  H     8    22       P1 19012  0.33

> <Gold.Goldscore.Internal.Vdw.Weighted>
-4.8187

> <Gold.Goldscore.Internal.Torsion.Weighted>
-1.2807

> <Gold.Goldscore.External.Vdw.Weighted>
29.0067

> <Gold.Goldscore.Internal.HBond.Weighted>
0.0000

> <Gold.Goldscore.External.HBond.Weighted>
3.5805

> <Gold.Goldscore.Internal.Correction.Weighted>
-0.7693

> <Gold.Rescore>
     Score     S(PLP)   S(hbond)     S(cho)   S(metal)  DE(clash)   DE(tors)     intcor
     10.88      -8.08       1.80       0.00       0.00       1.45       0.58       ----

> <Gold.PLP.Fitness>
10.8789

> <Gold.PLP.PLP>
-8.0843

> <Gold.PLP.part.hbond>
-6.5859

> <Gold.PLP.part.metal>
0.0000

> <Gold.PLP.part.buried>
11.4755

> <Gold.PLP.part.nonpolar>
-23.8383

> <Gold.PLP.part.repulsive>
8.6016

> <Gold.PLP.ligand.clash>
1.4465

> <Gold.PLP.ligand.torsion>
0.5807

> <Gold.PLP.Chemscore.Hbond>
1.8009

> <Gold.PLP.Chemscore.CHOScore>
0.0000

> <Gold.PLP.Chemscore.Metal>
0.0000

> <Gold.Chemscore.Hbonds>
donor molecule, donor type, donor heavy atom, donor atom, acceptor molecule, acceptor atom, score
      L1  H     8    22       P1 19011  0.06
      P1  H 19345 19394       L1    17  0.21

> <Gold.PLP.Chemscore.Internal.Correction>
   9.000000E+99

