#       Name:                CT1002167954
#       Creating user name   hitesit
#       Creation time:       Sun Apr 16 22:59:45 2023


#       File generated by GOLD software.
#

@<TRIPOS>MOLECULE
CT1002167954|ligand_prepared|mol2|1|dock8
    29    30     1
SMALL
NO_CHARGES


@<TRIPOS>ATOM
      1 C1         228.8658  32.1148  13.0131 C.3            1 RES1               0.0000
      2 C2         228.3019  30.7161  13.3364 C.ar           1 RES1               0.0000
      3 C3         227.7686  32.8538  12.2528 C.2            1 RES1               0.0000
      4 C4         229.2298  32.7478  14.3516 C.2            1 RES1               0.0000
      5 C5         230.1389  32.0877  12.1355 C.3            1 RES1               0.0000
      6 C6         227.3498  30.5500  14.3376 C.ar           1 RES1               0.0000
      7 C7         228.7215  29.5849  12.6413 C.ar           1 RES1               0.0000
      8 N8         227.0904  33.8337  12.9159 N.am           1 RES1               0.0000
      9 O9         227.4761  32.5546  11.1016 O.2            1 RES1               0.0000
     10 N10        228.5233  33.8510  14.7534 N.am           1 RES1               0.0000
     11 O11        230.1109  32.2912  15.0696 O.2            1 RES1               0.0000
     12 C12        230.8415  33.4323  12.0329 C.3            1 RES1               0.0000
     13 C13        226.8335  29.2988  14.6315 C.ar           1 RES1               0.0000
     14 C14        228.2040  28.3346  12.9370 C.ar           1 RES1               0.0000
     15 C15        227.4496  34.4043  14.1106 C.2            1 RES1               0.0000
     16 C16        227.2598  28.1905  13.9312 C.ar           1 RES1               0.0000
     17 O17        226.8312  35.3637  14.5624 O.2            1 RES1               0.0000
     18 H18        230.8396  31.3539  12.5524 H              1 RES1               0.0000
     19 H19        229.8653  31.7545  11.1267 H              1 RES1               0.0000
     20 H20        227.0040  31.4102  14.9010 H              1 RES1               0.0000
     21 H21        229.4642  29.6743  11.8558 H              1 RES1               0.0000
     22 H22        226.2372  34.1736  12.4837 H              1 RES1               0.0000
     23 H23        228.8259  34.3016  15.6111 H              1 RES1               0.0000
     24 H24        231.7278  33.3575  11.4062 H              1 RES1               0.0000
     25 H25        230.1815  34.1803  11.5986 H              1 RES1               0.0000
     26 H26        231.1501  33.7822  13.0159 H              1 RES1               0.0000
     27 H27        226.0916  29.1905  15.4158 H              1 RES1               0.0000
     28 H28        228.5429  27.4650  12.3837 H              1 RES1               0.0000
     29 H29        226.8549  27.2105  14.1614 H              1 RES1               0.0000
@<TRIPOS>BOND
    1    1    2 1     
    2    1    3 1     
    3    1    4 1     
    4    1    5 1     
    5    2    6 ar    
    6    2    7 ar    
    7    3    8 1     
    8    3    9 2     
    9    4   10 1     
   10    4   11 2     
   11    5   12 1     
   12    5   18 1     
   13    5   19 1     
   14    6   13 ar    
   15    6   20 1     
   16    7   14 ar    
   17    7   21 1     
   18    8   15 1     
   19    8   22 1     
   20   10   15 1     
   21   10   23 1     
   22   12   24 1     
   23   12   25 1     
   24   12   26 1     
   25   13   16 ar    
   26   13   27 1     
   27   14   16 ar    
   28   14   28 1     
   29   15   17 2     
   30   16   29 1     
@<TRIPOS>SUBSTRUCTURE
      1 RES1           1
@<TRIPOS>SET
DONOR_HYDROGENS      STATIC     ATOMS    <user>   **** ""
2 22 23
ATOM$RED        STATIC     ATOMS    COLORGROUP SYSTEM
2 22 23
@<TRIPOS>COMMENT
> <Gold.Version>
2022.3.0

> <Gold.Id.Protein>
unknown|4d1n_clean|pdb

> <Gold.Protein.RotatedTorsions>
[ 16995 16956 16955 16953 ] final  101.36 input   60.02 | X-H torsion
[ 18503 18464 18463 18461 ] final   76.73 input   59.99 | X-H torsion
[ 18563 18529 18530 18531 ] final  -51.77 input   85.91 | X-H torsion
[ 18713 18683 18684 18685 ] final  165.26 input  120.10 | X-H torsion
[ 18779 18741 18742 18743 ] final   37.58 input   94.66 | X-H torsion
[ 18963 18915 18916 18917 ] final  111.15 input   99.61 | X-H torsion
[ 19029 19005 19006 19007 ] final   46.11 input  120.28 | X-H torsion
[ 17195 17175 17176 17177 ] final  -94.82 input   50.47 | X-H torsion
[ 17251 17219 17220 17221 ] final  -80.21 input  121.85 | X-H torsion
[ 18823 18809 18810 18811 ] final -166.17 input  109.66 | X-H torsion
[ 19103 19061 19062 19063 ] final -114.85 input   93.64 | X-H torsion
[ 18495 18453 18454 18455 ] final -126.90 input  105.49 | X-H torsion
[ 18295 18273 18274 18275 ] final  -70.26 input   34.55 | X-H torsion
[ 18327 18313 18314 18315 ] final  137.77 input   52.32 | X-H torsion
[ 18409 18361 18362 18363 ] final  -93.32 input   29.77 | X-H torsion
[ 7524 7513 7514 7515 ] final   34.66 input   82.77 | X-H torsion
[ 7477 7455 7456 7457 ] final -109.78 input   99.19 | X-H torsion
[ 18603 18589 18590 18591 ] final  -93.98 input  124.64 | X-H torsion
[ 10105 10094 10093 10090 ] final   41.42 input   59.99 | X-H torsion
[ 18299 18278 18277 18274 ] final  115.16 input   60.00 | X-H torsion
[ 11477 11459 11460 11461 ] final -168.03 input   48.11 | X-H torsion
[ 18657 18629 18627 18624 ] final   93.51 input   60.03 | X-H torsion
[ 11425 11414 11413 11410 ] final  -97.85 input   60.02 | X-H torsion
[ 18875 18843 18844 18845 ] final -129.33 input   86.72 | X-H torsion
[ 17303 17281 17282 17283 ] final  -87.02 input   51.85 | X-H torsion
[ 22447 22415 22416 22417 ] final  -81.88 input   56.20 | X-H torsion
[ 18243 18203 18204 18205 ] final   54.63 input   41.90 | X-H torsion
[ 11805 11781 11782 11783 ] final -106.80 input   87.31 | X-H torsion
[ 16987 16945 16946 16947 ] final    0.80 input   84.34 | X-H torsion
[ 27198 18532 18531 18530 ] final -157.77 input   -0.00 | X-H torsion
[ 27200 18626 18625 18624 ] final  128.87 input    0.00 | X-H torsion
[ 27203 18686 18685 18684 ] final   19.05 input   -0.00 | X-H torsion
[ 27223 17126 17125 17124 ] final  -15.98 input    0.00 | X-H torsion
[ 27227 11604 11603 11602 ] final -136.91 input    0.00 | X-H torsion
[ 27231 17052 17051 17050 ] final -146.72 input   -0.00 | X-H torsion
[ 27233 18744 18743 18742 ] final  -84.90 input   -0.00 | X-H torsion
[ 27235 18592 18591 18590 ] final  172.39 input   -0.00 | X-H torsion
[ 27238 18918 18917 18916 ] final  -11.67 input    0.00 | X-H torsion
[ 27240 19008 19007 19006 ] final    5.14 input    0.00 | X-H torsion
[ 27243 17178 17177 17176 ] final   38.30 input    0.00 | X-H torsion
[ 27245 18364 18363 18362 ] final -118.94 input    0.00 | X-H torsion
[ 27248 11412 11411 11410 ] final  -51.46 input   -0.00 | X-H torsion
[ 27250 18206 18205 18204 ] final -108.01 input   -0.00 | X-H torsion
[ 27254 17222 17221 17220 ] final  -99.49 input   -0.00 | X-H torsion
[ 27259 18316 18315 18314 ] final   92.96 input   -0.00 | X-H torsion
[ 27261 18456 18455 18454 ] final   68.94 input    0.00 | X-H torsion
[ 27264 18276 18275 18274 ] final  -66.97 input    0.00 | X-H torsion
[ 27267 17016 17015 17014 ] final   89.13 input    0.00 | X-H torsion
[ 27275 16948 16947 16946 ] final -146.13 input   -0.00 | X-H torsion

> <Gold.Protein.ActiveResidues>
 TRP414  CYS420  VAL421  GLY422  LEU460  SER462  SER482  GLN483  ILE485  ARG486 
 TYR487  ASP500  ASN503  TRP566  TYR567  GLY568  LEU569  PRO570  ALA571  VAL572 
 SER573  ASN574  PHE589  SER590  GLY591  TRP592  TYR593  MET594  GLY595  THR596 
 GLU597  ILE598  GLY599  VAL600  ARG601  ASP602  TYR603  ARG608  ILE653  VAL654 
 TRP683  PRO687  HEM750  H4B760 

> <Gold.Protein.RotatedAtoms>
  232.1705   33.6268   21.1767 H   0  0  0  0  0  0  0  0  0  0  0  0  # atno 7477 bound_to 7455
  232.6069   35.8085   19.6738 H   0  0  0  0  0  0  0  0  0  0  0  0  # atno 7524 bound_to 7513
  230.2874   41.7897   11.5597 H   0  0  0  0  0  0  0  0  0  0  0  0  # atno 10105 bound_to 10094
  220.5194   24.0880    8.8557 H   0  0  0  0  0  0  0  0  0  0  0  0  # atno 11425 bound_to 11414
  221.1378   27.6095    9.4309 H   0  0  0  0  0  0  0  0  0  0  0  0  # atno 11477 bound_to 11459
  224.4547   24.8182    1.9695 H   0  0  0  0  0  0  0  0  0  0  0  0  # atno 11805 bound_to 11781
  232.0340   28.4731    2.2058 H   0  0  0  0  0  0  0  0  0  0  0  0  # atno 16987 bound_to 16945
  226.4747   26.9373    5.9976 H   0  0  0  0  0  0  0  0  0  0  0  0  # atno 16995 bound_to 16956
  226.4547   32.5172    8.7556 H   0  0  0  0  0  0  0  0  0  0  0  0  # atno 17195 bound_to 17175
  223.6106   32.1054    9.6417 H   0  0  0  0  0  0  0  0  0  0  0  0  # atno 17251 bound_to 17219
  220.8248   31.6035   11.8399 H   0  0  0  0  0  0  0  0  0  0  0  0  # atno 17303 bound_to 17281
  221.4103   35.2856   11.7106 H   0  0  0  0  0  0  0  0  0  0  0  0  # atno 18243 bound_to 18203
  224.4659   37.3899   11.8709 H   0  0  0  0  0  0  0  0  0  0  0  0  # atno 18295 bound_to 18273
  226.2721   38.6001    7.7181 H   0  0  0  0  0  0  0  0  0  0  0  0  # atno 18299 bound_to 18278
  227.7677   36.8640   11.6190 H   0  0  0  0  0  0  0  0  0  0  0  0  # atno 18327 bound_to 18313
  230.5487   36.5894   10.2502 H   0  0  0  0  0  0  0  0  0  0  0  0  # atno 18409 bound_to 18361
  232.6571   34.3831    9.4884 H   0  0  0  0  0  0  0  0  0  0  0  0  # atno 18495 bound_to 18453
  229.1695   28.8901    7.8031 H   0  0  0  0  0  0  0  0  0  0  0  0  # atno 18503 bound_to 18464
  235.4154   32.1681   10.6421 H   0  0  0  0  0  0  0  0  0  0  0  0  # atno 18563 bound_to 18529
  237.4978   30.7485   10.8540 H   0  0  0  0  0  0  0  0  0  0  0  0  # atno 18603 bound_to 18589
  237.2795   26.7685   14.9680 H   0  0  0  0  0  0  0  0  0  0  0  0  # atno 18657 bound_to 18629
  236.2582   27.4607   12.7321 H   0  0  0  0  0  0  0  0  0  0  0  0  # atno 18713 bound_to 18683
  236.1331   26.0790   10.0702 H   0  0  0  0  0  0  0  0  0  0  0  0  # atno 18779 bound_to 18741
  237.3047   25.0790    7.8210 H   0  0  0  0  0  0  0  0  0  0  0  0  # atno 18823 bound_to 18809
  238.9369   22.5261    9.9175 H   0  0  0  0  0  0  0  0  0  0  0  0  # atno 18875 bound_to 18843
  235.8020   22.5903   12.0110 H   0  0  0  0  0  0  0  0  0  0  0  0  # atno 18963 bound_to 18915
  234.4353   21.7210    9.8723 H   0  0  0  0  0  0  0  0  0  0  0  0  # atno 19029 bound_to 19005
  233.7233   20.6103    7.4555 H   0  0  0  0  0  0  0  0  0  0  0  0  # atno 19103 bound_to 19061
  239.4356   34.9423    9.2165 H   0  0  0  0  0  0  0  0  0  0  0  0  # atno 22447 bound_to 22415
  227.6481   27.6927    6.8342 LP  0  0  0  0  0  0  0  0  0  0  0  0  # atno 27193 bound_to 16956
  227.9332   26.2340    6.1577 LP  0  0  0  0  0  0  0  0  0  0  0  0  # atno 27194 bound_to 16956
  230.1814   27.6293    7.6211 LP  0  0  0  0  0  0  0  0  0  0  0  0  # atno 27195 bound_to 18464
  229.8371   28.5939    6.3493 LP  0  0  0  0  0  0  0  0  0  0  0  0  # atno 27196 bound_to 18464
  234.7493   32.2586   12.2588 LP  0  0  0  0  0  0  0  0  0  0  0  0  # atno 27197 bound_to 18529
  236.6649   28.5613   11.0696 LP  0  0  0  0  0  0  0  0  0  0  0  0  # atno 27198 bound_to 18532
  235.3763   29.6845   11.3485 LP  0  0  0  0  0  0  0  0  0  0  0  0  # atno 27199 bound_to 18532
  235.9864   24.2087   12.7695 LP  0  0  0  0  0  0  0  0  0  0  0  0  # atno 27200 bound_to 18626
  237.1938   23.9722   11.5503 LP  0  0  0  0  0  0  0  0  0  0  0  0  # atno 27201 bound_to 18626
  236.7406   26.2770   11.5469 LP  0  0  0  0  0  0  0  0  0  0  0  0  # atno 27202 bound_to 18683
  233.1109   24.3502   11.2799 LP  0  0  0  0  0  0  0  0  0  0  0  0  # atno 27203 bound_to 18686
  233.9747   23.7960    9.8846 LP  0  0  0  0  0  0  0  0  0  0  0  0  # atno 27204 bound_to 18686
  234.3986   26.2756    9.9907 LP  0  0  0  0  0  0  0  0  0  0  0  0  # atno 27209 bound_to 18741
  236.3969   21.0440   11.4695 LP  0  0  0  0  0  0  0  0  0  0  0  0  # atno 27210 bound_to 18915
  232.9485   21.6278   10.7831 LP  0  0  0  0  0  0  0  0  0  0  0  0  # atno 27211 bound_to 19005
  227.8632   34.2509    9.5835 LP  0  0  0  0  0  0  0  0  0  0  0  0  # atno 27223 bound_to 17126
  226.1919   34.6441    9.3555 LP  0  0  0  0  0  0  0  0  0  0  0  0  # atno 27224 bound_to 17126
  225.6101   32.0443    7.3072 LP  0  0  0  0  0  0  0  0  0  0  0  0  # atno 27225 bound_to 17175
  224.1735   33.0160   11.0284 LP  0  0  0  0  0  0  0  0  0  0  0  0  # atno 27226 bound_to 17219
  225.7750   27.8666    4.5237 LP  0  0  0  0  0  0  0  0  0  0  0  0  # atno 27227 bound_to 11604
  224.7981   29.0773    5.2852 LP  0  0  0  0  0  0  0  0  0  0  0  0  # atno 27228 bound_to 11604
  226.5511   32.1972    5.9396 LP  0  0  0  0  0  0  0  0  0  0  0  0  # atno 27231 bound_to 17052
  227.2568   32.1085    4.3603 LP  0  0  0  0  0  0  0  0  0  0  0  0  # atno 27232 bound_to 17052
  235.4920   22.3464    8.6965 LP  0  0  0  0  0  0  0  0  0  0  0  0  # atno 27233 bound_to 18744
  235.9823   22.6122    7.0566 LP  0  0  0  0  0  0  0  0  0  0  0  0  # atno 27234 bound_to 18744
  238.1888   25.9729   10.0392 LP  0  0  0  0  0  0  0  0  0  0  0  0  # atno 27235 bound_to 18592
  238.1191   27.1239    8.7468 LP  0  0  0  0  0  0  0  0  0  0  0  0  # atno 27236 bound_to 18592
  236.9785   24.4115    9.4021 LP  0  0  0  0  0  0  0  0  0  0  0  0  # atno 27237 bound_to 18809
  233.7038   18.6776   11.0960 LP  0  0  0  0  0  0  0  0  0  0  0  0  # atno 27238 bound_to 18918
  232.7554   19.1980    9.7432 LP  0  0  0  0  0  0  0  0  0  0  0  0  # atno 27239 bound_to 18918
  231.6957   19.4263    7.2960 LP  0  0  0  0  0  0  0  0  0  0  0  0  # atno 27240 bound_to 19008
  233.1555   18.6844    6.7314 LP  0  0  0  0  0  0  0  0  0  0  0  0  # atno 27241 bound_to 19008
  235.1151   20.8184    8.4904 LP  0  0  0  0  0  0  0  0  0  0  0  0  # atno 27242 bound_to 19061
  222.6191   31.5505    7.8053 LP  0  0  0  0  0  0  0  0  0  0  0  0  # atno 27243 bound_to 17178
  221.5698   31.8828    9.1426 LP  0  0  0  0  0  0  0  0  0  0  0  0  # atno 27244 bound_to 17178
  233.7106   34.8461   11.8741 LP  0  0  0  0  0  0  0  0  0  0  0  0  # atno 27245 bound_to 18364
  231.9882   34.8520   11.6915 LP  0  0  0  0  0  0  0  0  0  0  0  0  # atno 27246 bound_to 18364
  234.2092   34.6791    8.7417 LP  0  0  0  0  0  0  0  0  0  0  0  0  # atno 27247 bound_to 18453
  220.0612   28.8873   11.1792 LP  0  0  0  0  0  0  0  0  0  0  0  0  # atno 27248 bound_to 11412
  221.7403   28.5683   10.8985 LP  0  0  0  0  0  0  0  0  0  0  0  0  # atno 27249 bound_to 11412
  224.4972   34.9214   11.7289 LP  0  0  0  0  0  0  0  0  0  0  0  0  # atno 27250 bound_to 18206
  223.3446   34.8798   10.4367 LP  0  0  0  0  0  0  0  0  0  0  0  0  # atno 27251 bound_to 18206
  220.6838   33.5517   12.4678 LP  0  0  0  0  0  0  0  0  0  0  0  0  # atno 27254 bound_to 17222
  221.1898   33.9095   10.8504 LP  0  0  0  0  0  0  0  0  0  0  0  0  # atno 27255 bound_to 17222
  223.9582   37.9099   10.2851 LP  0  0  0  0  0  0  0  0  0  0  0  0  # atno 27256 bound_to 18273
  227.8644   37.1066    9.8896 LP  0  0  0  0  0  0  0  0  0  0  0  0  # atno 27257 bound_to 18313
  231.8446   37.4977   10.9983 LP  0  0  0  0  0  0  0  0  0  0  0  0  # atno 27258 bound_to 18361
  230.6090   38.5985    8.2853 LP  0  0  0  0  0  0  0  0  0  0  0  0  # atno 27259 bound_to 18316
  229.6716   37.1466    8.1704 LP  0  0  0  0  0  0  0  0  0  0  0  0  # atno 27260 bound_to 18316
  236.1247   34.7467   10.4824 LP  0  0  0  0  0  0  0  0  0  0  0  0  # atno 27261 bound_to 18456
  237.1600   33.4449    9.9993 LP  0  0  0  0  0  0  0  0  0  0  0  0  # atno 27262 bound_to 18456
  234.1464   35.1855   19.1281 LP  0  0  0  0  0  0  0  0  0  0  0  0  # atno 27263 bound_to 7513
  226.6988   39.6869   10.2007 LP  0  0  0  0  0  0  0  0  0  0  0  0  # atno 27264 bound_to 18276
  227.0439   39.4224   11.8772 LP  0  0  0  0  0  0  0  0  0  0  0  0  # atno 27265 bound_to 18276
  232.5396   33.3086   19.4982 LP  0  0  0  0  0  0  0  0  0  0  0  0  # atno 27266 bound_to 7455
  231.8272   34.9911    4.9735 LP  0  0  0  0  0  0  0  0  0  0  0  0  # atno 27267 bound_to 17016
  231.8483   33.3853    5.6221 LP  0  0  0  0  0  0  0  0  0  0  0  0  # atno 27268 bound_to 17016
  239.0576   30.6041   11.6250 LP  0  0  0  0  0  0  0  0  0  0  0  0  # atno 27269 bound_to 18589
  229.5851   40.5720   12.3783 LP  0  0  0  0  0  0  0  0  0  0  0  0  # atno 27270 bound_to 10094
  230.1158   41.8956   13.1739 LP  0  0  0  0  0  0  0  0  0  0  0  0  # atno 27271 bound_to 10094
  225.3615   38.9292    9.0263 LP  0  0  0  0  0  0  0  0  0  0  0  0  # atno 27272 bound_to 18278
  224.6806   38.2598    7.7015 LP  0  0  0  0  0  0  0  0  0  0  0  0  # atno 27273 bound_to 18278
  220.4266   27.4079    7.8377 LP  0  0  0  0  0  0  0  0  0  0  0  0  # atno 27274 bound_to 11459
  231.6539   31.0838    4.1206 LP  0  0  0  0  0  0  0  0  0  0  0  0  # atno 27275 bound_to 16948
  232.1625   29.5832    3.4210 LP  0  0  0  0  0  0  0  0  0  0  0  0  # atno 27276 bound_to 16948

> <Gold.Score>
     Fitness  S(hb_ext) S(vdw_ext)  S(hb_int)    S(int)      intcor
     38.78       0.97      27.62       0.00      -0.17      -0.76

> <Gold.Goldscore.Fitness>
38.7776

> <Gold.Goldscore.Internal.Vdw>
-0.3748

> <Gold.Goldscore.Internal.Torsion>
-0.5492

> <Gold.Goldscore.External.Vdw>
27.6211

> <Gold.Goldscore.Internal.HBond>
0.0000

> <Gold.Goldscore.External.HBond>
0.9671

> <Gold.Goldscore.Internal.Correction>
-0.7554

> <Gold.Goldscore.Hbonds>
donor molecule, donor type, donor heavy atom, donor atom, acceptor molecule, acceptor atom, score
      P1  H 17175 17195       L1     9  0.17
      L1  H     8    22       P1 18206  0.32

> <Gold.Goldscore.Internal.Vdw.Weighted>
-0.3748

> <Gold.Goldscore.Internal.Torsion.Weighted>
-0.5492

> <Gold.Goldscore.External.Vdw.Weighted>
37.9791

> <Gold.Goldscore.Internal.HBond.Weighted>
0.0000

> <Gold.Goldscore.External.HBond.Weighted>
0.9671

> <Gold.Goldscore.Internal.Correction.Weighted>
-0.7554

> <Gold.Rescore>
     Score     S(PLP)   S(hbond)     S(cho)   S(metal)  DE(clash)   DE(tors)     intcor
     31.68     -23.26       1.08       0.00       1.00       0.00       0.41       ----

> <Gold.PLP.Fitness>
31.6793

> <Gold.PLP.PLP>
-23.2575

> <Gold.PLP.part.hbond>
-2.8279

> <Gold.PLP.part.metal>
-1.0000

> <Gold.PLP.part.buried>
23.2535

> <Gold.PLP.part.nonpolar>
-45.5341

> <Gold.PLP.part.repulsive>
0.4939

> <Gold.PLP.ligand.clash>
0.0000

> <Gold.PLP.ligand.torsion>
0.4130

> <Gold.PLP.Chemscore.Hbond>
1.0826

> <Gold.PLP.Chemscore.CHOScore>
0.0000

> <Gold.PLP.Chemscore.Metal>
1.0000

> <Gold.Chemscore.Hbonds>
donor molecule, donor type, donor heavy atom, donor atom, acceptor molecule, acceptor atom, score
      P1  M 26885 26885       L1    11  0.23

> <Gold.PLP.Chemscore.Internal.Correction>
   9.000000E+99

