#       Name:                CT1002167954
#       Creating user name   hitesit
#       Creation time:       Sun Apr 16 22:50:26 2023


#       File generated by GOLD software.
#

@<TRIPOS>MOLECULE
CT1002167954|ligand_prepared|mol2|1|dock1
    29    30     1
SMALL
NO_CHARGES


@<TRIPOS>ATOM
      1 C1          26.6467   9.4817  -3.3816 C.3            1 RES1               0.0000
      2 C2          28.1811   9.6379  -3.3851 C.ar           1 RES1               0.0000
      3 C3          26.2908   8.7776  -2.0755 C.2            1 RES1               0.0000
      4 C4          26.0743  10.8894  -3.5055 C.2            1 RES1               0.0000
      5 C5          26.1018   8.6391  -4.5582 C.3            1 RES1               0.0000
      6 C6          28.8810   9.7868  -2.1915 C.ar           1 RES1               0.0000
      7 C7          28.9095   9.6324  -4.5717 C.ar           1 RES1               0.0000
      8 N8          25.7127   9.5249  -1.0920 N.am           1 RES1               0.0000
      9 O9          26.5495   7.5938  -1.8967 O.2            1 RES1               0.0000
     10 N10         25.3645  11.3895  -2.4454 N.am           1 RES1               0.0000
     11 O11         26.2457  11.5763  -4.5050 O.2            1 RES1               0.0000
     12 C12         24.6406   8.2466  -4.4063 C.3            1 RES1               0.0000
     13 C13         30.2594   9.9223  -2.1840 C.ar           1 RES1               0.0000
     14 C14         30.2879   9.7683  -4.5620 C.ar           1 RES1               0.0000
     15 C15         25.1838  10.7828  -1.2324 C.2            1 RES1               0.0000
     16 C16         30.9637   9.9127  -3.3691 C.ar           1 RES1               0.0000
     17 O17         24.5792  11.3194  -0.3085 O.2            1 RES1               0.0000
     18 H18         26.2189   9.2116  -5.4866 H              1 RES1               0.0000
     19 H19         26.7047   7.7271  -4.6484 H              1 RES1               0.0000
     20 H20         28.3435   9.7992  -1.2491 H              1 RES1               0.0000
     21 H21         28.3988   9.5212  -5.5222 H              1 RES1               0.0000
     22 H22         25.6697   9.1102  -0.1666 H              1 RES1               0.0000
     23 H23         24.9304  12.2983  -2.5724 H              1 RES1               0.0000
     24 H24         24.3090   7.6570  -5.2584 H              1 RES1               0.0000
     25 H25         24.4919   7.6542  -3.5058 H              1 RES1               0.0000
     26 H26         24.0090   9.1300  -4.3390 H              1 RES1               0.0000
     27 H27         30.7864  10.0370  -1.2426 H              1 RES1               0.0000
     28 H28         30.8381   9.7608  -5.4971 H              1 RES1               0.0000
     29 H29         32.0435  10.0184  -3.3630 H              1 RES1               0.0000
@<TRIPOS>BOND
    1    1    2 1     
    2    1    3 1     
    3    1    4 1     
    4    1    5 1     
    5    2    6 ar    
    6    2    7 ar    
    7    3    8 1     
    8    3    9 2     
    9    4   10 1     
   10    4   11 2     
   11    5   12 1     
   12    5   18 1     
   13    5   19 1     
   14    6   13 ar    
   15    6   20 1     
   16    7   14 ar    
   17    7   21 1     
   18    8   15 1     
   19    8   22 1     
   20   10   15 1     
   21   10   23 1     
   22   12   24 1     
   23   12   25 1     
   24   12   26 1     
   25   13   16 ar    
   26   13   27 1     
   27   14   16 ar    
   28   14   28 1     
   29   15   17 2     
   30   16   29 1     
@<TRIPOS>SUBSTRUCTURE
      1 RES1           1
@<TRIPOS>SET
DONOR_HYDROGENS      STATIC     ATOMS    <user>   **** ""
2 22 23
ATOM$RED        STATIC     ATOMS    COLORGROUP SYSTEM
2 22 23
@<TRIPOS>COMMENT
> <Gold.Version>
2022.3.0

> <Gold.Id.Protein>
unknown|3nx8_clean|pdb

> <Gold.Protein.RotatedTorsions>
[  549  544  542  539 ] final    2.27 input   60.01 | X-H torsion
[ 2770 2763 2761 2758 ] final  101.31 input   60.01 | X-H torsion
[ 5056 5047 5046 5044 ] final -123.35 input   59.99 | X-H torsion
[ 1860 1855 1854 1851 ] final   62.87 input   60.02 | X-H torsion
[  567  564  563  560 ] final  -46.38 input   60.03 | X-H torsion
[ 2456 2451 2450 2448 ] final  157.58 input   59.99 | X-H torsion
[ 2535 2524 2523 2522 ] final  -53.71 input   60.02 | X-H torsion

> <Gold.Protein.ActiveResidues>
 THR48   LEU49   GLY50   THR51   GLY52   SER53   PHE54   GLY55   ARG56   VAL57  
 MET58   ALA70   LYS72   GLU91   VAL104  MET120  TYR122  VAL123  GLY126  GLU127 
 MET128  PHE129  SER130  TYR164  ASP166  LYS168  PRO169  GLU170  ASN171  LEU172 
 LEU173  GLN181  VAL182  THR183  ASP184  PHE185  GLY186  ASN326  PHE327  ASP328 
 TYR330 

> <Gold.Protein.RotatedAtoms>
   20.7675   10.8632   -5.4169 H   0  0  0  0  0  0  0  0  0  0  0  0  # atno 549  bound_to 544 
   22.3357    9.2010    2.6702 H   0  0  0  0  0  0  0  0  0  0  0  0  # atno 567  bound_to 564 
   26.2717    4.3200  -11.2951 H   0  0  0  0  0  0  0  0  0  0  0  0  # atno 1860 bound_to 1855
   26.3383    2.1175    2.0908 H   0  0  0  0  0  0  0  0  0  0  0  0  # atno 2456 bound_to 2451
   18.6282    3.6736   -1.8353 H   0  0  0  0  0  0  0  0  0  0  0  0  # atno 2535 bound_to 2524
   18.9100    3.7302   -0.2029 H   0  0  0  0  0  0  0  0  0  0  0  0  # atno 2536 bound_to 2524
   19.3461    5.0085   -1.1644 H   0  0  0  0  0  0  0  0  0  0  0  0  # atno 2537 bound_to 2524
   30.5579    8.5417    0.5240 H   0  0  0  0  0  0  0  0  0  0  0  0  # atno 2770 bound_to 2763
   22.1015    9.7972   -9.8882 H   0  0  0  0  0  0  0  0  0  0  0  0  # atno 5056 bound_to 5047
   20.0094   12.0647   -6.2105 LP  0  0  0  0  0  0  0  0  0  0  0  0  # atno 5356 bound_to 544 
   19.3409   11.4207   -4.8670 LP  0  0  0  0  0  0  0  0  0  0  0  0  # atno 5357 bound_to 544 
   29.2372    8.1048    1.3691 LP  0  0  0  0  0  0  0  0  0  0  0  0  # atno 5378 bound_to 2763
   29.0863    8.6490   -0.1632 LP  0  0  0  0  0  0  0  0  0  0  0  0  # atno 5379 bound_to 2763
   22.8309   10.1226   -8.4703 LP  0  0  0  0  0  0  0  0  0  0  0  0  # atno 5382 bound_to 5047
   23.7217    9.9353   -9.8260 LP  0  0  0  0  0  0  0  0  0  0  0  0  # atno 5383 bound_to 5047
   25.1520    4.7531  -12.3939 LP  0  0  0  0  0  0  0  0  0  0  0  0  # atno 5388 bound_to 1855
   26.6739    5.3352  -12.5018 LP  0  0  0  0  0  0  0  0  0  0  0  0  # atno 5389 bound_to 1855
   22.1602    8.8362    4.2467 LP  0  0  0  0  0  0  0  0  0  0  0  0  # atno 5398 bound_to 564 
   21.6972   10.2991    3.6879 LP  0  0  0  0  0  0  0  0  0  0  0  0  # atno 5399 bound_to 564 
   27.2105    3.2210    2.9095 LP  0  0  0  0  0  0  0  0  0  0  0  0  # atno 5400 bound_to 2451
   25.5797    3.3061    2.9033 LP  0  0  0  0  0  0  0  0  0  0  0  0  # atno 5401 bound_to 2451

> <Gold.Score>
     Fitness  S(hb_ext) S(vdw_ext)  S(hb_int)    S(int)      intcor
     42.60       0.00      31.33       0.00      -0.48      -0.85

> <Gold.Goldscore.Fitness>
42.5989

> <Gold.Goldscore.Internal.Vdw>
-0.7378

> <Gold.Goldscore.Internal.Torsion>
-0.5881

> <Gold.Goldscore.External.Vdw>
31.3282

> <Gold.Goldscore.Internal.HBond>
0.0000

> <Gold.Goldscore.External.HBond>
0.0000

> <Gold.Goldscore.Internal.Correction>
-0.8485

> <Gold.Goldscore.Internal.Vdw.Weighted>
-0.7378

> <Gold.Goldscore.Internal.Torsion.Weighted>
-0.5881

> <Gold.Goldscore.External.Vdw.Weighted>
43.0763

> <Gold.Goldscore.Internal.HBond.Weighted>
0.0000

> <Gold.Goldscore.External.HBond.Weighted>
0.0000

> <Gold.Goldscore.Internal.Correction.Weighted>
-0.8485

> <Gold.Rescore>
     Score     S(PLP)   S(hbond)     S(cho)   S(metal)  DE(clash)   DE(tors)     intcor
     21.61     -23.39       0.31       0.00       0.00       0.00       1.36       ----

> <Gold.PLP.Fitness>
21.6149

> <Gold.PLP.PLP>
-23.3944

> <Gold.PLP.part.hbond>
-2.2424

> <Gold.PLP.part.metal>
0.0000

> <Gold.PLP.part.buried>
12.8059

> <Gold.PLP.part.nonpolar>
-37.0802

> <Gold.PLP.part.repulsive>
2.8714

> <Gold.PLP.ligand.clash>
0.0000

> <Gold.PLP.ligand.torsion>
1.3578

> <Gold.PLP.Chemscore.Hbond>
0.3120

> <Gold.PLP.Chemscore.CHOScore>
0.0000

> <Gold.PLP.Chemscore.Metal>
0.0000

> <Gold.PLP.Chemscore.Internal.Correction>
   9.000000E+99

#       Name:                CT1002167954
#       Creating user name   hitesit
#       Creation time:       Sun Apr 16 22:50:28 2023


#       File generated by GOLD software.
#

@<TRIPOS>MOLECULE
CT1002167954|ligand_prepared|mol2|1|dock3
    29    30     1
SMALL
NO_CHARGES


@<TRIPOS>ATOM
      1 C1          25.5414   8.8149  -3.4797 C.3            1 RES1               0.0000
      2 C2          24.2187   8.3011  -4.0840 C.ar           1 RES1               0.0000
      3 C3          26.6592   8.0507  -4.1831 C.2            1 RES1               0.0000
      4 C4          25.5665  10.3195  -3.7250 C.2            1 RES1               0.0000
      5 C5          25.6667   8.5769  -1.9568 C.3            1 RES1               0.0000
      6 C6          23.7344   8.8257  -5.2785 C.ar           1 RES1               0.0000
      7 C7          23.4744   7.3028  -3.4610 C.ar           1 RES1               0.0000
      8 N8          27.4031   8.7261  -5.1053 N.am           1 RES1               0.0000
      9 O9          26.8593   6.8629  -3.9609 O.2            1 RES1               0.0000
     10 N10         26.5256  10.8168  -4.5679 N.am           1 RES1               0.0000
     11 O11         24.7539  11.0769  -3.2089 O.2            1 RES1               0.0000
     12 C12         26.7499   9.4123  -1.2927 C.3            1 RES1               0.0000
     13 C13         22.5504   8.3670  -5.8318 C.ar           1 RES1               0.0000
     14 C14         22.2905   6.8457  -4.0159 C.ar           1 RES1               0.0000
     15 C15         27.4258  10.0847  -5.2932 C.2            1 RES1               0.0000
     16 C16         21.8280   7.3765  -5.2012 C.ar           1 RES1               0.0000
     17 O17         28.2220  10.6003  -6.0725 O.2            1 RES1               0.0000
     18 H18         24.7040   8.8060  -1.4833 H              1 RES1               0.0000
     19 H19         25.8823   7.5157  -1.7817 H              1 RES1               0.0000
     20 H20         24.2880   9.6075  -5.7878 H              1 RES1               0.0000
     21 H21         23.8185   6.8713  -2.5271 H              1 RES1               0.0000
     22 H22         27.9975   8.1695  -5.7113 H              1 RES1               0.0000
     23 H23         26.5731  11.8262  -4.6634 H              1 RES1               0.0000
     24 H24         26.7953   9.2069  -0.2252 H              1 RES1               0.0000
     25 H25         27.7249   9.1916  -1.7221 H              1 RES1               0.0000
     26 H26         26.5536  10.4743  -1.4254 H              1 RES1               0.0000
     27 H27         22.1900   8.7891  -6.7641 H              1 RES1               0.0000
     28 H28         21.7249   6.0664  -3.5159 H              1 RES1               0.0000
     29 H29         20.9007   7.0171  -5.6351 H              1 RES1               0.0000
@<TRIPOS>BOND
    1    1    2 1     
    2    1    3 1     
    3    1    4 1     
    4    1    5 1     
    5    2    6 ar    
    6    2    7 ar    
    7    3    8 1     
    8    3    9 2     
    9    4   10 1     
   10    4   11 2     
   11    5   12 1     
   12    5   18 1     
   13    5   19 1     
   14    6   13 ar    
   15    6   20 1     
   16    7   14 ar    
   17    7   21 1     
   18    8   15 1     
   19    8   22 1     
   20   10   15 1     
   21   10   23 1     
   22   12   24 1     
   23   12   25 1     
   24   12   26 1     
   25   13   16 ar    
   26   13   27 1     
   27   14   16 ar    
   28   14   28 1     
   29   15   17 2     
   30   16   29 1     
@<TRIPOS>SUBSTRUCTURE
      1 RES1           1
@<TRIPOS>SET
DONOR_HYDROGENS      STATIC     ATOMS    <user>   **** ""
2 22 23
ATOM$RED        STATIC     ATOMS    COLORGROUP SYSTEM
2 22 23
@<TRIPOS>COMMENT
> <Gold.Version>
2022.3.0

> <Gold.Id.Protein>
unknown|3nx8_clean|pdb

> <Gold.Protein.RotatedTorsions>
[  549  544  542  539 ] final  -30.68 input   60.01 | X-H torsion
[ 2770 2763 2761 2758 ] final  134.40 input   60.01 | X-H torsion
[ 5056 5047 5046 5044 ] final -106.18 input   59.99 | X-H torsion
[ 1860 1855 1854 1851 ] final -142.98 input   60.02 | X-H torsion
[  567  564  563  560 ] final   53.32 input   60.03 | X-H torsion
[ 2456 2451 2450 2448 ] final  -64.44 input   59.99 | X-H torsion
[ 2535 2524 2523 2522 ] final  170.80 input   60.02 | X-H torsion

> <Gold.Protein.ActiveResidues>
 THR48   LEU49   GLY50   THR51   GLY52   SER53   PHE54   GLY55   ARG56   VAL57  
 MET58   ALA70   LYS72   GLU91   VAL104  MET120  TYR122  VAL123  GLY126  GLU127 
 MET128  PHE129  SER130  TYR164  ASP166  LYS168  PRO169  GLU170  ASN171  LEU172 
 LEU173  GLN181  VAL182  THR183  ASP184  PHE185  GLY186  ASN326  PHE327  ASP328 
 TYR330 

> <Gold.Protein.RotatedAtoms>
   20.8592   11.1582   -5.8487 H   0  0  0  0  0  0  0  0  0  0  0  0  # atno 549  bound_to 544 
   21.7560   10.3124    3.3622 H   0  0  0  0  0  0  0  0  0  0  0  0  # atno 567  bound_to 564 
   26.1997    5.3782  -12.7807 H   0  0  0  0  0  0  0  0  0  0  0  0  # atno 1860 bound_to 1855
   25.7781    3.4772    3.0364 H   0  0  0  0  0  0  0  0  0  0  0  0  # atno 2456 bound_to 2451
   19.3756    4.9861   -0.9090 H   0  0  0  0  0  0  0  0  0  0  0  0  # atno 2535 bound_to 2524
   18.7082    3.8880   -1.9559 H   0  0  0  0  0  0  0  0  0  0  0  0  # atno 2536 bound_to 2524
   18.8015    3.5400   -0.3376 H   0  0  0  0  0  0  0  0  0  0  0  0  # atno 2537 bound_to 2524
   30.3600    8.6941    0.0526 H   0  0  0  0  0  0  0  0  0  0  0  0  # atno 2770 bound_to 2763
   22.2871    9.7725  -10.0957 H   0  0  0  0  0  0  0  0  0  0  0  0  # atno 5056 bound_to 5047
   19.5652   12.1422   -5.9231 LP  0  0  0  0  0  0  0  0  0  0  0  0  # atno 5356 bound_to 544 
   19.6928   11.0461   -4.7194 LP  0  0  0  0  0  0  0  0  0  0  0  0  # atno 5357 bound_to 544 
   29.7664    8.1252    1.4573 LP  0  0  0  0  0  0  0  0  0  0  0  0  # atno 5378 bound_to 2763
   28.7562    8.4753    0.2231 LP  0  0  0  0  0  0  0  0  0  0  0  0  # atno 5379 bound_to 2763
   22.5562   10.0908   -8.5227 LP  0  0  0  0  0  0  0  0  0  0  0  0  # atno 5382 bound_to 5047
   23.8096    9.9921   -9.5648 LP  0  0  0  0  0  0  0  0  0  0  0  0  # atno 5383 bound_to 5047
   26.7245    4.5908  -11.4567 LP  0  0  0  0  0  0  0  0  0  0  0  0  # atno 5388 bound_to 1855
   25.1739    4.4321  -11.9434 LP  0  0  0  0  0  0  0  0  0  0  0  0  # atno 5389 bound_to 1855
   22.4153    8.9224    2.8308 LP  0  0  0  0  0  0  0  0  0  0  0  0  # atno 5398 bound_to 564 
   22.0257    9.0941    4.4073 LP  0  0  0  0  0  0  0  0  0  0  0  0  # atno 5399 bound_to 564 
   26.0493    2.1664    2.1107 LP  0  0  0  0  0  0  0  0  0  0  0  0  # atno 5400 bound_to 2451
   27.3049    2.9918    2.7501 LP  0  0  0  0  0  0  0  0  0  0  0  0  # atno 5401 bound_to 2451

> <Gold.Score>
     Fitness  S(hb_ext) S(vdw_ext)  S(hb_int)    S(int)      intcor
     41.62       0.00      30.68       0.00      -0.57      -0.77

> <Gold.Goldscore.Fitness>
41.6169

> <Gold.Goldscore.Internal.Vdw>
-0.5611

> <Gold.Goldscore.Internal.Torsion>
-0.7805

> <Gold.Goldscore.External.Vdw>
30.6836

> <Gold.Goldscore.Internal.HBond>
0.0000

> <Gold.Goldscore.External.HBond>
0.0000

> <Gold.Goldscore.Internal.Correction>
-0.7686

> <Gold.Goldscore.Internal.Vdw.Weighted>
-0.5611

> <Gold.Goldscore.Internal.Torsion.Weighted>
-0.7805

> <Gold.Goldscore.External.Vdw.Weighted>
42.1899

> <Gold.Goldscore.Internal.HBond.Weighted>
0.0000

> <Gold.Goldscore.External.HBond.Weighted>
0.0000

> <Gold.Goldscore.Internal.Correction.Weighted>
-0.7686

> <Gold.Rescore>
     Score     S(PLP)   S(hbond)     S(cho)   S(metal)  DE(clash)   DE(tors)     intcor
     15.84     -17.58       0.00       0.00       0.00       0.00       0.87       ----

> <Gold.PLP.Fitness>
15.8393

> <Gold.PLP.PLP>
-17.5767

> <Gold.PLP.part.hbond>
-1.8367

> <Gold.PLP.part.metal>
0.0000

> <Gold.PLP.part.buried>
19.6277

> <Gold.PLP.part.nonpolar>
-37.0822

> <Gold.PLP.part.repulsive>
0.5350

> <Gold.PLP.ligand.clash>
0.0000

> <Gold.PLP.ligand.torsion>
0.8687

> <Gold.PLP.Chemscore.Hbond>
0.0000

> <Gold.PLP.Chemscore.CHOScore>
0.0000

> <Gold.PLP.Chemscore.Metal>
0.0000

> <Gold.PLP.Chemscore.Internal.Correction>
   9.000000E+99

#       Name:                CT1002167954
#       Creating user name   hitesit
#       Creation time:       Sun Apr 16 22:50:27 2023


#       File generated by GOLD software.
#

@<TRIPOS>MOLECULE
CT1002167954|ligand_prepared|mol2|1|dock2
    29    30     1
SMALL
NO_CHARGES


@<TRIPOS>ATOM
      1 C1          26.6560   9.4975  -3.6164 C.3            1 RES1               0.0000
      2 C2          28.1757   9.7238  -3.7511 C.ar           1 RES1               0.0000
      3 C3          26.4578   8.6573  -2.3582 C.2            1 RES1               0.0000
      4 C4          26.0231  10.8828  -3.5455 C.2            1 RES1               0.0000
      5 C5          26.0277   8.7459  -4.8130 C.3            1 RES1               0.0000
      6 C6          28.9965   9.7100  -2.6274 C.ar           1 RES1               0.0000
      7 C7          28.7706   9.9444  -4.9905 C.ar           1 RES1               0.0000
      8 N8          25.9536   9.2808  -1.2551 N.am           1 RES1               0.0000
      9 O9          26.7761   7.4751  -2.3226 O.2            1 RES1               0.0000
     10 N10         25.4045  11.2472  -2.3783 N.am           1 RES1               0.0000
     11 O11         26.0690  11.6684  -4.4841 O.2            1 RES1               0.0000
     12 C12         24.5872   8.3183  -4.5805 C.3            1 RES1               0.0000
     13 C13         30.3630   9.9068  -2.7388 C.ar           1 RES1               0.0000
     14 C14         30.1373  10.1412  -5.0996 C.ar           1 RES1               0.0000
     15 C15         25.3679  10.5207  -1.2194 C.2            1 RES1               0.0000
     16 C16         30.9343  10.1220  -3.9749 C.ar           1 RES1               0.0000
     17 O17         24.8390  10.9390  -0.1935 O.2            1 RES1               0.0000
     18 H18         26.0652   9.3948  -5.6967 H              1 RES1               0.0000
     19 H19         26.6306   7.8544  -5.0259 H              1 RES1               0.0000
     20 H20         28.5645   9.5446  -1.6460 H              1 RES1               0.0000
     21 H21         28.1630   9.9647  -5.8888 H              1 RES1               0.0000
     22 H22         26.0181   8.7788  -0.3752 H              1 RES1               0.0000
     23 H23         24.9271  12.1429  -2.3729 H              1 RES1               0.0000
     24 H24         24.1948   7.7956  -5.4502 H              1 RES1               0.0000
     25 H25         24.5162   7.6514  -3.7237 H              1 RES1               0.0000
     26 H26         23.9542   9.1827  -4.3905 H              1 RES1               0.0000
     27 H27         30.9857   9.8921  -1.8504 H              1 RES1               0.0000
     28 H28         30.5826  10.3108  -6.0744 H              1 RES1               0.0000
     29 H29         32.0048  10.2757  -4.0619 H              1 RES1               0.0000
@<TRIPOS>BOND
    1    1    2 1     
    2    1    3 1     
    3    1    4 1     
    4    1    5 1     
    5    2    6 ar    
    6    2    7 ar    
    7    3    8 1     
    8    3    9 2     
    9    4   10 1     
   10    4   11 2     
   11    5   12 1     
   12    5   18 1     
   13    5   19 1     
   14    6   13 ar    
   15    6   20 1     
   16    7   14 ar    
   17    7   21 1     
   18    8   15 1     
   19    8   22 1     
   20   10   15 1     
   21   10   23 1     
   22   12   24 1     
   23   12   25 1     
   24   12   26 1     
   25   13   16 ar    
   26   13   27 1     
   27   14   16 ar    
   28   14   28 1     
   29   15   17 2     
   30   16   29 1     
@<TRIPOS>SUBSTRUCTURE
      1 RES1           1
@<TRIPOS>SET
DONOR_HYDROGENS      STATIC     ATOMS    <user>   **** ""
2 22 23
ATOM$RED        STATIC     ATOMS    COLORGROUP SYSTEM
2 22 23
@<TRIPOS>COMMENT
> <Gold.Version>
2022.3.0

> <Gold.Id.Protein>
unknown|3nx8_clean|pdb

> <Gold.Protein.RotatedTorsions>
[  549  544  542  539 ] final   19.74 input   60.01 | X-H torsion
[ 2770 2763 2761 2758 ] final  131.86 input   60.01 | X-H torsion
[ 5056 5047 5046 5044 ] final   -1.11 input   59.99 | X-H torsion
[ 1860 1855 1854 1851 ] final -114.24 input   60.02 | X-H torsion
[  567  564  563  560 ] final  -19.88 input   60.03 | X-H torsion
[ 2456 2451 2450 2448 ] final  -14.39 input   59.99 | X-H torsion
[ 2535 2524 2523 2522 ] final  -53.25 input   60.02 | X-H torsion

> <Gold.Protein.ActiveResidues>
 THR48   LEU49   GLY50   THR51   GLY52   SER53   PHE54   GLY55   ARG56   VAL57  
 MET58   ALA70   LYS72   GLU91   VAL104  MET120  TYR122  VAL123  GLY126  GLU127 
 MET128  PHE129  SER130  TYR164  ASP166  LYS168  PRO169  GLU170  ASN171  LEU172 
 LEU173  GLN181  VAL182  THR183  ASP184  PHE185  GLY186  ASN326  PHE327  ASP328 
 TYR330 

> <Gold.Protein.RotatedAtoms>
   20.6190   10.7793   -5.1893 H   0  0  0  0  0  0  0  0  0  0  0  0  # atno 549  bound_to 544 
   22.1886    9.6010    2.6178 H   0  0  0  0  0  0  0  0  0  0  0  0  # atno 567  bound_to 564 
   25.7516    5.2632  -12.8264 H   0  0  0  0  0  0  0  0  0  0  0  0  # atno 1860 bound_to 1855
   26.5440    3.6259    3.1738 H   0  0  0  0  0  0  0  0  0  0  0  0  # atno 2456 bound_to 2451
   18.6262    3.6678   -1.8309 H   0  0  0  0  0  0  0  0  0  0  0  0  # atno 2535 bound_to 2524
   18.9133    3.7363   -0.1999 H   0  0  0  0  0  0  0  0  0  0  0  0  # atno 2536 bound_to 2524
   19.3448    5.0082   -1.1719 H   0  0  0  0  0  0  0  0  0  0  0  0  # atno 2537 bound_to 2524
   30.3849    8.6849    0.0844 H   0  0  0  0  0  0  0  0  0  0  0  0  # atno 2770 bound_to 2763
   23.7316    9.9454   -9.7914 H   0  0  0  0  0  0  0  0  0  0  0  0  # atno 5056 bound_to 5047
   20.2589   11.9387   -6.2730 LP  0  0  0  0  0  0  0  0  0  0  0  0  # atno 5356 bound_to 544 
   19.2411   11.6311   -5.0336 LP  0  0  0  0  0  0  0  0  0  0  0  0  # atno 5357 bound_to 544 
   29.7252    8.1198    1.4609 LP  0  0  0  0  0  0  0  0  0  0  0  0  # atno 5378 bound_to 2763
   28.7723    8.4899    0.1875 LP  0  0  0  0  0  0  0  0  0  0  0  0  # atno 5379 bound_to 2763
   22.1170    9.7894   -9.9213 LP  0  0  0  0  0  0  0  0  0  0  0  0  # atno 5382 bound_to 5047
   22.7943   10.1193   -8.4725 LP  0  0  0  0  0  0  0  0  0  0  0  0  # atno 5383 bound_to 5047
   26.9242    4.8812  -11.7646 LP  0  0  0  0  0  0  0  0  0  0  0  0  # atno 5388 bound_to 1855
   25.4253    4.2575  -11.5893 LP  0  0  0  0  0  0  0  0  0  0  0  0  # atno 5389 bound_to 1855
   22.3157    8.6171    3.9082 LP  0  0  0  0  0  0  0  0  0  0  0  0  # atno 5398 bound_to 564 
   21.6897   10.1156    4.0792 LP  0  0  0  0  0  0  0  0  0  0  0  0  # atno 5399 bound_to 564 
   25.4888    2.6392    2.4245 LP  0  0  0  0  0  0  0  0  0  0  0  0  # atno 5400 bound_to 2451
   27.0943    2.3694    2.2980 LP  0  0  0  0  0  0  0  0  0  0  0  0  # atno 5401 bound_to 2451

> <Gold.Score>
     Fitness  S(hb_ext) S(vdw_ext)  S(hb_int)    S(int)      intcor
     41.45       0.00      30.71       0.00      -0.77      -0.80

> <Gold.Goldscore.Fitness>
41.4542

> <Gold.Goldscore.Internal.Vdw>
-1.0571

> <Gold.Goldscore.Internal.Torsion>
-0.5182

> <Gold.Goldscore.External.Vdw>
30.7096

> <Gold.Goldscore.Internal.HBond>
0.0000

> <Gold.Goldscore.External.HBond>
0.0000

> <Gold.Goldscore.Internal.Correction>
-0.8038

> <Gold.Goldscore.Internal.Vdw.Weighted>
-1.0571

> <Gold.Goldscore.Internal.Torsion.Weighted>
-0.5182

> <Gold.Goldscore.External.Vdw.Weighted>
42.2257

> <Gold.Goldscore.Internal.HBond.Weighted>
0.0000

> <Gold.Goldscore.External.HBond.Weighted>
0.0000

> <Gold.Goldscore.Internal.Correction.Weighted>
-0.8038

> <Gold.Rescore>
     Score     S(PLP)   S(hbond)     S(cho)   S(metal)  DE(clash)   DE(tors)     intcor
     20.11     -22.71       0.01       0.00       0.00       0.41       1.12       ----

> <Gold.PLP.Fitness>
20.1109

> <Gold.PLP.PLP>
-22.7147

> <Gold.PLP.part.hbond>
-2.2819

> <Gold.PLP.part.metal>
0.0000

> <Gold.PLP.part.buried>
12.7159

> <Gold.PLP.part.nonpolar>
-37.8777

> <Gold.PLP.part.repulsive>
3.3107

> <Gold.PLP.ligand.clash>
0.4124

> <Gold.PLP.ligand.torsion>
1.1160

> <Gold.PLP.Chemscore.Hbond>
0.0135

> <Gold.PLP.Chemscore.CHOScore>
0.0000

> <Gold.PLP.Chemscore.Metal>
0.0000

> <Gold.PLP.Chemscore.Internal.Correction>
   9.000000E+99

#       Name:                CT1002167954
#       Creating user name   hitesit
#       Creation time:       Sun Apr 16 22:50:35 2023


#       File generated by GOLD software.
#

@<TRIPOS>MOLECULE
CT1002167954|ligand_prepared|mol2|1|dock8
    29    30     1
SMALL
NO_CHARGES


@<TRIPOS>ATOM
      1 C1          26.7473   9.3555  -3.4406 C.3            1 RES1               0.0000
      2 C2          26.8689   9.6175  -1.9256 C.ar           1 RES1               0.0000
      3 C3          26.7960   7.8408  -3.6188 C.2            1 RES1               0.0000
      4 C4          25.4330   9.9916  -3.8795 C.2            1 RES1               0.0000
      5 C5          27.8855   9.9852  -4.2769 C.3            1 RES1               0.0000
      6 C6          25.7398   9.6082  -1.1120 C.ar           1 RES1               0.0000
      7 C7          28.1014   9.8669  -1.3277 C.ar           1 RES1               0.0000
      8 N8          25.6303   7.2029  -3.9256 N.am           1 RES1               0.0000
      9 O9          27.8335   7.2110  -3.4536 O.2            1 RES1               0.0000
     10 N10         24.4366   9.1636  -4.3262 N.am           1 RES1               0.0000
     11 O11         25.2453  11.2008  -3.8268 O.2            1 RES1               0.0000
     12 C12         27.6317   9.9591  -5.7759 C.3            1 RES1               0.0000
     13 C13         25.8395   9.8370   0.2503 C.ar           1 RES1               0.0000
     14 C14         28.1988  10.0957   0.0349 C.ar           1 RES1               0.0000
     15 C15         24.4648   7.7957  -4.3402 C.2            1 RES1               0.0000
     16 C16         27.0689  10.0804   0.8247 C.ar           1 RES1               0.0000
     17 O17         23.5082   7.1186  -4.7055 O.2            1 RES1               0.0000
     18 H18         28.0220  11.0265  -3.9600 H              1 RES1               0.0000
     19 H19         28.8176   9.4461  -4.0673 H              1 RES1               0.0000
     20 H20         24.7636   9.4209  -1.5466 H              1 RES1               0.0000
     21 H21         29.0035   9.8847  -1.9297 H              1 RES1               0.0000
     22 H22         25.6247   6.1916  -3.8387 H              1 RES1               0.0000
     23 H23         23.5961   9.6083  -4.6813 H              1 RES1               0.0000
     24 H24         28.4603  10.4129  -6.3155 H              1 RES1               0.0000
     25 H25         27.5162   8.9368  -6.1299 H              1 RES1               0.0000
     26 H26         26.7252  10.5078  -6.0232 H              1 RES1               0.0000
     27 H27         24.9471   9.8253   0.8674 H              1 RES1               0.0000
     28 H28         29.1683  10.2874   0.4826 H              1 RES1               0.0000
     29 H29         27.1468  10.2592   1.8920 H              1 RES1               0.0000
@<TRIPOS>BOND
    1    1    2 1     
    2    1    3 1     
    3    1    4 1     
    4    1    5 1     
    5    2    6 ar    
    6    2    7 ar    
    7    3    8 1     
    8    3    9 2     
    9    4   10 1     
   10    4   11 2     
   11    5   12 1     
   12    5   18 1     
   13    5   19 1     
   14    6   13 ar    
   15    6   20 1     
   16    7   14 ar    
   17    7   21 1     
   18    8   15 1     
   19    8   22 1     
   20   10   15 1     
   21   10   23 1     
   22   12   24 1     
   23   12   25 1     
   24   12   26 1     
   25   13   16 ar    
   26   13   27 1     
   27   14   16 ar    
   28   14   28 1     
   29   15   17 2     
   30   16   29 1     
@<TRIPOS>SUBSTRUCTURE
      1 RES1           1
@<TRIPOS>SET
DONOR_HYDROGENS      STATIC     ATOMS    <user>   **** ""
2 22 23
ATOM$RED        STATIC     ATOMS    COLORGROUP SYSTEM
2 22 23
@<TRIPOS>COMMENT
> <Gold.Version>
2022.3.0

> <Gold.Id.Protein>
unknown|3nx8_clean|pdb

> <Gold.Protein.RotatedTorsions>
[  549  544  542  539 ] final   -5.46 input   60.01 | X-H torsion
[ 2770 2763 2761 2758 ] final   22.29 input   60.01 | X-H torsion
[ 5056 5047 5046 5044 ] final  129.84 input   59.99 | X-H torsion
[ 1860 1855 1854 1851 ] final  116.02 input   60.02 | X-H torsion
[  567  564  563  560 ] final  117.65 input   60.03 | X-H torsion
[ 2456 2451 2450 2448 ] final  138.48 input   59.99 | X-H torsion
[ 2535 2524 2523 2522 ] final -179.48 input   60.02 | X-H torsion

> <Gold.Protein.ActiveResidues>
 THR48   LEU49   GLY50   THR51   GLY52   SER53   PHE54   GLY55   ARG56   VAL57  
 MET58   ALA70   LYS72   GLU91   VAL104  MET120  TYR122  VAL123  GLY126  GLU127 
 MET128  PHE129  SER130  TYR164  ASP166  LYS168  PRO169  GLU170  ASN171  LEU172 
 LEU173  GLN181  VAL182  THR183  ASP184  PHE185  GLY186  ASN326  PHE327  ASP328 
 TYR330 

> <Gold.Protein.RotatedAtoms>
   20.8125   10.9182   -5.5212 H   0  0  0  0  0  0  0  0  0  0  0  0  # atno 549  bound_to 544 
   21.7290    9.9092    4.2738 H   0  0  0  0  0  0  0  0  0  0  0  0  # atno 567  bound_to 564 
   26.8747    4.7794  -11.6520 H   0  0  0  0  0  0  0  0  0  0  0  0  # atno 1860 bound_to 1855
   26.6464    2.1434    2.1218 H   0  0  0  0  0  0  0  0  0  0  0  0  # atno 2456 bound_to 2451
   19.3606    5.0078   -1.0689 H   0  0  0  0  0  0  0  0  0  0  0  0  # atno 2535 bound_to 2524
   18.6558    3.7507   -1.8876 H   0  0  0  0  0  0  0  0  0  0  0  0  # atno 2536 bound_to 2524
   18.8688    3.6555   -0.2462 H   0  0  0  0  0  0  0  0  0  0  0  0  # atno 2537 bound_to 2524
   29.8910    8.1453    1.4289 H   0  0  0  0  0  0  0  0  0  0  0  0  # atno 2770 bound_to 2763
   22.6199   10.1010   -8.5099 H   0  0  0  0  0  0  0  0  0  0  0  0  # atno 5056 bound_to 5047
   19.8986   12.1028   -6.1613 LP  0  0  0  0  0  0  0  0  0  0  0  0  # atno 5356 bound_to 544 
   19.4065   11.3272   -4.8111 LP  0  0  0  0  0  0  0  0  0  0  0  0  # atno 5357 bound_to 544 
   28.7170    8.4295    0.3379 LP  0  0  0  0  0  0  0  0  0  0  0  0  # atno 5378 bound_to 2763
   30.2776    8.7233   -0.0428 LP  0  0  0  0  0  0  0  0  0  0  0  0  # atno 5379 bound_to 2763
   23.7964    9.9790   -9.6276 LP  0  0  0  0  0  0  0  0  0  0  0  0  # atno 5382 bound_to 5047
   22.2343    9.7730  -10.0565 LP  0  0  0  0  0  0  0  0  0  0  0  0  # atno 5383 bound_to 5047
   25.3193    4.3031  -11.7002 LP  0  0  0  0  0  0  0  0  0  0  0  0  # atno 5388 bound_to 1855
   25.8995    5.3226  -12.8363 LP  0  0  0  0  0  0  0  0  0  0  0  0  # atno 5389 bound_to 1855
   22.0768    9.8561    2.6847 LP  0  0  0  0  0  0  0  0  0  0  0  0  # atno 5398 bound_to 564 
   22.3914    8.5664    3.6357 LP  0  0  0  0  0  0  0  0  0  0  0  0  # atno 5399 bound_to 564 
   27.0213    3.4275    3.0488 LP  0  0  0  0  0  0  0  0  0  0  0  0  # atno 5400 bound_to 2451
   25.4588    3.0736    2.7327 LP  0  0  0  0  0  0  0  0  0  0  0  0  # atno 5401 bound_to 2451

> <Gold.Score>
     Fitness  S(hb_ext) S(vdw_ext)  S(hb_int)    S(int)      intcor
     41.34       1.02      29.51       0.00      -0.26      -0.77

> <Gold.Goldscore.Fitness>
41.3399

> <Gold.Goldscore.Internal.Vdw>
-0.4706

> <Gold.Goldscore.Internal.Torsion>
-0.5560

> <Gold.Goldscore.External.Vdw>
29.5140

> <Gold.Goldscore.Internal.HBond>
0.0000

> <Gold.Goldscore.External.HBond>
1.0160

> <Gold.Goldscore.Internal.Correction>
-0.7686

> <Gold.Goldscore.Hbonds>
donor molecule, donor type, donor heavy atom, donor atom, acceptor molecule, acceptor atom, score
      L1  H     8    22       P1  2555  0.50
      L1  H    10    23       P1   541  0.01

> <Gold.Goldscore.Internal.Vdw.Weighted>
-0.4706

> <Gold.Goldscore.Internal.Torsion.Weighted>
-0.5560

> <Gold.Goldscore.External.Vdw.Weighted>
40.5818

> <Gold.Goldscore.Internal.HBond.Weighted>
0.0000

> <Gold.Goldscore.External.HBond.Weighted>
1.0160

> <Gold.Goldscore.Internal.Correction.Weighted>
-0.7686

> <Gold.Rescore>
     Score     S(PLP)   S(hbond)     S(cho)   S(metal)  DE(clash)   DE(tors)     intcor
     21.51     -19.73       1.40       0.00       0.00       0.00       1.21       ----

> <Gold.PLP.Fitness>
21.5067

> <Gold.PLP.PLP>
-19.7313

> <Gold.PLP.part.hbond>
-3.0000

> <Gold.PLP.part.metal>
0.0000

> <Gold.PLP.part.buried>
16.3070

> <Gold.PLP.part.nonpolar>
-38.3492

> <Gold.PLP.part.repulsive>
3.2461

> <Gold.PLP.ligand.clash>
0.0000

> <Gold.PLP.ligand.torsion>
1.2087

> <Gold.PLP.Chemscore.Hbond>
1.3976

> <Gold.PLP.Chemscore.CHOScore>
0.0000

> <Gold.PLP.Chemscore.Metal>
0.0000

> <Gold.Chemscore.Hbonds>
donor molecule, donor type, donor heavy atom, donor atom, acceptor molecule, acceptor atom, score
      L1  H     8    22       P1  2555  1.00
      L1  H    10    23       P1   541  0.49

> <Gold.PLP.Chemscore.Internal.Correction>
   9.000000E+99

#       Name:                CT1002167954
#       Creating user name   hitesit
#       Creation time:       Sun Apr 16 22:50:37 2023


#       File generated by GOLD software.
#

@<TRIPOS>MOLECULE
CT1002167954|ligand_prepared|mol2|1|dock10
    29    30     1
SMALL
NO_CHARGES


@<TRIPOS>ATOM
      1 C1          25.8285   9.2124  -3.6347 C.3            1 RES1               0.0000
      2 C2          24.5565   8.5416  -4.1922 C.ar           1 RES1               0.0000
      3 C3          25.4195  10.6195  -3.2094 C.2            1 RES1               0.0000
      4 C4          26.3080   8.3303  -2.4872 C.2            1 RES1               0.0000
      5 C5          26.9777   9.3246  -4.6634 C.3            1 RES1               0.0000
      6 C6          23.8199   7.6581  -3.4089 C.ar           1 RES1               0.0000
      7 C7          24.1065   8.7980  -5.4847 C.ar           1 RES1               0.0000
      8 N8          25.3105  10.8691  -1.8731 N.am           1 RES1               0.0000
      9 O9          25.1582  11.4860  -4.0348 O.2            1 RES1               0.0000
     10 N10         26.2757   8.8512  -1.2202 N.am           1 RES1               0.0000
     11 O11         26.6977   7.1831  -2.6668 O.2            1 RES1               0.0000
     12 C12         28.2967   9.7833  -4.0616 C.3            1 RES1               0.0000
     13 C13         22.6733   7.0550  -3.8988 C.ar           1 RES1               0.0000
     14 C14         22.9597   8.1936  -5.9727 C.ar           1 RES1               0.0000
     15 C15         25.7699  10.0697  -0.8574 C.2            1 RES1               0.0000
     16 C16         22.2422   7.3226  -5.1806 C.ar           1 RES1               0.0000
     17 O17         25.7258  10.4459   0.3103 O.2            1 RES1               0.0000
     18 H18         27.1264   8.3455  -5.1351 H              1 RES1               0.0000
     19 H19         26.6821  10.0329  -5.4472 H              1 RES1               0.0000
     20 H20         24.1450   7.4334  -2.3986 H              1 RES1               0.0000
     21 H21         24.6556   9.4789  -6.1261 H              1 RES1               0.0000
     22 H22         24.8442  11.7296  -1.6041 H              1 RES1               0.0000
     23 H23         26.6650   8.2775  -0.4788 H              1 RES1               0.0000
     24 H24         29.0685   9.8452  -4.8258 H              1 RES1               0.0000
     25 H25         28.1917  10.7656  -3.6056 H              1 RES1               0.0000
     26 H26         28.6334   9.0882  -3.2953 H              1 RES1               0.0000
     27 H27         22.1129   6.3693  -3.2719 H              1 RES1               0.0000
     28 H28         22.6245   8.4066  -6.9824 H              1 RES1               0.0000
     29 H29         21.3438   6.8504  -5.5640 H              1 RES1               0.0000
@<TRIPOS>BOND
    1    1    2 1     
    2    1    3 1     
    3    1    4 1     
    4    1    5 1     
    5    2    6 ar    
    6    2    7 ar    
    7    3    8 1     
    8    3    9 2     
    9    4   10 1     
   10    4   11 2     
   11    5   12 1     
   12    5   18 1     
   13    5   19 1     
   14    6   13 ar    
   15    6   20 1     
   16    7   14 ar    
   17    7   21 1     
   18    8   15 1     
   19    8   22 1     
   20   10   15 1     
   21   10   23 1     
   22   12   24 1     
   23   12   25 1     
   24   12   26 1     
   25   13   16 ar    
   26   13   27 1     
   27   14   16 ar    
   28   14   28 1     
   29   15   17 2     
   30   16   29 1     
@<TRIPOS>SUBSTRUCTURE
      1 RES1           1
@<TRIPOS>SET
DONOR_HYDROGENS      STATIC     ATOMS    <user>   **** ""
2 22 23
ATOM$RED        STATIC     ATOMS    COLORGROUP SYSTEM
2 22 23
@<TRIPOS>COMMENT
> <Gold.Version>
2022.3.0

> <Gold.Id.Protein>
unknown|3nx8_clean|pdb

> <Gold.Protein.RotatedTorsions>
[  549  544  542  539 ] final -168.70 input   60.01 | X-H torsion
[ 2770 2763 2761 2758 ] final -142.12 input   60.01 | X-H torsion
[ 5056 5047 5046 5044 ] final -169.48 input   59.99 | X-H torsion
[ 1860 1855 1854 1851 ] final  -79.58 input   60.02 | X-H torsion
[  567  564  563  560 ] final -169.63 input   60.03 | X-H torsion
[ 2456 2451 2450 2448 ] final   26.43 input   59.99 | X-H torsion
[ 2535 2524 2523 2522 ] final  171.02 input   60.02 | X-H torsion

> <Gold.Protein.ActiveResidues>
 THR48   LEU49   GLY50   THR51   GLY52   SER53   PHE54   GLY55   ARG56   VAL57  
 MET58   ALA70   LYS72   GLU91   VAL104  MET120  TYR122  VAL123  GLY126  GLU127 
 MET128  PHE129  SER130  TYR164  ASP166  LYS168  PRO169  GLU170  ASN171  LEU172 
 LEU173  GLN181  VAL182  THR183  ASP184  PHE185  GLY186  ASN326  PHE327  ASP328 
 TYR330 

> <Gold.Protein.RotatedAtoms>
   19.3849   12.0854   -5.6976 H   0  0  0  0  0  0  0  0  0  0  0  0  # atno 549  bound_to 544 
   22.1365    8.8761    4.2738 H   0  0  0  0  0  0  0  0  0  0  0  0  # atno 567  bound_to 564 
   25.3128    4.9777  -12.6338 H   0  0  0  0  0  0  0  0  0  0  0  0  # atno 1860 bound_to 1855
   27.1050    3.3431    2.9952 H   0  0  0  0  0  0  0  0  0  0  0  0  # atno 2456 bound_to 2451
   19.3754    4.9868   -0.9124 H   0  0  0  0  0  0  0  0  0  0  0  0  # atno 2535 bound_to 2524
   18.7070    3.8850   -1.9547 H   0  0  0  0  0  0  0  0  0  0  0  0  # atno 2536 bound_to 2524
   18.8029    3.5423   -0.3354 H   0  0  0  0  0  0  0  0  0  0  0  0  # atno 2537 bound_to 2524
   29.1365    8.6600   -0.1869 H   0  0  0  0  0  0  0  0  0  0  0  0  # atno 2770 bound_to 2763
   21.9731    9.9225   -9.1767 H   0  0  0  0  0  0  0  0  0  0  0  0  # atno 5056 bound_to 5047
   19.9420   10.8894   -4.7450 LP  0  0  0  0  0  0  0  0  0  0  0  0  # atno 5356 bound_to 544 
   20.8010   11.3650   -6.0498 LP  0  0  0  0  0  0  0  0  0  0  0  0  # atno 5357 bound_to 544 
   30.5673    8.5257    0.5775 LP  0  0  0  0  0  0  0  0  0  0  0  0  # atno 5378 bound_to 2763
   29.1868    8.1090    1.3439 LP  0  0  0  0  0  0  0  0  0  0  0  0  # atno 5379 bound_to 2763
   23.5236   10.1288   -8.7274 LP  0  0  0  0  0  0  0  0  0  0  0  0  # atno 5382 bound_to 5047
   23.1583    9.8030  -10.2853 LP  0  0  0  0  0  0  0  0  0  0  0  0  # atno 5383 bound_to 5047
   26.8723    5.1991  -12.2248 LP  0  0  0  0  0  0  0  0  0  0  0  0  # atno 5388 bound_to 1855
   25.9190    4.2270  -11.3232 LP  0  0  0  0  0  0  0  0  0  0  0  0  # atno 5389 bound_to 1855
   21.7037   10.3097    3.6359 LP  0  0  0  0  0  0  0  0  0  0  0  0  # atno 5398 bound_to 564 
   22.3543    9.1527    2.6846 LP  0  0  0  0  0  0  0  0  0  0  0  0  # atno 5399 bound_to 564 
   25.4974    3.1745    2.8062 LP  0  0  0  0  0  0  0  0  0  0  0  0  # atno 5400 bound_to 2451
   26.5209    2.1188    2.0960 LP  0  0  0  0  0  0  0  0  0  0  0  0  # atno 5401 bound_to 2451

> <Gold.Score>
     Fitness  S(hb_ext) S(vdw_ext)  S(hb_int)    S(int)      intcor
     37.26       0.00      27.91       0.00      -1.11      -0.77

> <Gold.Goldscore.Fitness>
37.2639

> <Gold.Goldscore.Internal.Vdw>
-1.3858

> <Gold.Goldscore.Internal.Torsion>
-0.4938

> <Gold.Goldscore.External.Vdw>
27.9090

> <Gold.Goldscore.Internal.HBond>
0.0000

> <Gold.Goldscore.External.HBond>
0.0000

> <Gold.Goldscore.Internal.Correction>
-0.7686

> <Gold.Goldscore.Internal.Vdw.Weighted>
-1.3858

> <Gold.Goldscore.Internal.Torsion.Weighted>
-0.4938

> <Gold.Goldscore.External.Vdw.Weighted>
38.3749

> <Gold.Goldscore.Internal.HBond.Weighted>
0.0000

> <Gold.Goldscore.External.HBond.Weighted>
0.0000

> <Gold.Goldscore.Internal.Correction.Weighted>
-0.7686

> <Gold.Rescore>
     Score     S(PLP)   S(hbond)     S(cho)   S(metal)  DE(clash)   DE(tors)     intcor
      8.22     -10.57       0.00       0.00       0.00       1.18       0.58       ----

> <Gold.PLP.Fitness>
8.2241

> <Gold.PLP.PLP>
-10.5681

> <Gold.PLP.part.hbond>
-1.0000

> <Gold.PLP.part.metal>
0.0000

> <Gold.PLP.part.buried>
16.1871

> <Gold.PLP.part.nonpolar>
-31.9221

> <Gold.PLP.part.repulsive>
4.2557

> <Gold.PLP.ligand.clash>
1.1822

> <Gold.PLP.ligand.torsion>
0.5809

> <Gold.PLP.Chemscore.Hbond>
0.0000

> <Gold.PLP.Chemscore.CHOScore>
0.0000

> <Gold.PLP.Chemscore.Metal>
0.0000

> <Gold.PLP.Chemscore.Internal.Correction>
   9.000000E+99

#       Name:                CT1002167954
#       Creating user name   hitesit
#       Creation time:       Sun Apr 16 22:50:30 2023


#       File generated by GOLD software.
#

@<TRIPOS>MOLECULE
CT1002167954|ligand_prepared|mol2|1|dock4
    29    30     1
SMALL
NO_CHARGES


@<TRIPOS>ATOM
      1 C1          26.9627   9.1913  -3.0384 C.3            1 RES1               0.0000
      2 C2          28.2878   9.6325  -3.6928 C.ar           1 RES1               0.0000
      3 C3          25.8684  10.0504  -3.6651 C.2            1 RES1               0.0000
      4 C4          26.8223   7.6999  -3.3229 C.2            1 RES1               0.0000
      5 C5          26.9262   9.3907  -1.5053 C.3            1 RES1               0.0000
      6 C6          28.3457   9.9168  -5.0539 C.ar           1 RES1               0.0000
      7 C7          29.4578   9.7622  -2.9493 C.ar           1 RES1               0.0000
      8 N8          25.0370   9.4552  -4.5675 N.am           1 RES1               0.0000
      9 O9          25.7616  11.2416  -3.4012 O.2            1 RES1               0.0000
     10 N10         25.7924   7.2946  -4.1308 N.am           1 RES1               0.0000
     11 O11         27.6041   6.8739  -2.8682 O.2            1 RES1               0.0000
     12 C12         25.5384   9.2459  -0.9010 C.3            1 RES1               0.0000
     13 C13         29.5296  10.3190  -5.6496 C.ar           1 RES1               0.0000
     14 C14         30.6408  10.1643  -3.5470 C.ar           1 RES1               0.0000
     15 C15         24.9118   8.1076  -4.7909 C.2            1 RES1               0.0000
     16 C16         30.6777  10.4435  -4.8966 C.ar           1 RES1               0.0000
     17 O17         24.0460   7.6709  -5.5438 O.2            1 RES1               0.0000
     18 H18         27.5933   8.6561  -1.0377 H              1 RES1               0.0000
     19 H19         27.3111  10.3906  -1.2700 H              1 RES1               0.0000
     20 H20         27.4529   9.8221  -5.6630 H              1 RES1               0.0000
     21 H21         29.4525   9.5469  -1.8861 H              1 RES1               0.0000
     22 H22         24.4545  10.0689  -5.1283 H              1 RES1               0.0000
     23 H23         25.6710   6.2940  -4.2512 H              1 RES1               0.0000
     24 H24         25.5692   9.3953   0.1762 H              1 RES1               0.0000
     25 H25         24.8547   9.9783  -1.3252 H              1 RES1               0.0000
     26 H26         25.1352   8.2540  -1.0943 H              1 RES1               0.0000
     27 H27         29.5538  10.5362  -6.7124 H              1 RES1               0.0000
     28 H28         31.5421  10.2603  -2.9506 H              1 RES1               0.0000
     29 H29         31.6050  10.7590  -5.3634 H              1 RES1               0.0000
@<TRIPOS>BOND
    1    1    2 1     
    2    1    3 1     
    3    1    4 1     
    4    1    5 1     
    5    2    6 ar    
    6    2    7 ar    
    7    3    8 1     
    8    3    9 2     
    9    4   10 1     
   10    4   11 2     
   11    5   12 1     
   12    5   18 1     
   13    5   19 1     
   14    6   13 ar    
   15    6   20 1     
   16    7   14 ar    
   17    7   21 1     
   18    8   15 1     
   19    8   22 1     
   20   10   15 1     
   21   10   23 1     
   22   12   24 1     
   23   12   25 1     
   24   12   26 1     
   25   13   16 ar    
   26   13   27 1     
   27   14   16 ar    
   28   14   28 1     
   29   15   17 2     
   30   16   29 1     
@<TRIPOS>SUBSTRUCTURE
      1 RES1           1
@<TRIPOS>SET
DONOR_HYDROGENS      STATIC     ATOMS    <user>   **** ""
2 22 23
ATOM$RED        STATIC     ATOMS    COLORGROUP SYSTEM
2 22 23
@<TRIPOS>COMMENT
> <Gold.Version>
2022.3.0

> <Gold.Id.Protein>
unknown|3nx8_clean|pdb

> <Gold.Protein.RotatedTorsions>
[  549  544  542  539 ] final  123.05 input   60.01 | X-H torsion
[ 2770 2763 2761 2758 ] final  -57.11 input   60.01 | X-H torsion
[ 5056 5047 5046 5044 ] final  162.00 input   59.99 | X-H torsion
[ 1860 1855 1854 1851 ] final   -8.08 input   60.02 | X-H torsion
[  567  564  563  560 ] final  -30.71 input   60.03 | X-H torsion
[ 2456 2451 2450 2448 ] final   53.77 input   59.99 | X-H torsion
[ 2535 2524 2523 2522 ] final  -51.47 input   60.02 | X-H torsion

> <Gold.Protein.ActiveResidues>
 THR48   LEU49   GLY50   THR51   GLY52   SER53   PHE54   GLY55   ARG56   VAL57  
 MET58   ALA70   LYS72   GLU91   VAL104  MET120  TYR122  VAL123  GLY126  GLU127 
 MET128  PHE129  SER130  TYR164  ASP166  LYS168  PRO169  GLU170  ASN171  LEU172 
 LEU173  GLN181  VAL182  THR183  ASP184  PHE185  GLY186  ASN326  PHE327  ASP328 
 TYR330 

> <Gold.Protein.RotatedAtoms>
   19.3409   11.4314   -4.8767 H   0  0  0  0  0  0  0  0  0  0  0  0  # atno 549  bound_to 544 
   22.2539    9.4367    2.6157 H   0  0  0  0  0  0  0  0  0  0  0  0  # atno 567  bound_to 564 
   25.2863    4.3281  -11.7538 H   0  0  0  0  0  0  0  0  0  0  0  0  # atno 1860 bound_to 1855
   27.2932    3.0132    2.7680 H   0  0  0  0  0  0  0  0  0  0  0  0  # atno 2456 bound_to 2451
   18.6187    3.6452   -1.8131 H   0  0  0  0  0  0  0  0  0  0  0  0  # atno 2535 bound_to 2524
   18.9262    3.7605   -0.1885 H   0  0  0  0  0  0  0  0  0  0  0  0  # atno 2536 bound_to 2524
   19.3395    5.0065   -1.2010 H   0  0  0  0  0  0  0  0  0  0  0  0  # atno 2537 bound_to 2524
   28.7976    8.2124    0.9475 H   0  0  0  0  0  0  0  0  0  0  0  0  # atno 2770 bound_to 2763
   22.1834   10.0154   -8.7769 H   0  0  0  0  0  0  0  0  0  0  0  0  # atno 5056 bound_to 5047
   20.7665   10.8528   -5.4068 LP  0  0  0  0  0  0  0  0  0  0  0  0  # atno 5356 bound_to 544 
   20.0208   12.0602   -6.2148 LP  0  0  0  0  0  0  0  0  0  0  0  0  # atno 5357 bound_to 544 
   29.6798    8.7600   -0.3059 LP  0  0  0  0  0  0  0  0  0  0  0  0  # atno 5378 bound_to 2763
   30.4154    8.3252    1.0856 LP  0  0  0  0  0  0  0  0  0  0  0  0  # atno 5379 bound_to 2763
   23.7742   10.0750   -9.1146 LP  0  0  0  0  0  0  0  0  0  0  0  0  # atno 5382 bound_to 5047
   22.6959    9.7632  -10.3007 LP  0  0  0  0  0  0  0  0  0  0  0  0  # atno 5383 bound_to 5047
   25.9644    5.3410  -12.8321 LP  0  0  0  0  0  0  0  0  0  0  0  0  # atno 5388 bound_to 1855
   26.8536    4.7392  -11.6018 LP  0  0  0  0  0  0  0  0  0  0  0  0  # atno 5389 bound_to 1855
   22.2568    8.6875    4.0607 LP  0  0  0  0  0  0  0  0  0  0  0  0  # atno 5398 bound_to 564 
   21.6829   10.2106    3.9288 LP  0  0  0  0  0  0  0  0  0  0  0  0  # atno 5399 bound_to 564 
   25.7517    3.4675    3.0253 LP  0  0  0  0  0  0  0  0  0  0  0  0  # atno 5400 bound_to 2451
   26.0772    2.1579    2.1057 LP  0  0  0  0  0  0  0  0  0  0  0  0  # atno 5401 bound_to 2451

> <Gold.Score>
     Fitness  S(hb_ext) S(vdw_ext)  S(hb_int)    S(int)      intcor
     35.94       1.61      25.16       0.00      -0.27      -0.77

> <Gold.Goldscore.Fitness>
35.9444

> <Gold.Goldscore.Internal.Vdw>
-0.4170

> <Gold.Goldscore.Internal.Torsion>
-0.6169

> <Gold.Goldscore.External.Vdw>
25.1608

> <Gold.Goldscore.Internal.HBond>
0.0000

> <Gold.Goldscore.External.HBond>
1.6135

> <Gold.Goldscore.Internal.Correction>
-0.7686

> <Gold.Goldscore.Hbonds>
donor molecule, donor type, donor heavy atom, donor atom, acceptor molecule, acceptor atom, score
      L1  H    10    23       P1  2555  0.81

> <Gold.Goldscore.Internal.Vdw.Weighted>
-0.4170

> <Gold.Goldscore.Internal.Torsion.Weighted>
-0.6169

> <Gold.Goldscore.External.Vdw.Weighted>
34.5961

> <Gold.Goldscore.Internal.HBond.Weighted>
0.0000

> <Gold.Goldscore.External.HBond.Weighted>
1.6135

> <Gold.Goldscore.Internal.Correction.Weighted>
-0.7686

> <Gold.Rescore>
     Score     S(PLP)   S(hbond)     S(cho)   S(metal)  DE(clash)   DE(tors)     intcor
     29.04     -27.40       1.23       0.00       0.00       0.00       1.03       ----

> <Gold.PLP.Fitness>
29.0357

> <Gold.PLP.PLP>
-27.4044

> <Gold.PLP.part.hbond>
-2.9891

> <Gold.PLP.part.metal>
0.0000

> <Gold.PLP.part.buried>
9.4671

> <Gold.PLP.part.nonpolar>
-37.0974

> <Gold.PLP.part.repulsive>
2.0344

> <Gold.PLP.ligand.clash>
0.0000

> <Gold.PLP.ligand.torsion>
1.0276

> <Gold.PLP.Chemscore.Hbond>
1.2288

> <Gold.PLP.Chemscore.CHOScore>
0.0000

> <Gold.PLP.Chemscore.Metal>
0.0000

> <Gold.Chemscore.Hbonds>
donor molecule, donor type, donor heavy atom, donor atom, acceptor molecule, acceptor atom, score
      L1  H    10    23       P1  2555  1.00

> <Gold.PLP.Chemscore.Internal.Correction>
   9.000000E+99

#       Name:                CT1002167954
#       Creating user name   hitesit
#       Creation time:       Sun Apr 16 22:50:32 2023


#       File generated by GOLD software.
#

@<TRIPOS>MOLECULE
CT1002167954|ligand_prepared|mol2|1|dock5
    29    30     1
SMALL
NO_CHARGES


@<TRIPOS>ATOM
      1 C1          26.9397   9.2933  -3.1068 C.3            1 RES1               0.0000
      2 C2          28.2783   9.7252  -3.7396 C.ar           1 RES1               0.0000
      3 C3          25.8729  10.2151  -3.6902 C.2            1 RES1               0.0000
      4 C4          26.7540   7.8227  -3.4637 C.2            1 RES1               0.0000
      5 C5          26.9078   9.4186  -1.5658 C.3            1 RES1               0.0000
      6 C6          29.4240   9.8482  -2.9592 C.ar           1 RES1               0.0000
      7 C7          28.3835  10.0010  -5.1002 C.ar           1 RES1               0.0000
      8 N8          25.0245   9.6906  -4.6202 N.am           1 RES1               0.0000
      9 O9          25.8023  11.3948  -3.3683 O.2            1 RES1               0.0000
     10 N10         25.7129   7.4890  -4.2900 N.am           1 RES1               0.0000
     11 O11         27.5096   6.9519  -3.0503 O.2            1 RES1               0.0000
     12 C12         25.5273   9.2131  -0.9623 C.3            1 RES1               0.0000
     13 C13         30.6318  10.2301  -3.5192 C.ar           1 RES1               0.0000
     14 C14         29.5923  10.3830  -5.6582 C.ar           1 RES1               0.0000
     15 C15         24.8582   8.3599  -4.9091 C.2            1 RES1               0.0000
     16 C16         30.7169  10.4973  -4.8690 C.ar           1 RES1               0.0000
     17 O17         23.9802   7.9873  -5.6820 O.2            1 RES1               0.0000
     18 H18         27.5944   8.6783  -1.1370 H              1 RES1               0.0000
     19 H19         27.2711  10.4149  -1.2849 H              1 RES1               0.0000
     20 H20         29.3758   9.6444  -1.8947 H              1 RES1               0.0000
     21 H21         27.5116   9.9187  -5.7403 H              1 RES1               0.0000
     22 H22         24.4616  10.3485  -5.1500 H              1 RES1               0.0000
     23 H23         25.5610   6.4997  -4.4591 H              1 RES1               0.0000
     24 H24         25.5612   9.3116   0.1207 H              1 RES1               0.0000
     25 H25         24.8244   9.9487  -1.3477 H              1 RES1               0.0000
     26 H26         25.1459   8.2224  -1.2007 H              1 RES1               0.0000
     27 H27         31.5137  10.3199  -2.8935 H              1 RES1               0.0000
     28 H28         29.6545  10.5930  -6.7209 H              1 RES1               0.0000
     29 H29         31.6633  10.7961  -5.3075 H              1 RES1               0.0000
@<TRIPOS>BOND
    1    1    2 1     
    2    1    3 1     
    3    1    4 1     
    4    1    5 1     
    5    2    6 ar    
    6    2    7 ar    
    7    3    8 1     
    8    3    9 2     
    9    4   10 1     
   10    4   11 2     
   11    5   12 1     
   12    5   18 1     
   13    5   19 1     
   14    6   13 ar    
   15    6   20 1     
   16    7   14 ar    
   17    7   21 1     
   18    8   15 1     
   19    8   22 1     
   20   10   15 1     
   21   10   23 1     
   22   12   24 1     
   23   12   25 1     
   24   12   26 1     
   25   13   16 ar    
   26   13   27 1     
   27   14   16 ar    
   28   14   28 1     
   29   15   17 2     
   30   16   29 1     
@<TRIPOS>SUBSTRUCTURE
      1 RES1           1
@<TRIPOS>SET
DONOR_HYDROGENS      STATIC     ATOMS    <user>   **** ""
2 22 23
ATOM$RED        STATIC     ATOMS    COLORGROUP SYSTEM
2 22 23
@<TRIPOS>COMMENT
> <Gold.Version>
2022.3.0

> <Gold.Id.Protein>
unknown|3nx8_clean|pdb

> <Gold.Protein.RotatedTorsions>
[  549  544  542  539 ] final  -89.50 input   60.01 | X-H torsion
[ 2770 2763 2761 2758 ] final  129.39 input   60.01 | X-H torsion
[ 5056 5047 5046 5044 ] final   81.84 input   59.99 | X-H torsion
[ 1860 1855 1854 1851 ] final  -66.17 input   60.02 | X-H torsion
[  567  564  563  560 ] final  103.81 input   60.03 | X-H torsion
[ 2456 2451 2450 2448 ] final  116.90 input   59.99 | X-H torsion
[ 2535 2524 2523 2522 ] final  -99.90 input   60.02 | X-H torsion

> <Gold.Protein.ActiveResidues>
 THR48   LEU49   GLY50   THR51   GLY52   SER53   PHE54   GLY55   ARG56   VAL57  
 MET58   ALA70   LYS72   GLU91   VAL104  MET120  TYR122  VAL123  GLY126  GLU127 
 MET128  PHE129  SER130  TYR164  ASP166  LYS168  PRO169  GLU170  ASN171  LEU172 
 LEU173  GLN181  VAL182  THR183  ASP184  PHE185  GLY186  ASN326  PHE327  ASP328 
 TYR330 

> <Gold.Protein.RotatedAtoms>
   20.4022   11.8361   -6.2696 H   0  0  0  0  0  0  0  0  0  0  0  0  # atno 549  bound_to 544 
   21.6955   10.0726    4.1219 H   0  0  0  0  0  0  0  0  0  0  0  0  # atno 567  bound_to 564 
   25.2057    4.8436  -12.4983 H   0  0  0  0  0  0  0  0  0  0  0  0  # atno 1860 bound_to 1855
   26.9570    2.2696    2.2245 H   0  0  0  0  0  0  0  0  0  0  0  0  # atno 2456 bound_to 2451
   18.9125    4.3491   -1.9997 H   0  0  0  0  0  0  0  0  0  0  0  0  # atno 2535 bound_to 2524
   18.6269    3.2995   -0.7491 H   0  0  0  0  0  0  0  0  0  0  0  0  # atno 2536 bound_to 2524
   19.3452    4.7644   -0.4544 H   0  0  0  0  0  0  0  0  0  0  0  0  # atno 2537 bound_to 2524
   30.4079    8.6755    0.1165 H   0  0  0  0  0  0  0  0  0  0  0  0  # atno 2770 bound_to 2763
   23.3725   10.1399   -8.6205 H   0  0  0  0  0  0  0  0  0  0  0  0  # atno 5056 bound_to 5047
   19.2160   11.7533   -5.1586 LP  0  0  0  0  0  0  0  0  0  0  0  0  # atno 5356 bound_to 544 
   20.5023   10.7521   -5.0600 LP  0  0  0  0  0  0  0  0  0  0  0  0  # atno 5357 bound_to 544 
   29.6848    8.1151    1.4627 LP  0  0  0  0  0  0  0  0  0  0  0  0  # atno 5378 bound_to 2763
   28.7897    8.5040    0.1534 LP  0  0  0  0  0  0  0  0  0  0  0  0  # atno 5379 bound_to 2763
   23.3294    9.8295  -10.2173 LP  0  0  0  0  0  0  0  0  0  0  0  0  # atno 5382 bound_to 5047
   21.9435    9.8834   -9.3555 LP  0  0  0  0  0  0  0  0  0  0  0  0  # atno 5383 bound_to 5047
   26.7676    5.2892  -12.3961 LP  0  0  0  0  0  0  0  0  0  0  0  0  # atno 5388 bound_to 1855
   26.1316    4.2719  -11.2883 LP  0  0  0  0  0  0  0  0  0  0  0  0  # atno 5389 bound_to 1855
   22.1679    9.6582    2.6205 LP  0  0  0  0  0  0  0  0  0  0  0  0  # atno 5398 bound_to 564 
   22.3339    8.5997    3.8528 LP  0  0  0  0  0  0  0  0  0  0  0  0  # atno 5399 bound_to 564 
   26.7234    3.5874    3.1505 LP  0  0  0  0  0  0  0  0  0  0  0  0  # atno 5400 bound_to 2451
   25.4439    2.7866    2.5276 LP  0  0  0  0  0  0  0  0  0  0  0  0  # atno 5401 bound_to 2451

> <Gold.Score>
     Fitness  S(hb_ext) S(vdw_ext)  S(hb_int)    S(int)      intcor
     35.36       1.73      24.91       0.00      -0.63      -0.77

> <Gold.Goldscore.Fitness>
35.3553

> <Gold.Goldscore.Internal.Vdw>
-0.8867

> <Gold.Goldscore.Internal.Torsion>
-0.5137

> <Gold.Goldscore.External.Vdw>
24.9115

> <Gold.Goldscore.Internal.HBond>
0.0000

> <Gold.Goldscore.External.HBond>
1.7338

> <Gold.Goldscore.Internal.Correction>
-0.7686

> <Gold.Goldscore.Hbonds>
donor molecule, donor type, donor heavy atom, donor atom, acceptor molecule, acceptor atom, score
      L1  H    10    23       P1  2555  0.87

> <Gold.Goldscore.Internal.Vdw.Weighted>
-0.8867

> <Gold.Goldscore.Internal.Torsion.Weighted>
-0.5137

> <Gold.Goldscore.External.Vdw.Weighted>
34.2533

> <Gold.Goldscore.Internal.HBond.Weighted>
0.0000

> <Gold.Goldscore.External.HBond.Weighted>
1.7338

> <Gold.Goldscore.Internal.Correction.Weighted>
-0.7686

> <Gold.Rescore>
     Score     S(PLP)   S(hbond)     S(cho)   S(metal)  DE(clash)   DE(tors)     intcor
     28.06     -25.05       1.21       0.00       0.00       0.00       0.31       ----

> <Gold.PLP.Fitness>
28.0564

> <Gold.PLP.PLP>
-25.0459

> <Gold.PLP.part.hbond>
-3.5093

> <Gold.PLP.part.metal>
0.0000

> <Gold.PLP.part.buried>
8.6202

> <Gold.PLP.part.nonpolar>
-34.5825

> <Gold.PLP.part.repulsive>
3.1742

> <Gold.PLP.ligand.clash>
0.0000

> <Gold.PLP.ligand.torsion>
0.3067

> <Gold.PLP.Chemscore.Hbond>
1.2080

> <Gold.PLP.Chemscore.CHOScore>
0.0000

> <Gold.PLP.Chemscore.Metal>
0.0000

> <Gold.Chemscore.Hbonds>
donor molecule, donor type, donor heavy atom, donor atom, acceptor molecule, acceptor atom, score
      L1  H    10    23       P1  2555  1.00

> <Gold.PLP.Chemscore.Internal.Correction>
   9.000000E+99

#       Name:                CT1002167954
#       Creating user name   hitesit
#       Creation time:       Sun Apr 16 22:50:36 2023


#       File generated by GOLD software.
#

@<TRIPOS>MOLECULE
CT1002167954|ligand_prepared|mol2|1|dock9
    29    30     1
SMALL
NO_CHARGES


@<TRIPOS>ATOM
      1 C1          26.0854  10.0234  -2.5661 C.3            1 RES1               0.0000
      2 C2          25.2880   8.9514  -3.3365 C.ar           1 RES1               0.0000
      3 C3          25.9557  11.3139  -3.3698 C.2            1 RES1               0.0000
      4 C4          25.4700  10.0937  -1.1729 C.2            1 RES1               0.0000
      5 C5          27.5877   9.6918  -2.4086 C.3            1 RES1               0.0000
      6 C6          25.2320   7.6404  -2.8729 C.ar           1 RES1               0.0000
      7 C7          24.6024   9.2583  -4.5088 C.ar           1 RES1               0.0000
      8 N8          25.1389  12.2873  -2.8746 N.am           1 RES1               0.0000
      9 O9          26.5303  11.4597  -4.4417 O.2            1 RES1               0.0000
     10 N10         24.8343  11.2519  -0.8094 N.am           1 RES1               0.0000
     11 O11         25.5154   9.1505  -0.3927 O.2            1 RES1               0.0000
     12 C12         28.2113   9.0694  -3.6479 C.3            1 RES1               0.0000
     13 C13         24.5141   6.6719  -3.5548 C.ar           1 RES1               0.0000
     14 C14         23.8852   8.2882  -5.1894 C.ar           1 RES1               0.0000
     15 C15         24.6141  12.3407  -1.6083 C.2            1 RES1               0.0000
     16 C16         23.8399   6.9952  -4.7131 C.ar           1 RES1               0.0000
     17 O17         23.9860  13.3242  -1.2269 O.2            1 RES1               0.0000
     18 H18         28.1294  10.6143  -2.1660 H              1 RES1               0.0000
     19 H19         27.7101   8.9997  -1.5663 H              1 RES1               0.0000
     20 H20         25.7582   7.3668  -1.9644 H              1 RES1               0.0000
     21 H21         24.6248  10.2687  -4.9027 H              1 RES1               0.0000
     22 H22         24.8956  13.0456  -3.5040 H              1 RES1               0.0000
     23 H23         24.4938  11.3077   0.1452 H              1 RES1               0.0000
     24 H24         29.2656   8.8566  -3.4837 H              1 RES1               0.0000
     25 H25         27.7131   8.1366  -3.9035 H              1 RES1               0.0000
     26 H26         28.1299   9.7416  -4.4996 H              1 RES1               0.0000
     27 H27         24.4827   5.6555  -3.1765 H              1 RES1               0.0000
     28 H28         23.3567   8.5469  -6.1009 H              1 RES1               0.0000
     29 H29         23.2773   6.2364  -5.2469 H              1 RES1               0.0000
@<TRIPOS>BOND
    1    1    2 1     
    2    1    3 1     
    3    1    4 1     
    4    1    5 1     
    5    2    6 ar    
    6    2    7 ar    
    7    3    8 1     
    8    3    9 2     
    9    4   10 1     
   10    4   11 2     
   11    5   12 1     
   12    5   18 1     
   13    5   19 1     
   14    6   13 ar    
   15    6   20 1     
   16    7   14 ar    
   17    7   21 1     
   18    8   15 1     
   19    8   22 1     
   20   10   15 1     
   21   10   23 1     
   22   12   24 1     
   23   12   25 1     
   24   12   26 1     
   25   13   16 ar    
   26   13   27 1     
   27   14   16 ar    
   28   14   28 1     
   29   15   17 2     
   30   16   29 1     
@<TRIPOS>SUBSTRUCTURE
      1 RES1           1
@<TRIPOS>SET
DONOR_HYDROGENS      STATIC     ATOMS    <user>   **** ""
2 22 23
ATOM$RED        STATIC     ATOMS    COLORGROUP SYSTEM
2 22 23
@<TRIPOS>COMMENT
> <Gold.Version>
2022.3.0

> <Gold.Id.Protein>
unknown|3nx8_clean|pdb

> <Gold.Protein.RotatedTorsions>
[  549  544  542  539 ] final  113.81 input   60.01 | X-H torsion
[ 2770 2763 2761 2758 ] final  -76.80 input   60.01 | X-H torsion
[ 5056 5047 5046 5044 ] final   69.77 input   59.99 | X-H torsion
[ 1860 1855 1854 1851 ] final -154.64 input   60.02 | X-H torsion
[  567  564  563  560 ] final  170.67 input   60.03 | X-H torsion
[ 2456 2451 2450 2448 ] final   99.93 input   59.99 | X-H torsion
[ 2535 2524 2523 2522 ] final -121.12 input   60.02 | X-H torsion

> <Gold.Protein.ActiveResidues>
 THR48   LEU49   GLY50   THR51   GLY52   SER53   PHE54   GLY55   ARG56   VAL57  
 MET58   ALA70   LYS72   GLU91   VAL104  MET120  TYR122  VAL123  GLY126  GLU127 
 MET128  PHE129  SER130  TYR164  ASP166  LYS168  PRO169  GLU170  ASN171  LEU172 
 LEU173  GLN181  VAL182  THR183  ASP184  PHE185  GLY186  ASN326  PHE327  ASP328 
 TYR330 

> <Gold.Protein.RotatedAtoms>
   19.4186   11.3205   -4.8103 H   0  0  0  0  0  0  0  0  0  0  0  0  # atno 549  bound_to 544 
   22.0064    9.1331    4.4143 H   0  0  0  0  0  0  0  0  0  0  0  0  # atno 567  bound_to 564 
   26.3760    5.3846  -12.7094 H   0  0  0  0  0  0  0  0  0  0  0  0  # atno 1860 bound_to 1855
   27.1459    2.4302    2.3466 H   0  0  0  0  0  0  0  0  0  0  0  0  # atno 2456 bound_to 2451
   19.0660    4.6408   -1.8750 H   0  0  0  0  0  0  0  0  0  0  0  0  # atno 2535 bound_to 2524
   18.5593    3.2697   -1.0936 H   0  0  0  0  0  0  0  0  0  0  0  0  # atno 2536 bound_to 2524
   19.2595    4.5028   -0.2346 H   0  0  0  0  0  0  0  0  0  0  0  0  # atno 2537 bound_to 2524
   28.7040    8.3092    0.6569 H   0  0  0  0  0  0  0  0  0  0  0  0  # atno 2770 bound_to 2763
   23.5278   10.1293   -8.7409 H   0  0  0  0  0  0  0  0  0  0  0  0  # atno 5056 bound_to 5047
   20.8207   10.9190   -5.5324 LP  0  0  0  0  0  0  0  0  0  0  0  0  # atno 5356 bound_to 544 
   19.8884   12.1058   -6.1560 LP  0  0  0  0  0  0  0  0  0  0  0  0  # atno 5357 bound_to 544 
   29.9925    8.7627   -0.2282 LP  0  0  0  0  0  0  0  0  0  0  0  0  # atno 5378 bound_to 2763
   30.1968    8.2252    1.3003 LP  0  0  0  0  0  0  0  0  0  0  0  0  # atno 5379 bound_to 2763
   23.1467    9.8014  -10.2886 LP  0  0  0  0  0  0  0  0  0  0  0  0  # atno 5382 bound_to 5047
   21.9699    9.9221   -9.1629 LP  0  0  0  0  0  0  0  0  0  0  0  0  # atno 5383 bound_to 5047
   26.5905    4.4840  -11.3710 LP  0  0  0  0  0  0  0  0  0  0  0  0  # atno 5388 bound_to 1855
   25.1304    4.5324  -12.1007 LP  0  0  0  0  0  0  0  0  0  0  0  0  # atno 5389 bound_to 1855
   21.7667   10.3134    3.3196 LP  0  0  0  0  0  0  0  0  0  0  0  0  # atno 5398 bound_to 564 
   22.4221    8.8903    2.8595 LP  0  0  0  0  0  0  0  0  0  0  0  0  # atno 5399 bound_to 564 
   26.4527    3.6442    3.1799 LP  0  0  0  0  0  0  0  0  0  0  0  0  # atno 5400 bound_to 2451
   25.5245    2.5681    2.3753 LP  0  0  0  0  0  0  0  0  0  0  0  0  # atno 5401 bound_to 2451

> <Gold.Score>
     Fitness  S(hb_ext) S(vdw_ext)  S(hb_int)    S(int)      intcor
     33.13       0.40      27.09       0.00      -4.52      -0.77

> <Gold.Goldscore.Fitness>
33.1330

> <Gold.Goldscore.Internal.Vdw>
-4.3218

> <Gold.Goldscore.Internal.Torsion>
-0.9709

> <Gold.Goldscore.External.Vdw>
27.0927

> <Gold.Goldscore.Internal.HBond>
0.0000

> <Gold.Goldscore.External.HBond>
0.4046

> <Gold.Goldscore.Internal.Correction>
-0.7686

> <Gold.Goldscore.Hbonds>
donor molecule, donor type, donor heavy atom, donor atom, acceptor molecule, acceptor atom, score
      P1  H   552   556       L1    17  0.12
      L1  H     8    22       P1   534  0.08

> <Gold.Goldscore.Internal.Vdw.Weighted>
-4.3218

> <Gold.Goldscore.Internal.Torsion.Weighted>
-0.9709

> <Gold.Goldscore.External.Vdw.Weighted>
37.2525

> <Gold.Goldscore.Internal.HBond.Weighted>
0.0000

> <Gold.Goldscore.External.HBond.Weighted>
0.4046

> <Gold.Goldscore.Internal.Correction.Weighted>
-0.7686

> <Gold.Rescore>
     Score     S(PLP)   S(hbond)     S(cho)   S(metal)  DE(clash)   DE(tors)     intcor
     -1.49       2.14       0.99       0.00       0.00       0.01       1.16       ----

> <Gold.PLP.Fitness>
-1.4916

> <Gold.PLP.PLP>
2.1375

> <Gold.PLP.part.hbond>
-1.4296

> <Gold.PLP.part.metal>
0.0000

> <Gold.PLP.part.buried>
31.3488

> <Gold.PLP.part.nonpolar>
-31.5511

> <Gold.PLP.part.repulsive>
1.8824

> <Gold.PLP.ligand.clash>
0.0132

> <Gold.PLP.ligand.torsion>
1.1573

> <Gold.PLP.Chemscore.Hbond>
0.9913

> <Gold.PLP.Chemscore.CHOScore>
0.0000

> <Gold.PLP.Chemscore.Metal>
0.0000

> <Gold.Chemscore.Hbonds>
donor molecule, donor type, donor heavy atom, donor atom, acceptor molecule, acceptor atom, score
      L1  H     8    22       P1   534  1.00

> <Gold.PLP.Chemscore.Internal.Correction>
   9.000000E+99

#       Name:                CT1002167954
#       Creating user name   hitesit
#       Creation time:       Sun Apr 16 22:50:34 2023


#       File generated by GOLD software.
#

@<TRIPOS>MOLECULE
CT1002167954|ligand_prepared|mol2|1|dock7
    29    30     1
SMALL
NO_CHARGES


@<TRIPOS>ATOM
      1 C1          26.1071  10.0140  -2.5771 C.3            1 RES1               0.0000
      2 C2          25.2943   8.9392  -3.3275 C.ar           1 RES1               0.0000
      3 C3          25.9165  11.3143  -3.3524 C.2            1 RES1               0.0000
      4 C4          25.5562  10.0505  -1.1559 C.2            1 RES1               0.0000
      5 C5          27.6209   9.7084  -2.4949 C.3            1 RES1               0.0000
      6 C6          24.5877   9.2628  -4.4820 C.ar           1 RES1               0.0000
      7 C7          25.2438   7.6218  -2.8797 C.ar           1 RES1               0.0000
      8 N8          25.1061  12.2640  -2.8037 N.am           1 RES1               0.0000
      9 O9          26.4378  11.4878  -4.4471 O.2            1 RES1               0.0000
     10 N10         24.9171  11.1906  -0.7442 N.am           1 RES1               0.0000
     11 O11         25.6551   9.0962  -0.3945 O.2            1 RES1               0.0000
     12 C12         28.1818   9.0481  -3.7445 C.3            1 RES1               0.0000
     13 C13         23.8594   8.3034  -5.1658 C.ar           1 RES1               0.0000
     14 C14         24.5147   6.6641  -3.5650 C.ar           1 RES1               0.0000
     15 C15         24.6401  12.2875  -1.5138 C.2            1 RES1               0.0000
     16 C16         23.8228   7.0035  -4.7081 C.ar           1 RES1               0.0000
     17 O17         24.0125  13.2527  -1.0874 O.2            1 RES1               0.0000
     18 H18         28.1614  10.6466  -2.3183 H              1 RES1               0.0000
     19 H19         27.8022   9.0503  -1.6362 H              1 RES1               0.0000
     20 H20         24.6029  10.2811  -4.8558 H              1 RES1               0.0000
     21 H21         25.7795   7.3322  -1.9821 H              1 RES1               0.0000
     22 H22         24.8200  13.0274  -3.4085 H              1 RES1               0.0000
     23 H23         24.6205  11.2248   0.2260 H              1 RES1               0.0000
     24 H24         29.2469   8.8557  -3.6340 H              1 RES1               0.0000
     25 H25         27.6842   8.0998  -3.9362 H              1 RES1               0.0000
     26 H26         28.0412   9.6866  -4.6143 H              1 RES1               0.0000
     27 H27         23.3155   8.5760  -6.0642 H              1 RES1               0.0000
     28 H28         24.4881   5.6423  -3.2008 H              1 RES1               0.0000
     29 H29         23.2525   6.2521  -5.2442 H              1 RES1               0.0000
@<TRIPOS>BOND
    1    1    2 1     
    2    1    3 1     
    3    1    4 1     
    4    1    5 1     
    5    2    6 ar    
    6    2    7 ar    
    7    3    8 1     
    8    3    9 2     
    9    4   10 1     
   10    4   11 2     
   11    5   12 1     
   12    5   18 1     
   13    5   19 1     
   14    6   13 ar    
   15    6   20 1     
   16    7   14 ar    
   17    7   21 1     
   18    8   15 1     
   19    8   22 1     
   20   10   15 1     
   21   10   23 1     
   22   12   24 1     
   23   12   25 1     
   24   12   26 1     
   25   13   16 ar    
   26   13   27 1     
   27   14   16 ar    
   28   14   28 1     
   29   15   17 2     
   30   16   29 1     
@<TRIPOS>SUBSTRUCTURE
      1 RES1           1
@<TRIPOS>SET
DONOR_HYDROGENS      STATIC     ATOMS    <user>   **** ""
2 22 23
ATOM$RED        STATIC     ATOMS    COLORGROUP SYSTEM
2 22 23
@<TRIPOS>COMMENT
> <Gold.Version>
2022.3.0

> <Gold.Id.Protein>
unknown|3nx8_clean|pdb

> <Gold.Protein.RotatedTorsions>
[  549  544  542  539 ] final   64.48 input   60.01 | X-H torsion
[ 2770 2763 2761 2758 ] final   96.98 input   60.01 | X-H torsion
[ 5056 5047 5046 5044 ] final   95.69 input   59.99 | X-H torsion
[ 1860 1855 1854 1851 ] final   18.96 input   60.02 | X-H torsion
[  567  564  563  560 ] final  -60.75 input   60.03 | X-H torsion
[ 2456 2451 2450 2448 ] final -178.30 input   59.99 | X-H torsion
[ 2535 2524 2523 2522 ] final  -42.50 input   60.02 | X-H torsion

> <Gold.Protein.ActiveResidues>
 THR48   LEU49   GLY50   THR51   GLY52   SER53   PHE54   GLY55   ARG56   VAL57  
 MET58   ALA70   LYS72   GLU91   VAL104  MET120  TYR122  VAL123  GLY126  GLU127 
 MET128  PHE129  SER130  TYR164  ASP166  LYS168  PRO169  GLU170  ASN171  LEU172 
 LEU173  GLN181  VAL182  THR183  ASP184  PHE185  GLY186  ASN326  PHE327  ASP328 
 TYR330 

> <Gold.Protein.RotatedAtoms>
   20.0410   10.8492   -4.7784 H   0  0  0  0  0  0  0  0  0  0  0  0  # atno 549  bound_to 544 
   22.3931    9.0004    2.7767 H   0  0  0  0  0  0  0  0  0  0  0  0  # atno 567  bound_to 564 
   25.5998    4.2228  -11.4669 H   0  0  0  0  0  0  0  0  0  0  0  0  # atno 1860 bound_to 1855
   25.9595    2.2039    2.1368 H   0  0  0  0  0  0  0  0  0  0  0  0  # atno 2456 bound_to 2451
   18.5857    3.5391   -1.7128 H   0  0  0  0  0  0  0  0  0  0  0  0  # atno 2535 bound_to 2524
   18.9915    3.8876   -0.1440 H   0  0  0  0  0  0  0  0  0  0  0  0  # atno 2536 bound_to 2524
   19.3072    4.9854   -1.3456 H   0  0  0  0  0  0  0  0  0  0  0  0  # atno 2537 bound_to 2524
   30.5618    8.5178    0.5905 H   0  0  0  0  0  0  0  0  0  0  0  0  # atno 2770 bound_to 2763
   23.1680   10.1418   -8.5247 H   0  0  0  0  0  0  0  0  0  0  0  0  # atno 5056 bound_to 5047
   20.7570   11.4480   -6.1114 LP  0  0  0  0  0  0  0  0  0  0  0  0  # atno 5356 bound_to 544 
   19.3252   12.0515   -5.6092 LP  0  0  0  0  0  0  0  0  0  0  0  0  # atno 5357 bound_to 544 
   29.1738    8.1103    1.3368 LP  0  0  0  0  0  0  0  0  0  0  0  0  # atno 5378 bound_to 2763
   29.1457    8.6676   -0.1979 LP  0  0  0  0  0  0  0  0  0  0  0  0  # atno 5379 bound_to 2763
   23.5145    9.8683  -10.0910 LP  0  0  0  0  0  0  0  0  0  0  0  0  # atno 5382 bound_to 5047
   21.9643    9.8426   -9.5782 LP  0  0  0  0  0  0  0  0  0  0  0  0  # atno 5383 bound_to 5047
   25.5590    5.1739  -12.7868 LP  0  0  0  0  0  0  0  0  0  0  0  0  # atno 5388 bound_to 1855
   26.9434    5.0123  -11.9359 LP  0  0  0  0  0  0  0  0  0  0  0  0  # atno 5389 bound_to 1855
   22.0652    9.0127    4.3710 LP  0  0  0  0  0  0  0  0  0  0  0  0  # atno 5398 bound_to 564 
   21.7344   10.3245    3.4564 LP  0  0  0  0  0  0  0  0  0  0  0  0  # atno 5399 bound_to 564 
   27.3165    2.9100    2.6923 LP  0  0  0  0  0  0  0  0  0  0  0  0  # atno 5400 bound_to 2451
   25.8550    3.5302    3.0742 LP  0  0  0  0  0  0  0  0  0  0  0  0  # atno 5401 bound_to 2451

> <Gold.Score>
     Fitness  S(hb_ext) S(vdw_ext)  S(hb_int)    S(int)      intcor
     31.98       0.36      27.35       0.00      -5.98      -0.77

> <Gold.Goldscore.Fitness>
31.9836

> <Gold.Goldscore.Internal.Vdw>
-5.6031

> <Gold.Goldscore.Internal.Torsion>
-1.1473

> <Gold.Goldscore.External.Vdw>
27.3463

> <Gold.Goldscore.Internal.HBond>
0.0000

> <Gold.Goldscore.External.HBond>
0.3642

> <Gold.Goldscore.Internal.Correction>
-0.7686

> <Gold.Goldscore.Hbonds>
donor molecule, donor type, donor heavy atom, donor atom, acceptor molecule, acceptor atom, score
      P1  H   552   556       L1    17  0.13
      L1  H     8    22       P1   534  0.06

> <Gold.Goldscore.Internal.Vdw.Weighted>
-5.6031

> <Gold.Goldscore.Internal.Torsion.Weighted>
-1.1473

> <Gold.Goldscore.External.Vdw.Weighted>
37.6011

> <Gold.Goldscore.Internal.HBond.Weighted>
0.0000

> <Gold.Goldscore.External.HBond.Weighted>
0.3642

> <Gold.Goldscore.Internal.Correction.Weighted>
-0.7686

> <Gold.Rescore>
     Score     S(PLP)   S(hbond)     S(cho)   S(metal)  DE(clash)   DE(tors)     intcor
      2.28      -1.36       0.95       0.00       0.00       0.77       0.58       ----

> <Gold.PLP.Fitness>
2.2752

> <Gold.PLP.PLP>
-1.3585

> <Gold.PLP.part.hbond>
-1.5873

> <Gold.PLP.part.metal>
0.0000

> <Gold.PLP.part.buried>
27.6102

> <Gold.PLP.part.nonpolar>
-31.1039

> <Gold.PLP.part.repulsive>
2.6507

> <Gold.PLP.ligand.clash>
0.7718

> <Gold.PLP.ligand.torsion>
0.5831

> <Gold.PLP.Chemscore.Hbond>
0.9516

> <Gold.PLP.Chemscore.CHOScore>
0.0000

> <Gold.PLP.Chemscore.Metal>
0.0000

> <Gold.Chemscore.Hbonds>
donor molecule, donor type, donor heavy atom, donor atom, acceptor molecule, acceptor atom, score
      L1  H     8    22       P1   534  1.00

> <Gold.PLP.Chemscore.Internal.Correction>
   9.000000E+99

#       Name:                CT1002167954
#       Creating user name   hitesit
#       Creation time:       Sun Apr 16 22:50:33 2023


#       File generated by GOLD software.
#

@<TRIPOS>MOLECULE
CT1002167954|ligand_prepared|mol2|1|dock6
    29    30     1
SMALL
NO_CHARGES


@<TRIPOS>ATOM
      1 C1          27.9935   9.5051  -3.5020 C.3            1 RES1               0.0000
      2 C2          29.5057   9.5272  -3.1991 C.ar           1 RES1               0.0000
      3 C3          27.7445   8.2608  -4.3493 C.2            1 RES1               0.0000
      4 C4          27.2879   9.4890  -2.1505 C.2            1 RES1               0.0000
      5 C5          27.4953  10.7412  -4.2864 C.3            1 RES1               0.0000
      6 C6          30.4324   9.6684  -4.2277 C.ar           1 RES1               0.0000
      7 C7          29.9881   9.4104  -1.8983 C.ar           1 RES1               0.0000
      8 N8          27.1283   7.2016  -3.7505 N.am           1 RES1               0.0000
      9 O9          28.1185   8.1952  -5.5138 O.2            1 RES1               0.0000
     10 N10         26.5662   8.3731  -1.8163 N.am           1 RES1               0.0000
     11 O11         27.3641  10.4257  -1.3650 O.2            1 RES1               0.0000
     12 C12         25.9896  10.9432  -4.2205 C.3            1 RES1               0.0000
     13 C13         31.7920   9.6949  -3.9651 C.ar           1 RES1               0.0000
     14 C14         31.3482   9.4369  -1.6379 C.ar           1 RES1               0.0000
     15 C15         26.4797   7.2163  -2.5419 C.2            1 RES1               0.0000
     16 C16         32.2509   9.5796  -2.6702 C.ar           1 RES1               0.0000
     17 O17         25.8551   6.2350  -2.1494 O.2            1 RES1               0.0000
     18 H18         27.9893  11.6355  -3.8870 H              1 RES1               0.0000
     19 H19         27.7916  10.6356  -5.3373 H              1 RES1               0.0000
     20 H20         30.0902   9.7580  -5.2533 H              1 RES1               0.0000
     21 H21         29.2964   9.2962  -1.0705 H              1 RES1               0.0000
     22 H22         27.1521   6.3168  -4.2473 H              1 RES1               0.0000
     23 H23         26.0450   8.4081  -0.9459 H              1 RES1               0.0000
     24 H24         25.6934  11.8235  -4.7870 H              1 RES1               0.0000
     25 H25         25.4666  10.0829  -4.6329 H              1 RES1               0.0000
     26 H26         25.6631  11.0769  -3.1912 H              1 RES1               0.0000
     27 H27         32.4983   9.8060  -4.7812 H              1 RES1               0.0000
     28 H28         31.7049   9.3452  -0.6173 H              1 RES1               0.0000
     29 H29         33.3160   9.6008  -2.4647 H              1 RES1               0.0000
@<TRIPOS>BOND
    1    1    2 1     
    2    1    3 1     
    3    1    4 1     
    4    1    5 1     
    5    2    6 ar    
    6    2    7 ar    
    7    3    8 1     
    8    3    9 2     
    9    4   10 1     
   10    4   11 2     
   11    5   12 1     
   12    5   18 1     
   13    5   19 1     
   14    6   13 ar    
   15    6   20 1     
   16    7   14 ar    
   17    7   21 1     
   18    8   15 1     
   19    8   22 1     
   20   10   15 1     
   21   10   23 1     
   22   12   24 1     
   23   12   25 1     
   24   12   26 1     
   25   13   16 ar    
   26   13   27 1     
   27   14   16 ar    
   28   14   28 1     
   29   15   17 2     
   30   16   29 1     
@<TRIPOS>SUBSTRUCTURE
      1 RES1           1
@<TRIPOS>SET
DONOR_HYDROGENS      STATIC     ATOMS    <user>   **** ""
2 22 23
ATOM$RED        STATIC     ATOMS    COLORGROUP SYSTEM
2 22 23
@<TRIPOS>COMMENT
> <Gold.Version>
2022.3.0

> <Gold.Id.Protein>
unknown|3nx8_clean|pdb

> <Gold.Protein.RotatedTorsions>
[  549  544  542  539 ] final  -17.51 input   60.01 | X-H torsion
[ 2770 2763 2761 2758 ] final  -82.19 input   60.01 | X-H torsion
[ 5056 5047 5046 5044 ] final  127.47 input   59.99 | X-H torsion
[ 1860 1855 1854 1851 ] final  -74.19 input   60.02 | X-H torsion
[  567  564  563  560 ] final   -6.78 input   60.03 | X-H torsion
[ 2456 2451 2450 2448 ] final  146.62 input   59.99 | X-H torsion
[ 2535 2524 2523 2522 ] final  -77.34 input   60.02 | X-H torsion

> <Gold.Protein.ActiveResidues>
 THR48   LEU49   GLY50   THR51   GLY52   SER53   PHE54   GLY55   ARG56   VAL57  
 MET58   ALA70   LYS72   GLU91   VAL104  MET120  TYR122  VAL123  GLY126  GLU127 
 MET128  PHE129  SER130  TYR164  ASP166  LYS168  PRO169  GLU170  ASN171  LEU172 
 LEU173  GLN181  VAL182  THR183  ASP184  PHE185  GLY186  ASN326  PHE327  ASP328 
 TYR330 

> <Gold.Protein.RotatedAtoms>
   20.8544   11.0227   -5.6823 H   0  0  0  0  0  0  0  0  0  0  0  0  # atno 549  bound_to 544 
   22.1040    9.7917    2.6639 H   0  0  0  0  0  0  0  0  0  0  0  0  # atno 567  bound_to 564 
   25.2646    4.9246  -12.5827 H   0  0  0  0  0  0  0  0  0  0  0  0  # atno 1860 bound_to 1855
   26.5169    2.1221    2.1014 H   0  0  0  0  0  0  0  0  0  0  0  0  # atno 2456 bound_to 2451
   18.7572    4.0084   -1.9935 H   0  0  0  0  0  0  0  0  0  0  0  0  # atno 2535 bound_to 2524
   18.7482    3.4554   -0.4310 H   0  0  0  0  0  0  0  0  0  0  0  0  # atno 2536 bound_to 2524
   19.3791    4.9487   -0.7784 H   0  0  0  0  0  0  0  0  0  0  0  0  # atno 2537 bound_to 2524
   28.6971    8.3387    0.5742 H   0  0  0  0  0  0  0  0  0  0  0  0  # atno 2770 bound_to 2763
   22.6571   10.1058   -8.5005 H   0  0  0  0  0  0  0  0  0  0  0  0  # atno 5056 bound_to 5047
   19.7317   12.1383   -6.0609 LP  0  0  0  0  0  0  0  0  0  0  0  0  # atno 5356 bound_to 544 
   19.5312   11.1865   -4.7493 LP  0  0  0  0  0  0  0  0  0  0  0  0  # atno 5357 bound_to 544 
   30.0723    8.7566   -0.1898 LP  0  0  0  0  0  0  0  0  0  0  0  0  # atno 5378 bound_to 2763
   30.1240    8.2016    1.3451 LP  0  0  0  0  0  0  0  0  0  0  0  0  # atno 5379 bound_to 2763
   23.7865    9.9712   -9.6644 LP  0  0  0  0  0  0  0  0  0  0  0  0  # atno 5382 bound_to 5047
   22.2068    9.7760  -10.0291 LP  0  0  0  0  0  0  0  0  0  0  0  0  # atno 5383 bound_to 5047
   26.8355    5.2382  -12.2952 LP  0  0  0  0  0  0  0  0  0  0  0  0  # atno 5388 bound_to 1855
   26.0043    4.2414  -11.3042 LP  0  0  0  0  0  0  0  0  0  0  0  0  # atno 5389 bound_to 1855
   22.3749    8.5716    3.7065 LP  0  0  0  0  0  0  0  0  0  0  0  0  # atno 5398 bound_to 564 
   21.7158    9.9692    4.2345 LP  0  0  0  0  0  0  0  0  0  0  0  0  # atno 5399 bound_to 564 
   27.1119    3.3457    2.9943 LP  0  0  0  0  0  0  0  0  0  0  0  0  # atno 5400 bound_to 2451
   25.4985    3.1768    2.8078 LP  0  0  0  0  0  0  0  0  0  0  0  0  # atno 5401 bound_to 2451

> <Gold.Score>
     Fitness  S(hb_ext) S(vdw_ext)  S(hb_int)    S(int)      intcor
     29.66       0.17      24.29       0.00      -3.91      -0.77

> <Gold.Goldscore.Fitness>
29.6558

> <Gold.Goldscore.Internal.Vdw>
-3.8449

> <Gold.Goldscore.Internal.Torsion>
-0.8311

> <Gold.Goldscore.External.Vdw>
24.2878

> <Gold.Goldscore.Internal.HBond>
0.0000

> <Gold.Goldscore.External.HBond>
0.1674

> <Gold.Goldscore.Internal.Correction>
-0.7686

> <Gold.Goldscore.Hbonds>
donor molecule, donor type, donor heavy atom, donor atom, acceptor molecule, acceptor atom, score
      L1  H     8    22       P1  2555  0.02
      L1  H    10    23       P1  2777  0.02

> <Gold.Goldscore.Internal.Vdw.Weighted>
-3.8449

> <Gold.Goldscore.Internal.Torsion.Weighted>
-0.8311

> <Gold.Goldscore.External.Vdw.Weighted>
33.3957

> <Gold.Goldscore.Internal.HBond.Weighted>
0.0000

> <Gold.Goldscore.External.HBond.Weighted>
0.1674

> <Gold.Goldscore.Internal.Correction.Weighted>
-0.7686

> <Gold.Rescore>
     Score     S(PLP)   S(hbond)     S(cho)   S(metal)  DE(clash)   DE(tors)     intcor
     19.46     -16.08       1.78       0.00       0.00       1.09       0.44       ----

> <Gold.PLP.Fitness>
19.4635

> <Gold.PLP.PLP>
-16.0752

> <Gold.PLP.part.hbond>
-2.0000

> <Gold.PLP.part.metal>
0.0000

> <Gold.PLP.part.buried>
0.1023

> <Gold.PLP.part.nonpolar>
-22.4432

> <Gold.PLP.part.repulsive>
7.0255

> <Gold.PLP.ligand.clash>
1.0858

> <Gold.PLP.ligand.torsion>
0.4389

> <Gold.PLP.Chemscore.Hbond>
1.7840

> <Gold.PLP.Chemscore.CHOScore>
0.0000

> <Gold.PLP.Chemscore.Metal>
0.0000

> <Gold.Chemscore.Hbonds>
donor molecule, donor type, donor heavy atom, donor atom, acceptor molecule, acceptor atom, score
      L1  H     8    22       P1  2555  0.17

> <Gold.PLP.Chemscore.Internal.Correction>
   9.000000E+99

