#       Name:                GA Fitting Points
#       Creating user name   hitesit
#       Creation time:       Sun Apr 16 22:50:21 2023


#       Fitting Points Used by GA Software.
#

@<TRIPOS>MOLECULE
GA Fitting Points
  3656    0    0
SMALL
NO_CHARGES


@<TRIPOS>ATOM
      1 ****        19.5000   6.7500  -3.7500 Du        
      2 ****        19.5000   7.0000  -4.0000 Du        
      3 ****        19.5000   7.0000  -3.7500 Du        
      4 ****        19.5000   7.0000  -3.5000 Du        
      5 ****        19.5000   7.2500  -4.0000 Du        
      6 ****        19.5000   7.2500  -3.7500 Du        
      7 ****        19.5000   7.2500  -3.5000 Du        
      8 ****        19.5000   7.2500  -3.2500 Du        
      9 ****        19.5000   7.5000  -3.5000 Du        
     10 ****        19.5000   7.5000  -3.2500 Du        
     11 ****        19.7500   6.7500  -4.2500 Du        
     12 ****        19.7500   6.7500  -4.0000 Du        
     13 ****        19.7500   6.7500  -3.7500 Du        
     14 ****        19.7500   6.7500  -3.5000 Du        
     15 ****        19.7500   7.0000  -4.2500 Du        
     16 ****        19.7500   7.0000  -4.0000 Du        
     17 ****        19.7500   7.0000  -3.7500 Du        
     18 ****        19.7500   7.0000  -3.5000 Du        
     19 ****        19.7500   7.0000  -3.2500 Du        
     20 ****        19.7500   7.2500  -4.0000 Du        
     21 ****        19.7500   7.2500  -3.7500 Du        
     22 ****        19.7500   7.2500  -3.5000 Du        
     23 ****        19.7500   7.2500  -3.2500 Du        
     24 ****        20.0000   6.5000  -4.0000 Du        
     25 ****        20.0000   6.5000  -3.7500 Du        
     26 ****        20.0000   6.7500  -4.2500 Du        
     27 ****        20.0000   6.7500  -4.0000 Du        
     28 ****        20.0000   6.7500  -3.7500 Du        
     29 ****        20.0000   6.7500  -3.5000 Du        
     30 ****        20.0000   7.0000  -4.5000 Du        
     31 ****        20.0000   7.0000  -4.2500 Du        
     32 ****        20.0000   7.0000  -4.0000 Du        
     33 ****        20.0000   7.0000  -3.7500 Du        
     34 ****        20.0000   7.0000  -3.5000 Du        
     35 ****        20.0000   7.0000  -3.2500 Du        
     36 ****        20.0000   7.0000  -3.0000 Du        
     37 ****        20.0000   7.2500  -4.2500 Du        
     38 ****        20.0000   7.2500  -4.0000 Du        
     39 ****        20.0000   7.2500  -3.7500 Du        
     40 ****        20.0000   7.2500  -3.5000 Du        
     41 ****        20.0000   7.2500  -3.2500 Du        
     42 ****        20.2500   6.5000  -3.7500 Du        
     43 ****        20.2500   6.5000  -3.5000 Du        
     44 ****        20.2500   6.7500  -4.2500 Du        
     45 ****        20.2500   6.7500  -4.0000 Du        
     46 ****        20.2500   6.7500  -3.7500 Du        
     47 ****        20.2500   6.7500  -3.5000 Du        
     48 ****        20.2500   6.7500  -3.2500 Du        
     49 ****        20.2500   7.0000  -4.5000 Du        
     50 ****        20.2500   7.0000  -4.2500 Du        
     51 ****        20.2500   7.0000  -4.0000 Du        
     52 ****        20.2500   7.0000  -3.7500 Du        
     53 ****        20.2500   7.0000  -3.5000 Du        
     54 ****        20.2500   7.0000  -3.2500 Du        
     55 ****        20.2500   7.0000  -3.0000 Du        
     56 ****        20.2500   7.2500  -4.2500 Du        
     57 ****        20.2500   7.2500  -4.0000 Du        
     58 ****        20.2500   7.2500  -3.7500 Du        
     59 ****        20.2500   7.2500  -3.5000 Du        
     60 ****        20.2500   7.2500  -3.2500 Du        
     61 ****        20.5000   6.5000  -4.0000 Du        
     62 ****        20.5000   6.5000  -3.7500 Du        
     63 ****        20.5000   6.5000  -3.5000 Du        
     64 ****        20.5000   6.7500  -4.2500 Du        
     65 ****        20.5000   6.7500  -4.0000 Du        
     66 ****        20.5000   6.7500  -3.7500 Du        
     67 ****        20.5000   6.7500  -3.5000 Du        
     68 ****        20.5000   6.7500  -3.2500 Du        
     69 ****        20.5000   7.0000  -4.5000 Du        
     70 ****        20.5000   7.0000  -4.2500 Du        
     71 ****        20.5000   7.0000  -4.0000 Du        
     72 ****        20.5000   7.0000  -3.7500 Du        
     73 ****        20.5000   7.0000  -3.5000 Du        
     74 ****        20.5000   7.0000  -3.2500 Du        
     75 ****        20.5000   7.0000  -3.0000 Du        
     76 ****        20.7500   6.5000  -4.0000 Du        
     77 ****        20.7500   6.5000  -3.7500 Du        
     78 ****        20.7500   6.5000  -3.5000 Du        
     79 ****        20.7500   6.5000  -3.2500 Du        
     80 ****        20.7500   6.7500  -4.2500 Du        
     81 ****        20.7500   6.7500  -4.0000 Du        
     82 ****        20.7500   6.7500  -3.7500 Du        
     83 ****        20.7500   6.7500  -3.5000 Du        
     84 ****        20.7500   6.7500  -3.2500 Du        
     85 ****        20.7500   6.7500  -3.0000 Du        
     86 ****        20.7500   7.0000  -4.5000 Du        
     87 ****        20.7500   7.0000  -4.2500 Du        
     88 ****        20.7500   7.0000  -4.0000 Du        
     89 ****        20.7500   7.0000  -3.7500 Du        
     90 ****        20.7500   7.0000  -3.5000 Du        
     91 ****        20.7500   7.0000  -3.2500 Du        
     92 ****        21.0000   6.0000  -8.7500 Du        
     93 ****        21.0000   6.2500  -9.0000 Du        
     94 ****        21.0000   6.2500  -8.7500 Du        
     95 ****        21.0000   6.5000  -8.5000 Du        
     96 ****        21.0000   6.5000  -8.2500 Du        
     97 ****        21.0000   6.5000  -3.5000 Du        
     98 ****        21.0000   6.5000  -3.2500 Du        
     99 ****        21.0000   6.7500  -4.0000 Du        
    100 ****        21.0000   6.7500  -3.7500 Du        
    101 ****        21.0000   6.7500  -3.5000 Du        
    102 ****        21.0000   6.7500  -3.2500 Du        
    103 ****        21.0000   6.7500  -3.0000 Du        
    104 ****        21.0000   7.0000  -7.2500 Du        
    105 ****        21.0000   7.0000  -3.7500 Du        
    106 ****        21.0000   7.0000  -3.5000 Du        
    107 ****        21.0000   7.5000  -6.5000 Du        
    108 ****        21.0000   7.5000  -6.2500 Du        
    109 ****        21.0000   7.5000  -6.0000 Du        
    110 ****        21.0000   7.7500  -6.7500 Du        
    111 ****        21.0000   7.7500  -6.5000 Du        
    112 ****        21.0000   7.7500  -6.2500 Du        
    113 ****        21.0000   7.7500  -6.0000 Du        
    114 ****        21.0000   8.0000  -7.0000 Du        
    115 ****        21.0000   8.0000  -6.7500 Du        
    116 ****        21.0000   8.0000  -6.5000 Du        
    117 ****        21.0000   8.2500  -7.0000 Du        
    118 ****        21.0000   8.5000  -7.0000 Du        
    119 ****        21.2500   6.0000  -9.0000 Du        
    120 ****        21.2500   6.0000  -8.7500 Du        
    121 ****        21.2500   6.0000  -8.5000 Du        
    122 ****        21.2500   6.2500  -9.2500 Du        
    123 ****        21.2500   6.2500  -9.0000 Du        
    124 ****        21.2500   6.2500  -8.7500 Du        
    125 ****        21.2500   6.2500  -8.5000 Du        
    126 ****        21.2500   6.2500  -8.2500 Du        
    127 ****        21.2500   6.5000  -8.5000 Du        
    128 ****        21.2500   6.5000  -8.2500 Du        
    129 ****        21.2500   6.7500  -9.0000 Du        
    130 ****        21.2500   6.7500  -8.5000 Du        
    131 ****        21.2500   6.7500  -8.2500 Du        
    132 ****        21.2500   6.7500  -8.0000 Du        
    133 ****        21.2500   6.7500  -7.7500 Du        
    134 ****        21.2500   6.7500  -3.7500 Du        
    135 ****        21.2500   6.7500  -3.5000 Du        
    136 ****        21.2500   6.7500  -3.2500 Du        
    137 ****        21.2500   7.0000  -8.0000 Du        
    138 ****        21.2500   7.0000  -7.7500 Du        
    139 ****        21.2500   7.0000  -7.5000 Du        
    140 ****        21.2500   7.0000  -7.2500 Du        
    141 ****        21.2500   7.0000  -7.0000 Du        
    142 ****        21.2500   7.2500  -7.5000 Du        
    143 ****        21.2500   7.2500  -7.2500 Du        
    144 ****        21.2500   7.2500  -7.0000 Du        
    145 ****        21.2500   7.2500  -6.7500 Du        
    146 ****        21.2500   7.5000  -6.5000 Du        
    147 ****        21.2500   7.5000  -6.2500 Du        
    148 ****        21.2500   7.5000  -6.0000 Du        
    149 ****        21.2500   7.7500  -7.0000 Du        
    150 ****        21.2500   7.7500  -6.7500 Du        
    151 ****        21.2500   7.7500  -6.5000 Du        
    152 ****        21.2500   7.7500  -6.2500 Du        
    153 ****        21.2500   7.7500  -6.0000 Du        
    154 ****        21.2500   8.0000  -7.2500 Du        
    155 ****        21.2500   8.0000  -7.0000 Du        
    156 ****        21.2500   8.0000  -6.7500 Du        
    157 ****        21.2500   8.0000  -6.5000 Du        
    158 ****        21.2500   8.0000  -6.2500 Du        
    159 ****        21.2500   8.2500  -7.0000 Du        
    160 ****        21.2500   8.2500  -6.7500 Du        
    161 ****        21.2500   8.5000  -7.0000 Du        
    162 ****        21.5000   5.7500  -9.0000 Du        
    163 ****        21.5000   5.7500  -8.7500 Du        
    164 ****        21.5000   5.7500  -8.5000 Du        
    165 ****        21.5000   6.0000  -9.2500 Du        
    166 ****        21.5000   6.0000  -9.0000 Du        
    167 ****        21.5000   6.0000  -8.7500 Du        
    168 ****        21.5000   6.0000  -8.5000 Du        
    169 ****        21.5000   6.0000  -8.2500 Du        
    170 ****        21.5000   6.2500  -9.7500 Du        
    171 ****        21.5000   6.2500  -9.5000 Du        
    172 ****        21.5000   6.2500  -9.2500 Du        
    173 ****        21.5000   6.2500  -9.0000 Du        
    174 ****        21.5000   6.2500  -8.7500 Du        
    175 ****        21.5000   6.2500  -8.5000 Du        
    176 ****        21.5000   6.2500  -8.2500 Du        
    177 ****        21.5000   6.5000  -9.5000 Du        
    178 ****        21.5000   6.5000  -9.2500 Du        
    179 ****        21.5000   6.5000  -9.0000 Du        
    180 ****        21.5000   6.5000  -8.7500 Du        
    181 ****        21.5000   6.5000  -8.5000 Du        
    182 ****        21.5000   6.5000  -8.2500 Du        
    183 ****        21.5000   6.5000  -8.0000 Du        
    184 ****        21.5000   6.5000  -7.7500 Du        
    185 ****        21.5000   6.7500  -9.7500 Du        
    186 ****        21.5000   6.7500  -9.5000 Du        
    187 ****        21.5000   6.7500  -9.2500 Du        
    188 ****        21.5000   6.7500  -9.0000 Du        
    189 ****        21.5000   6.7500  -8.7500 Du        
    190 ****        21.5000   6.7500  -8.5000 Du        
    191 ****        21.5000   6.7500  -8.2500 Du        
    192 ****        21.5000   6.7500  -8.0000 Du        
    193 ****        21.5000   6.7500  -7.7500 Du        
    194 ****        21.5000   6.7500  -3.5000 Du        
    195 ****        21.5000   7.0000  -9.0000 Du        
    196 ****        21.5000   7.0000  -8.7500 Du        
    197 ****        21.5000   7.0000  -8.5000 Du        
    198 ****        21.5000   7.0000  -8.2500 Du        
    199 ****        21.5000   7.0000  -8.0000 Du        
    200 ****        21.5000   7.0000  -7.7500 Du        
    201 ****        21.5000   7.0000  -7.5000 Du        
    202 ****        21.5000   7.0000  -7.2500 Du        
    203 ****        21.5000   7.0000  -7.0000 Du        
    204 ****        21.5000   7.0000  -6.7500 Du        
    205 ****        21.5000   7.2500  -8.2500 Du        
    206 ****        21.5000   7.2500  -8.0000 Du        
    207 ****        21.5000   7.2500  -7.7500 Du        
    208 ****        21.5000   7.2500  -7.5000 Du        
    209 ****        21.5000   7.2500  -7.2500 Du        
    210 ****        21.5000   7.2500  -7.0000 Du        
    211 ****        21.5000   7.2500  -6.7500 Du        
    212 ****        21.5000   7.2500  -6.5000 Du        
    213 ****        21.5000   7.2500  -6.2500 Du        
    214 ****        21.5000   7.2500  -6.0000 Du        
    215 ****        21.5000   7.2500  -5.7500 Du        
    216 ****        21.5000   7.5000  -7.7500 Du        
    217 ****        21.5000   7.5000  -7.5000 Du        
    218 ****        21.5000   7.5000  -7.2500 Du        
    219 ****        21.5000   7.5000  -7.0000 Du        
    220 ****        21.5000   7.5000  -6.7500 Du        
    221 ****        21.5000   7.5000  -6.5000 Du        
    222 ****        21.5000   7.5000  -6.2500 Du        
    223 ****        21.5000   7.5000  -6.0000 Du        
    224 ****        21.5000   7.5000  -5.7500 Du        
    225 ****        21.5000   7.7500  -7.5000 Du        
    226 ****        21.5000   7.7500  -7.2500 Du        
    227 ****        21.5000   7.7500  -7.0000 Du        
    228 ****        21.5000   7.7500  -6.7500 Du        
    229 ****        21.5000   7.7500  -6.5000 Du        
    230 ****        21.5000   7.7500  -6.2500 Du        
    231 ****        21.5000   7.7500  -6.0000 Du        
    232 ****        21.5000   8.0000  -7.5000 Du        
    233 ****        21.5000   8.0000  -7.2500 Du        
    234 ****        21.5000   8.0000  -7.0000 Du        
    235 ****        21.5000   8.0000  -6.7500 Du        
    236 ****        21.5000   8.0000  -6.5000 Du        
    237 ****        21.5000   8.0000  -6.2500 Du        
    238 ****        21.5000   8.2500  -7.0000 Du        
    239 ****        21.5000   8.2500  -6.7500 Du        
    240 ****        21.7500   5.7500  -9.0000 Du        
    241 ****        21.7500   5.7500  -8.7500 Du        
    242 ****        21.7500   6.0000  -9.7500 Du        
    243 ****        21.7500   6.0000  -9.5000 Du        
    244 ****        21.7500   6.0000  -9.2500 Du        
    245 ****        21.7500   6.0000  -9.0000 Du        
    246 ****        21.7500   6.0000  -8.7500 Du        
    247 ****        21.7500   6.0000  -8.5000 Du        
    248 ****        21.7500   6.2500 -10.2500 Du        
    249 ****        21.7500   6.2500 -10.0000 Du        
    250 ****        21.7500   6.2500  -9.7500 Du        
    251 ****        21.7500   6.2500  -9.5000 Du        
    252 ****        21.7500   6.2500  -9.2500 Du        
    253 ****        21.7500   6.2500  -9.0000 Du        
    254 ****        21.7500   6.2500  -8.7500 Du        
    255 ****        21.7500   6.2500  -8.5000 Du        
    256 ****        21.7500   6.2500  -8.2500 Du        
    257 ****        21.7500   6.5000 -10.2500 Du        
    258 ****        21.7500   6.5000 -10.0000 Du        
    259 ****        21.7500   6.5000  -9.7500 Du        
    260 ****        21.7500   6.5000  -9.5000 Du        
    261 ****        21.7500   6.5000  -9.2500 Du        
    262 ****        21.7500   6.5000  -9.0000 Du        
    263 ****        21.7500   6.5000  -8.7500 Du        
    264 ****        21.7500   6.5000  -8.5000 Du        
    265 ****        21.7500   6.5000  -8.2500 Du        
    266 ****        21.7500   6.5000  -8.0000 Du        
    267 ****        21.7500   6.5000  -7.7500 Du        
    268 ****        21.7500   6.7500 -10.2500 Du        
    269 ****        21.7500   6.7500 -10.0000 Du        
    270 ****        21.7500   6.7500  -9.7500 Du        
    271 ****        21.7500   6.7500  -9.5000 Du        
    272 ****        21.7500   6.7500  -9.2500 Du        
    273 ****        21.7500   6.7500  -9.0000 Du        
    274 ****        21.7500   6.7500  -8.7500 Du        
    275 ****        21.7500   6.7500  -8.5000 Du        
    276 ****        21.7500   6.7500  -8.2500 Du        
    277 ****        21.7500   6.7500  -8.0000 Du        
    278 ****        21.7500   6.7500  -7.7500 Du        
    279 ****        21.7500   6.7500  -7.5000 Du        
    280 ****        21.7500   6.7500  -7.2500 Du        
    281 ****        21.7500   7.0000 -10.0000 Du        
    282 ****        21.7500   7.0000  -9.5000 Du        
    283 ****        21.7500   7.0000  -9.2500 Du        
    284 ****        21.7500   7.0000  -9.0000 Du        
    285 ****        21.7500   7.0000  -8.7500 Du        
    286 ****        21.7500   7.0000  -8.5000 Du        
    287 ****        21.7500   7.0000  -8.2500 Du        
    288 ****        21.7500   7.0000  -8.0000 Du        
    289 ****        21.7500   7.0000  -7.7500 Du        
    290 ****        21.7500   7.0000  -7.5000 Du        
    291 ****        21.7500   7.0000  -7.2500 Du        
    292 ****        21.7500   7.0000  -7.0000 Du        
    293 ****        21.7500   7.0000  -6.7500 Du        
    294 ****        21.7500   7.0000  -6.5000 Du        
    295 ****        21.7500   7.0000  -6.2500 Du        
    296 ****        21.7500   7.2500  -8.7500 Du        
    297 ****        21.7500   7.2500  -8.5000 Du        
    298 ****        21.7500   7.2500  -8.2500 Du        
    299 ****        21.7500   7.2500  -8.0000 Du        
    300 ****        21.7500   7.2500  -7.7500 Du        
    301 ****        21.7500   7.2500  -7.5000 Du        
    302 ****        21.7500   7.2500  -7.2500 Du        
    303 ****        21.7500   7.2500  -7.0000 Du        
    304 ****        21.7500   7.2500  -6.7500 Du        
    305 ****        21.7500   7.2500  -6.5000 Du        
    306 ****        21.7500   7.2500  -6.2500 Du        
    307 ****        21.7500   7.2500  -6.0000 Du        
    308 ****        21.7500   7.2500  -5.7500 Du        
    309 ****        21.7500   7.5000  -7.7500 Du        
    310 ****        21.7500   7.5000  -7.5000 Du        
    311 ****        21.7500   7.5000  -7.2500 Du        
    312 ****        21.7500   7.5000  -7.0000 Du        
    313 ****        21.7500   7.5000  -6.7500 Du        
    314 ****        21.7500   7.5000  -6.5000 Du        
    315 ****        21.7500   7.5000  -6.2500 Du        
    316 ****        21.7500   7.5000  -6.0000 Du        
    317 ****        21.7500   7.5000  -5.7500 Du        
    318 ****        21.7500   7.7500  -7.5000 Du        
    319 ****        21.7500   7.7500  -7.2500 Du        
    320 ****        21.7500   7.7500  -7.0000 Du        
    321 ****        21.7500   7.7500  -6.7500 Du        
    322 ****        21.7500   7.7500  -6.5000 Du        
    323 ****        21.7500   7.7500  -6.2500 Du        
    324 ****        21.7500   7.7500  -6.0000 Du        
    325 ****        21.7500   8.0000  -7.2500 Du        
    326 ****        21.7500   8.0000  -7.0000 Du        
    327 ****        21.7500   8.0000  -6.7500 Du        
    328 ****        21.7500   8.0000  -6.5000 Du        
    329 ****        21.7500   8.0000  -6.2500 Du        
    330 ****        21.7500   8.2500  -7.0000 Du        
    331 ****        21.7500   8.2500  -6.7500 Du        
    332 ****        21.7500   8.2500  -6.5000 Du        
    333 ****        22.0000   6.0000  -9.7500 Du        
    334 ****        22.0000   6.0000  -9.5000 Du        
    335 ****        22.0000   6.0000  -9.2500 Du        
    336 ****        22.0000   6.0000  -9.0000 Du        
    337 ****        22.0000   6.2500 -10.5000 Du        
    338 ****        22.0000   6.2500 -10.2500 Du        
    339 ****        22.0000   6.2500 -10.0000 Du        
    340 ****        22.0000   6.2500  -9.7500 Du        
    341 ****        22.0000   6.2500  -9.5000 Du        
    342 ****        22.0000   6.2500  -9.2500 Du        
    343 ****        22.0000   6.2500  -9.0000 Du        
    344 ****        22.0000   6.2500  -8.7500 Du        
    345 ****        22.0000   6.5000 -10.5000 Du        
    346 ****        22.0000   6.5000 -10.2500 Du        
    347 ****        22.0000   6.5000 -10.0000 Du        
    348 ****        22.0000   6.5000  -9.7500 Du        
    349 ****        22.0000   6.5000  -9.5000 Du        
    350 ****        22.0000   6.5000  -9.2500 Du        
    351 ****        22.0000   6.5000  -9.0000 Du        
    352 ****        22.0000   6.7500 -10.7500 Du        
    353 ****        22.0000   6.7500 -10.5000 Du        
    354 ****        22.0000   6.7500 -10.2500 Du        
    355 ****        22.0000   6.7500 -10.0000 Du        
    356 ****        22.0000   6.7500  -9.7500 Du        
    357 ****        22.0000   6.7500  -9.5000 Du        
    358 ****        22.0000   6.7500  -9.2500 Du        
    359 ****        22.0000   6.7500  -9.0000 Du        
    360 ****        22.0000   6.7500  -8.7500 Du        
    361 ****        22.0000   6.7500  -8.5000 Du        
    362 ****        22.0000   6.7500  -8.2500 Du        
    363 ****        22.0000   6.7500  -8.0000 Du        
    364 ****        22.0000   6.7500  -7.7500 Du        
    365 ****        22.0000   7.0000 -10.0000 Du        
    366 ****        22.0000   7.0000  -9.7500 Du        
    367 ****        22.0000   7.0000  -9.5000 Du        
    368 ****        22.0000   7.0000  -9.2500 Du        
    369 ****        22.0000   7.0000  -9.0000 Du        
    370 ****        22.0000   7.0000  -8.7500 Du        
    371 ****        22.0000   7.0000  -8.5000 Du        
    372 ****        22.0000   7.0000  -8.2500 Du        
    373 ****        22.0000   7.0000  -8.0000 Du        
    374 ****        22.0000   7.0000  -7.7500 Du        
    375 ****        22.0000   7.0000  -7.5000 Du        
    376 ****        22.0000   7.0000  -7.2500 Du        
    377 ****        22.0000   7.0000  -7.0000 Du        
    378 ****        22.0000   7.0000  -6.7500 Du        
    379 ****        22.0000   7.0000  -6.5000 Du        
    380 ****        22.0000   7.0000  -6.2500 Du        
    381 ****        22.0000   7.0000  -6.0000 Du        
    382 ****        22.0000   7.2500  -8.2500 Du        
    383 ****        22.0000   7.2500  -8.0000 Du        
    384 ****        22.0000   7.2500  -7.7500 Du        
    385 ****        22.0000   7.2500  -7.5000 Du        
    386 ****        22.0000   7.2500  -7.2500 Du        
    387 ****        22.0000   7.2500  -7.0000 Du        
    388 ****        22.0000   7.2500  -6.7500 Du        
    389 ****        22.0000   7.2500  -6.5000 Du        
    390 ****        22.0000   7.2500  -6.2500 Du        
    391 ****        22.0000   7.2500  -6.0000 Du        
    392 ****        22.0000   7.2500  -5.7500 Du        
    393 ****        22.0000   7.5000  -7.5000 Du        
    394 ****        22.0000   7.5000  -7.2500 Du        
    395 ****        22.0000   7.5000  -7.0000 Du        
    396 ****        22.0000   7.5000  -6.7500 Du        
    397 ****        22.0000   7.5000  -6.5000 Du        
    398 ****        22.0000   7.5000  -6.2500 Du        
    399 ****        22.0000   7.5000  -6.0000 Du        
    400 ****        22.0000   7.7500  -7.5000 Du        
    401 ****        22.0000   7.7500  -7.2500 Du        
    402 ****        22.0000   7.7500  -7.0000 Du        
    403 ****        22.0000   7.7500  -6.7500 Du        
    404 ****        22.0000   7.7500  -6.5000 Du        
    405 ****        22.0000   7.7500  -6.2500 Du        
    406 ****        22.0000   7.7500  -6.0000 Du        
    407 ****        22.0000   8.0000  -7.2500 Du        
    408 ****        22.0000   8.0000  -7.0000 Du        
    409 ****        22.0000   8.0000  -6.7500 Du        
    410 ****        22.0000   8.0000  -6.5000 Du        
    411 ****        22.0000   8.0000  -6.2500 Du        
    412 ****        22.0000   8.2500  -7.0000 Du        
    413 ****        22.0000   8.2500  -6.7500 Du        
    414 ****        22.2500   6.2500 -10.7500 Du        
    415 ****        22.2500   6.2500 -10.5000 Du        
    416 ****        22.2500   6.2500 -10.2500 Du        
    417 ****        22.2500   6.2500 -10.0000 Du        
    418 ****        22.2500   6.2500  -9.7500 Du        
    419 ****        22.2500   6.2500  -9.5000 Du        
    420 ****        22.2500   6.5000 -10.7500 Du        
    421 ****        22.2500   6.5000 -10.5000 Du        
    422 ****        22.2500   6.5000 -10.2500 Du        
    423 ****        22.2500   6.5000 -10.0000 Du        
    424 ****        22.2500   6.5000  -9.7500 Du        
    425 ****        22.2500   6.5000  -9.5000 Du        
    426 ****        22.2500   6.7500 -10.7500 Du        
    427 ****        22.2500   6.7500 -10.5000 Du        
    428 ****        22.2500   6.7500 -10.2500 Du        
    429 ****        22.2500   6.7500 -10.0000 Du        
    430 ****        22.2500   6.7500  -9.7500 Du        
    431 ****        22.2500   6.7500  -9.5000 Du        
    432 ****        22.2500   6.7500  -9.2500 Du        
    433 ****        22.2500   7.0000 -10.2500 Du        
    434 ****        22.2500   7.0000 -10.0000 Du        
    435 ****        22.2500   7.0000  -9.7500 Du        
    436 ****        22.2500   7.0000  -9.5000 Du        
    437 ****        22.2500   7.0000  -9.0000 Du        
    438 ****        22.2500   7.0000  -6.7500 Du        
    439 ****        22.2500   7.0000  -6.5000 Du        
    440 ****        22.2500   7.0000  -6.2500 Du        
    441 ****        22.2500   7.0000  -6.0000 Du        
    442 ****        22.2500   7.2500  -7.2500 Du        
    443 ****        22.2500   7.2500  -7.0000 Du        
    444 ****        22.2500   7.2500  -6.7500 Du        
    445 ****        22.2500   7.2500  -6.5000 Du        
    446 ****        22.2500   7.2500  -6.2500 Du        
    447 ****        22.2500   7.2500  -6.0000 Du        
    448 ****        22.2500   7.2500  -5.7500 Du        
    449 ****        22.2500   7.5000  -7.0000 Du        
    450 ****        22.2500   7.5000  -6.7500 Du        
    451 ****        22.2500   7.5000  -6.5000 Du        
    452 ****        22.2500   7.5000  -6.2500 Du        
    453 ****        22.2500   7.5000  -6.0000 Du        
    454 ****        22.2500   7.7500  -7.2500 Du        
    455 ****        22.2500   7.7500  -7.0000 Du        
    456 ****        22.2500   7.7500  -6.7500 Du        
    457 ****        22.2500   7.7500  -6.5000 Du        
    458 ****        22.2500   7.7500  -6.2500 Du        
    459 ****        22.2500   7.7500  -6.0000 Du        
    460 ****        22.2500   8.0000  -7.0000 Du        
    461 ****        22.2500   8.0000  -6.7500 Du        
    462 ****        22.2500   8.0000  -6.5000 Du        
    463 ****        22.2500   8.0000  -6.2500 Du        
    464 ****        22.2500   8.2500  -6.7500 Du        
    465 ****        22.5000   6.2500 -11.0000 Du        
    466 ****        22.5000   6.2500 -10.7500 Du        
    467 ****        22.5000   6.2500 -10.5000 Du        
    468 ****        22.5000   6.2500 -10.2500 Du        
    469 ****        22.5000   6.2500 -10.0000 Du        
    470 ****        22.5000   6.2500  -9.7500 Du        
    471 ****        22.5000   6.5000 -10.7500 Du        
    472 ****        22.5000   6.5000 -10.5000 Du        
    473 ****        22.5000   6.5000 -10.2500 Du        
    474 ****        22.5000   6.5000 -10.0000 Du        
    475 ****        22.5000   6.5000  -9.7500 Du        
    476 ****        22.5000   6.7500 -10.7500 Du        
    477 ****        22.5000   6.7500 -10.5000 Du        
    478 ****        22.5000   6.7500 -10.2500 Du        
    479 ****        22.5000   6.7500 -10.0000 Du        
    480 ****        22.5000   6.7500  -9.7500 Du        
    481 ****        22.5000   7.0000 -10.7500 Du        
    482 ****        22.5000   7.0000 -10.5000 Du        
    483 ****        22.5000   7.0000 -10.2500 Du        
    484 ****        22.5000   7.0000 -10.0000 Du        
    485 ****        22.5000   7.0000  -9.7500 Du        
    486 ****        22.5000   7.2500 -10.5000 Du        
    487 ****        22.5000   7.2500 -10.2500 Du        
    488 ****        22.5000   7.2500  -6.2500 Du        
    489 ****        22.5000   7.2500  -6.0000 Du        
    490 ****        22.5000   7.2500  -5.7500 Du        
    491 ****        22.5000   7.5000  -6.5000 Du        
    492 ****        22.5000   7.5000  -6.2500 Du        
    493 ****        22.5000   7.5000  -6.0000 Du        
    494 ****        22.5000   7.5000  -5.7500 Du        
    495 ****        22.5000   7.7500  -6.7500 Du        
    496 ****        22.5000   7.7500  -6.5000 Du        
    497 ****        22.5000   7.7500  -6.2500 Du        
    498 ****        22.5000   7.7500  -6.0000 Du        
    499 ****        22.5000   8.0000  -6.7500 Du        
    500 ****        22.5000   8.0000  -6.5000 Du        
    501 ****        22.7500   6.2500 -11.0000 Du        
    502 ****        22.7500   6.2500 -10.7500 Du        
    503 ****        22.7500   6.2500 -10.5000 Du        
    504 ****        22.7500   6.2500 -10.2500 Du        
    505 ****        22.7500   6.2500 -10.0000 Du        
    506 ****        22.7500   6.5000 -10.7500 Du        
    507 ****        22.7500   6.5000 -10.5000 Du        
    508 ****        22.7500   6.5000 -10.2500 Du        
    509 ****        22.7500   6.5000 -10.0000 Du        
    510 ****        22.7500   6.7500 -10.7500 Du        
    511 ****        22.7500   6.7500 -10.5000 Du        
    512 ****        22.7500   6.7500 -10.2500 Du        
    513 ****        22.7500   6.7500 -10.0000 Du        
    514 ****        22.7500   7.0000 -10.7500 Du        
    515 ****        22.7500   7.0000 -10.5000 Du        
    516 ****        22.7500   7.0000 -10.2500 Du        
    517 ****        22.7500   7.0000 -10.0000 Du        
    518 ****        22.7500   7.0000  -9.7500 Du        
    519 ****        22.7500   7.2500 -10.5000 Du        
    520 ****        22.7500   7.2500 -10.2500 Du        
    521 ****        23.0000   6.2500 -11.0000 Du        
    522 ****        23.0000   6.2500 -10.7500 Du        
    523 ****        23.0000   6.2500 -10.5000 Du        
    524 ****        23.0000   6.2500 -10.2500 Du        
    525 ****        23.0000   6.5000 -11.0000 Du        
    526 ****        23.0000   6.5000 -10.7500 Du        
    527 ****        23.0000   6.5000 -10.5000 Du        
    528 ****        23.0000   6.5000 -10.2500 Du        
    529 ****        23.0000   6.7500 -10.7500 Du        
    530 ****        23.0000   6.7500 -10.5000 Du        
    531 ****        23.0000   6.7500 -10.2500 Du        
    532 ****        23.0000   6.7500 -10.0000 Du        
    533 ****        23.0000   7.0000 -10.7500 Du        
    534 ****        23.0000   7.0000 -10.5000 Du        
    535 ****        23.0000   7.0000 -10.2500 Du        
    536 ****        23.0000   7.0000 -10.0000 Du        
    537 ****        23.0000   7.2500 -10.5000 Du        
    538 ****        23.0000   7.2500 -10.2500 Du        
    539 ****        23.2500   6.2500 -11.2500 Du        
    540 ****        23.2500   6.2500 -11.0000 Du        
    541 ****        23.2500   6.2500 -10.7500 Du        
    542 ****        23.2500   6.2500 -10.5000 Du        
    543 ****        23.2500   6.5000 -11.0000 Du        
    544 ****        23.2500   6.5000 -10.7500 Du        
    545 ****        23.2500   6.5000 -10.5000 Du        
    546 ****        23.2500   6.5000 -10.2500 Du        
    547 ****        23.2500   6.7500 -11.0000 Du        
    548 ****        23.2500   6.7500 -10.7500 Du        
    549 ****        23.2500   6.7500 -10.5000 Du        
    550 ****        23.2500   6.7500 -10.2500 Du        
    551 ****        23.2500   7.0000 -10.7500 Du        
    552 ****        23.2500   7.0000 -10.5000 Du        
    553 ****        23.2500   7.0000 -10.2500 Du        
    554 ****        23.2500   7.0000 -10.0000 Du        
    555 ****        23.2500   7.0000  -3.5000 Du        
    556 ****        23.2500   7.2500 -10.7500 Du        
    557 ****        23.2500   7.2500 -10.5000 Du        
    558 ****        23.2500   7.2500 -10.2500 Du        
    559 ****        23.5000   6.0000 -11.0000 Du        
    560 ****        23.5000   6.2500 -11.2500 Du        
    561 ****        23.5000   6.2500 -11.0000 Du        
    562 ****        23.5000   6.2500 -10.7500 Du        
    563 ****        23.5000   6.2500 -10.5000 Du        
    564 ****        23.5000   6.5000 -11.0000 Du        
    565 ****        23.5000   6.5000 -10.7500 Du        
    566 ****        23.5000   6.5000 -10.5000 Du        
    567 ****        23.5000   6.7500 -11.0000 Du        
    568 ****        23.5000   6.7500 -10.7500 Du        
    569 ****        23.5000   6.7500 -10.5000 Du        
    570 ****        23.5000   6.7500 -10.2500 Du        
    571 ****        23.5000   6.7500  -3.2500 Du        
    572 ****        23.5000   7.0000 -11.0000 Du        
    573 ****        23.5000   7.0000 -10.7500 Du        
    574 ****        23.5000   7.0000 -10.5000 Du        
    575 ****        23.5000   7.0000 -10.2500 Du        
    576 ****        23.5000   7.0000  -4.0000 Du        
    577 ****        23.5000   7.0000  -3.7500 Du        
    578 ****        23.5000   7.0000  -3.5000 Du        
    579 ****        23.5000   7.0000  -3.2500 Du        
    580 ****        23.5000   7.2500 -10.7500 Du        
    581 ****        23.5000   7.2500 -10.5000 Du        
    582 ****        23.5000   7.2500 -10.2500 Du        
    583 ****        23.5000   7.2500  -4.5000 Du        
    584 ****        23.5000   7.2500  -4.2500 Du        
    585 ****        23.5000   7.2500  -4.0000 Du        
    586 ****        23.5000   7.2500  -3.7500 Du        
    587 ****        23.5000   7.5000 -10.7500 Du        
    588 ****        23.5000   7.5000 -10.5000 Du        
    589 ****        23.7500   6.0000 -11.0000 Du        
    590 ****        23.7500   6.2500 -11.2500 Du        
    591 ****        23.7500   6.2500 -11.0000 Du        
    592 ****        23.7500   6.2500 -10.7500 Du        
    593 ****        23.7500   6.5000 -11.2500 Du        
    594 ****        23.7500   6.5000 -11.0000 Du        
    595 ****        23.7500   6.5000 -10.7500 Du        
    596 ****        23.7500   6.5000 -10.5000 Du        
    597 ****        23.7500   6.7500 -11.0000 Du        
    598 ****        23.7500   6.7500 -10.7500 Du        
    599 ****        23.7500   6.7500 -10.5000 Du        
    600 ****        23.7500   6.7500  -3.2500 Du        
    601 ****        23.7500   7.0000 -11.0000 Du        
    602 ****        23.7500   7.0000 -10.7500 Du        
    603 ****        23.7500   7.0000 -10.5000 Du        
    604 ****        23.7500   7.0000 -10.2500 Du        
    605 ****        23.7500   7.0000  -4.2500 Du        
    606 ****        23.7500   7.0000  -4.0000 Du        
    607 ****        23.7500   7.0000  -3.7500 Du        
    608 ****        23.7500   7.0000  -3.5000 Du        
    609 ****        23.7500   7.0000  -3.2500 Du        
    610 ****        23.7500   7.0000  -3.0000 Du        
    611 ****        23.7500   7.2500 -11.0000 Du        
    612 ****        23.7500   7.2500 -10.7500 Du        
    613 ****        23.7500   7.2500 -10.5000 Du        
    614 ****        23.7500   7.2500 -10.2500 Du        
    615 ****        23.7500   7.2500  -4.5000 Du        
    616 ****        23.7500   7.2500  -4.2500 Du        
    617 ****        23.7500   7.2500  -4.0000 Du        
    618 ****        23.7500   7.2500  -3.7500 Du        
    619 ****        23.7500   7.2500  -3.5000 Du        
    620 ****        23.7500   7.2500  -3.2500 Du        
    621 ****        23.7500   7.5000 -10.7500 Du        
    622 ****        23.7500   7.5000 -10.5000 Du        
    623 ****        23.7500   7.5000  -4.5000 Du        
    624 ****        23.7500   7.5000  -4.2500 Du        
    625 ****        23.7500   7.5000  -4.0000 Du        
    626 ****        23.7500   7.5000  -3.7500 Du        
    627 ****        24.0000   6.2500 -11.2500 Du        
    628 ****        24.0000   6.2500 -11.0000 Du        
    629 ****        24.0000   6.2500 -10.7500 Du        
    630 ****        24.0000   6.5000 -11.2500 Du        
    631 ****        24.0000   6.5000 -11.0000 Du        
    632 ****        24.0000   6.5000 -10.7500 Du        
    633 ****        24.0000   6.7500 -11.2500 Du        
    634 ****        24.0000   6.7500 -11.0000 Du        
    635 ****        24.0000   6.7500 -10.7500 Du        
    636 ****        24.0000   6.7500 -10.5000 Du        
    637 ****        24.0000   7.0000 -11.2500 Du        
    638 ****        24.0000   7.0000 -11.0000 Du        
    639 ****        24.0000   7.0000 -10.7500 Du        
    640 ****        24.0000   7.0000 -10.5000 Du        
    641 ****        24.0000   7.0000 -10.2500 Du        
    642 ****        24.0000   7.0000  -4.2500 Du        
    643 ****        24.0000   7.0000  -4.0000 Du        
    644 ****        24.0000   7.0000  -3.7500 Du        
    645 ****        24.0000   7.0000  -3.5000 Du        
    646 ****        24.0000   7.0000  -3.2500 Du        
    647 ****        24.0000   7.0000  -3.0000 Du        
    648 ****        24.0000   7.2500 -11.0000 Du        
    649 ****        24.0000   7.2500 -10.7500 Du        
    650 ****        24.0000   7.2500 -10.5000 Du        
    651 ****        24.0000   7.2500 -10.2500 Du        
    652 ****        24.0000   7.2500  -4.5000 Du        
    653 ****        24.0000   7.2500  -4.2500 Du        
    654 ****        24.0000   7.2500  -4.0000 Du        
    655 ****        24.0000   7.2500  -3.7500 Du        
    656 ****        24.0000   7.2500  -3.5000 Du        
    657 ****        24.0000   7.2500  -3.2500 Du        
    658 ****        24.0000   7.2500  -3.0000 Du        
    659 ****        24.0000   7.5000 -11.0000 Du        
    660 ****        24.0000   7.5000 -10.7500 Du        
    661 ****        24.0000   7.5000 -10.5000 Du        
    662 ****        24.0000   7.5000 -10.2500 Du        
    663 ****        24.0000   7.5000  -4.5000 Du        
    664 ****        24.0000   7.5000  -4.2500 Du        
    665 ****        24.0000   7.5000  -4.0000 Du        
    666 ****        24.0000   7.5000  -3.7500 Du        
    667 ****        24.0000   7.5000  -3.5000 Du        
    668 ****        24.0000   7.5000  -3.2500 Du        
    669 ****        24.0000   7.7500 -10.7500 Du        
    670 ****        24.0000   7.7500 -10.5000 Du        
    671 ****        24.0000   7.7500  -4.5000 Du        
    672 ****        24.0000   7.7500  -4.2500 Du        
    673 ****        24.0000   7.7500  -4.0000 Du        
    674 ****        24.0000   7.7500  -3.7500 Du        
    675 ****        24.2500   6.5000 -11.2500 Du        
    676 ****        24.2500   6.5000 -11.0000 Du        
    677 ****        24.2500   6.5000 -10.7500 Du        
    678 ****        24.2500   6.7500 -11.2500 Du        
    679 ****        24.2500   6.7500 -11.0000 Du        
    680 ****        24.2500   6.7500 -10.7500 Du        
    681 ****        24.2500   6.7500 -10.5000 Du        
    682 ****        24.2500   7.0000 -11.2500 Du        
    683 ****        24.2500   7.0000 -11.0000 Du        
    684 ****        24.2500   7.0000 -10.7500 Du        
    685 ****        24.2500   7.0000 -10.5000 Du        
    686 ****        24.2500   7.0000  -4.0000 Du        
    687 ****        24.2500   7.0000  -3.7500 Du        
    688 ****        24.2500   7.0000  -3.5000 Du        
    689 ****        24.2500   7.0000  -3.2500 Du        
    690 ****        24.2500   7.0000  -3.0000 Du        
    691 ****        24.2500   7.2500 -11.0000 Du        
    692 ****        24.2500   7.2500 -10.7500 Du        
    693 ****        24.2500   7.2500 -10.5000 Du        
    694 ****        24.2500   7.2500 -10.2500 Du        
    695 ****        24.2500   7.2500  -4.2500 Du        
    696 ****        24.2500   7.2500  -4.0000 Du        
    697 ****        24.2500   7.2500  -3.7500 Du        
    698 ****        24.2500   7.2500  -3.5000 Du        
    699 ****        24.2500   7.2500  -3.2500 Du        
    700 ****        24.2500   7.2500  -3.0000 Du        
    701 ****        24.2500   7.2500  -2.7500 Du        
    702 ****        24.2500   7.5000 -11.0000 Du        
    703 ****        24.2500   7.5000 -10.7500 Du        
    704 ****        24.2500   7.5000 -10.5000 Du        
    705 ****        24.2500   7.5000 -10.2500 Du        
    706 ****        24.2500   7.5000  -4.5000 Du        
    707 ****        24.2500   7.5000  -4.2500 Du        
    708 ****        24.2500   7.5000  -4.0000 Du        
    709 ****        24.2500   7.5000  -3.7500 Du        
    710 ****        24.2500   7.5000  -3.5000 Du        
    711 ****        24.2500   7.5000  -3.2500 Du        
    712 ****        24.2500   7.5000  -3.0000 Du        
    713 ****        24.2500   7.7500 -10.7500 Du        
    714 ****        24.2500   7.7500 -10.5000 Du        
    715 ****        24.2500   7.7500  -4.5000 Du        
    716 ****        24.2500   7.7500  -4.2500 Du        
    717 ****        24.2500   7.7500  -4.0000 Du        
    718 ****        24.2500   7.7500  -3.7500 Du        
    719 ****        24.2500   7.7500  -3.5000 Du        
    720 ****        24.2500   7.7500  -3.2500 Du        
    721 ****        24.2500   8.0000  -4.5000 Du        
    722 ****        24.2500   8.0000  -4.2500 Du        
    723 ****        24.2500   8.0000  -4.0000 Du        
    724 ****        24.2500   8.0000  -3.7500 Du        
    725 ****        24.5000   6.7500 -11.2500 Du        
    726 ****        24.5000   6.7500 -11.0000 Du        
    727 ****        24.5000   6.7500 -10.7500 Du        
    728 ****        24.5000   7.0000 -11.2500 Du        
    729 ****        24.5000   7.0000 -11.0000 Du        
    730 ****        24.5000   7.0000 -10.7500 Du        
    731 ****        24.5000   7.0000 -10.5000 Du        
    732 ****        24.5000   7.0000  -3.7500 Du        
    733 ****        24.5000   7.0000  -3.5000 Du        
    734 ****        24.5000   7.0000  -3.2500 Du        
    735 ****        24.5000   7.0000  -3.0000 Du        
    736 ****        24.5000   7.2500 -11.2500 Du        
    737 ****        24.5000   7.2500 -11.0000 Du        
    738 ****        24.5000   7.2500 -10.7500 Du        
    739 ****        24.5000   7.2500 -10.5000 Du        
    740 ****        24.5000   7.2500 -10.2500 Du        
    741 ****        24.5000   7.2500  -4.2500 Du        
    742 ****        24.5000   7.2500  -4.0000 Du        
    743 ****        24.5000   7.2500  -3.7500 Du        
    744 ****        24.5000   7.2500  -3.5000 Du        
    745 ****        24.5000   7.2500  -3.2500 Du        
    746 ****        24.5000   7.2500  -3.0000 Du        
    747 ****        24.5000   7.2500  -2.7500 Du        
    748 ****        24.5000   7.5000 -11.0000 Du        
    749 ****        24.5000   7.5000 -10.7500 Du        
    750 ****        24.5000   7.5000 -10.5000 Du        
    751 ****        24.5000   7.5000 -10.2500 Du        
    752 ****        24.5000   7.5000  -4.2500 Du        
    753 ****        24.5000   7.5000  -4.0000 Du        
    754 ****        24.5000   7.5000  -3.7500 Du        
    755 ****        24.5000   7.5000  -3.5000 Du        
    756 ****        24.5000   7.5000  -3.2500 Du        
    757 ****        24.5000   7.5000  -3.0000 Du        
    758 ****        24.5000   7.5000  -2.7500 Du        
    759 ****        24.5000   7.5000  -2.5000 Du        
    760 ****        24.5000   7.7500 -11.0000 Du        
    761 ****        24.5000   7.7500 -10.7500 Du        
    762 ****        24.5000   7.7500 -10.5000 Du        
    763 ****        24.5000   7.7500 -10.2500 Du        
    764 ****        24.5000   7.7500  -4.5000 Du        
    765 ****        24.5000   7.7500  -4.2500 Du        
    766 ****        24.5000   7.7500  -4.0000 Du        
    767 ****        24.5000   7.7500  -3.7500 Du        
    768 ****        24.5000   7.7500  -3.5000 Du        
    769 ****        24.5000   7.7500  -3.2500 Du        
    770 ****        24.5000   7.7500  -3.0000 Du        
    771 ****        24.5000   7.7500  -2.7500 Du        
    772 ****        24.5000   8.0000 -10.5000 Du        
    773 ****        24.5000   8.0000  -4.5000 Du        
    774 ****        24.5000   8.0000  -4.2500 Du        
    775 ****        24.5000   8.0000  -4.0000 Du        
    776 ****        24.5000   8.0000  -3.7500 Du        
    777 ****        24.5000   8.0000  -3.5000 Du        
    778 ****        24.5000   8.0000  -3.2500 Du        
    779 ****        24.5000   8.0000  -3.0000 Du        
    780 ****        24.5000   8.2500  -4.5000 Du        
    781 ****        24.5000   8.2500  -4.2500 Du        
    782 ****        24.5000   8.2500  -4.0000 Du        
    783 ****        24.5000   8.2500  -3.7500 Du        
    784 ****        24.5000   8.2500  -3.5000 Du        
    785 ****        24.7500   6.7500 -11.2500 Du        
    786 ****        24.7500   6.7500 -11.0000 Du        
    787 ****        24.7500   6.7500 -10.7500 Du        
    788 ****        24.7500   7.0000 -11.2500 Du        
    789 ****        24.7500   7.0000 -11.0000 Du        
    790 ****        24.7500   7.0000 -10.7500 Du        
    791 ****        24.7500   7.0000 -10.5000 Du        
    792 ****        24.7500   7.0000  -3.7500 Du        
    793 ****        24.7500   7.0000  -3.5000 Du        
    794 ****        24.7500   7.0000  -3.2500 Du        
    795 ****        24.7500   7.0000  -3.0000 Du        
    796 ****        24.7500   7.2500 -11.2500 Du        
    797 ****        24.7500   7.2500 -11.0000 Du        
    798 ****        24.7500   7.2500 -10.7500 Du        
    799 ****        24.7500   7.2500 -10.5000 Du        
    800 ****        24.7500   7.2500  -4.0000 Du        
    801 ****        24.7500   7.2500  -3.7500 Du        
    802 ****        24.7500   7.2500  -3.5000 Du        
    803 ****        24.7500   7.2500  -3.2500 Du        
    804 ****        24.7500   7.2500  -3.0000 Du        
    805 ****        24.7500   7.2500  -2.7500 Du        
    806 ****        24.7500   7.2500  -2.5000 Du        
    807 ****        24.7500   7.5000 -11.0000 Du        
    808 ****        24.7500   7.5000 -10.7500 Du        
    809 ****        24.7500   7.5000 -10.5000 Du        
    810 ****        24.7500   7.5000 -10.2500 Du        
    811 ****        24.7500   7.5000  -4.2500 Du        
    812 ****        24.7500   7.5000  -4.0000 Du        
    813 ****        24.7500   7.5000  -3.7500 Du        
    814 ****        24.7500   7.5000  -3.5000 Du        
    815 ****        24.7500   7.5000  -3.2500 Du        
    816 ****        24.7500   7.5000  -3.0000 Du        
    817 ****        24.7500   7.5000  -2.7500 Du        
    818 ****        24.7500   7.5000  -2.5000 Du        
    819 ****        24.7500   7.5000  -2.2500 Du        
    820 ****        24.7500   7.7500 -11.0000 Du        
    821 ****        24.7500   7.7500 -10.7500 Du        
    822 ****        24.7500   7.7500 -10.5000 Du        
    823 ****        24.7500   7.7500 -10.2500 Du        
    824 ****        24.7500   7.7500  -4.2500 Du        
    825 ****        24.7500   7.7500  -4.0000 Du        
    826 ****        24.7500   7.7500  -3.7500 Du        
    827 ****        24.7500   7.7500  -3.5000 Du        
    828 ****        24.7500   7.7500  -3.2500 Du        
    829 ****        24.7500   7.7500  -3.0000 Du        
    830 ****        24.7500   7.7500  -2.7500 Du        
    831 ****        24.7500   7.7500  -2.5000 Du        
    832 ****        24.7500   7.7500  -2.2500 Du        
    833 ****        24.7500   8.0000 -10.7500 Du        
    834 ****        24.7500   8.0000 -10.5000 Du        
    835 ****        24.7500   8.0000 -10.2500 Du        
    836 ****        24.7500   8.0000  -4.5000 Du        
    837 ****        24.7500   8.0000  -4.2500 Du        
    838 ****        24.7500   8.0000  -4.0000 Du        
    839 ****        24.7500   8.0000  -3.7500 Du        
    840 ****        24.7500   8.0000  -3.5000 Du        
    841 ****        24.7500   8.0000  -3.2500 Du        
    842 ****        24.7500   8.0000  -3.0000 Du        
    843 ****        24.7500   8.0000  -2.7500 Du        
    844 ****        24.7500   8.0000  -2.5000 Du        
    845 ****        24.7500   8.2500  -4.5000 Du        
    846 ****        24.7500   8.2500  -4.2500 Du        
    847 ****        24.7500   8.2500  -4.0000 Du        
    848 ****        24.7500   8.2500  -3.7500 Du        
    849 ****        24.7500   8.2500  -3.5000 Du        
    850 ****        24.7500   8.2500  -3.2500 Du        
    851 ****        24.7500   8.2500  -3.0000 Du        
    852 ****        24.7500   8.2500  -2.7500 Du        
    853 ****        24.7500   8.5000  -4.5000 Du        
    854 ****        24.7500   8.5000  -4.2500 Du        
    855 ****        24.7500   8.5000  -4.0000 Du        
    856 ****        24.7500   8.5000  -3.7500 Du        
    857 ****        24.7500   8.5000  -3.5000 Du        
    858 ****        24.7500   8.5000  -3.2500 Du        
    859 ****        24.7500   8.7500  -4.5000 Du        
    860 ****        24.7500   8.7500  -4.2500 Du        
    861 ****        24.7500   8.7500  -4.0000 Du        
    862 ****        24.7500   8.7500  -3.7500 Du        
    863 ****        24.7500   8.7500  -3.5000 Du        
    864 ****        25.0000   6.7500 -10.7500 Du        
    865 ****        25.0000   7.0000 -11.2500 Du        
    866 ****        25.0000   7.0000 -11.0000 Du        
    867 ****        25.0000   7.0000 -10.7500 Du        
    868 ****        25.0000   7.0000 -10.5000 Du        
    869 ****        25.0000   7.0000  -3.5000 Du        
    870 ****        25.0000   7.0000  -3.2500 Du        
    871 ****        25.0000   7.0000  -3.0000 Du        
    872 ****        25.0000   7.0000  -2.7500 Du        
    873 ****        25.0000   7.2500 -11.2500 Du        
    874 ****        25.0000   7.2500 -11.0000 Du        
    875 ****        25.0000   7.2500 -10.7500 Du        
    876 ****        25.0000   7.2500 -10.5000 Du        
    877 ****        25.0000   7.2500  -4.0000 Du        
    878 ****        25.0000   7.2500  -3.7500 Du        
    879 ****        25.0000   7.2500  -3.5000 Du        
    880 ****        25.0000   7.2500  -3.2500 Du        
    881 ****        25.0000   7.2500  -3.0000 Du        
    882 ****        25.0000   7.2500  -2.7500 Du        
    883 ****        25.0000   7.2500  -2.5000 Du        
    884 ****        25.0000   7.5000 -11.0000 Du        
    885 ****        25.0000   7.5000 -10.7500 Du        
    886 ****        25.0000   7.5000 -10.5000 Du        
    887 ****        25.0000   7.5000 -10.2500 Du        
    888 ****        25.0000   7.5000  -4.2500 Du        
    889 ****        25.0000   7.5000  -4.0000 Du        
    890 ****        25.0000   7.5000  -3.7500 Du        
    891 ****        25.0000   7.5000  -3.5000 Du        
    892 ****        25.0000   7.5000  -3.2500 Du        
    893 ****        25.0000   7.5000  -3.0000 Du        
    894 ****        25.0000   7.5000  -2.7500 Du        
    895 ****        25.0000   7.5000  -2.5000 Du        
    896 ****        25.0000   7.5000  -2.2500 Du        
    897 ****        25.0000   7.7500 -10.7500 Du        
    898 ****        25.0000   7.7500 -10.5000 Du        
    899 ****        25.0000   7.7500 -10.2500 Du        
    900 ****        25.0000   7.7500  -4.2500 Du        
    901 ****        25.0000   7.7500  -4.0000 Du        
    902 ****        25.0000   7.7500  -3.7500 Du        
    903 ****        25.0000   7.7500  -3.5000 Du        
    904 ****        25.0000   7.7500  -3.2500 Du        
    905 ****        25.0000   7.7500  -3.0000 Du        
    906 ****        25.0000   7.7500  -2.7500 Du        
    907 ****        25.0000   7.7500  -2.5000 Du        
    908 ****        25.0000   7.7500  -2.2500 Du        
    909 ****        25.0000   7.7500  -2.0000 Du        
    910 ****        25.0000   8.0000 -10.7500 Du        
    911 ****        25.0000   8.0000 -10.5000 Du        
    912 ****        25.0000   8.0000 -10.2500 Du        
    913 ****        25.0000   8.0000  -4.5000 Du        
    914 ****        25.0000   8.0000  -4.2500 Du        
    915 ****        25.0000   8.0000  -4.0000 Du        
    916 ****        25.0000   8.0000  -3.7500 Du        
    917 ****        25.0000   8.0000  -3.5000 Du        
    918 ****        25.0000   8.0000  -3.2500 Du        
    919 ****        25.0000   8.0000  -3.0000 Du        
    920 ****        25.0000   8.0000  -2.7500 Du        
    921 ****        25.0000   8.0000  -2.5000 Du        
    922 ****        25.0000   8.0000  -2.2500 Du        
    923 ****        25.0000   8.0000  -2.0000 Du        
    924 ****        25.0000   8.2500 -10.5000 Du        
    925 ****        25.0000   8.2500  -4.5000 Du        
    926 ****        25.0000   8.2500  -4.2500 Du        
    927 ****        25.0000   8.2500  -4.0000 Du        
    928 ****        25.0000   8.2500  -3.7500 Du        
    929 ****        25.0000   8.2500  -3.5000 Du        
    930 ****        25.0000   8.2500  -3.2500 Du        
    931 ****        25.0000   8.2500  -3.0000 Du        
    932 ****        25.0000   8.2500  -2.7500 Du        
    933 ****        25.0000   8.2500  -2.5000 Du        
    934 ****        25.0000   8.2500  -2.2500 Du        
    935 ****        25.0000   8.2500  -2.0000 Du        
    936 ****        25.0000   8.5000  -4.5000 Du        
    937 ****        25.0000   8.5000  -4.2500 Du        
    938 ****        25.0000   8.5000  -4.0000 Du        
    939 ****        25.0000   8.5000  -3.7500 Du        
    940 ****        25.0000   8.5000  -3.5000 Du        
    941 ****        25.0000   8.5000  -3.2500 Du        
    942 ****        25.0000   8.5000  -3.0000 Du        
    943 ****        25.0000   8.5000  -2.7500 Du        
    944 ****        25.0000   8.5000  -2.5000 Du        
    945 ****        25.0000   8.7500  -4.7500 Du        
    946 ****        25.0000   8.7500  -4.5000 Du        
    947 ****        25.0000   8.7500  -4.2500 Du        
    948 ****        25.0000   8.7500  -4.0000 Du        
    949 ****        25.0000   8.7500  -3.7500 Du        
    950 ****        25.0000   8.7500  -3.5000 Du        
    951 ****        25.0000   8.7500  -3.2500 Du        
    952 ****        25.0000   8.7500  -3.0000 Du        
    953 ****        25.0000   8.7500  -2.7500 Du        
    954 ****        25.0000   9.0000  -4.7500 Du        
    955 ****        25.0000   9.0000  -4.5000 Du        
    956 ****        25.0000   9.0000  -4.2500 Du        
    957 ****        25.0000   9.0000  -4.0000 Du        
    958 ****        25.0000   9.0000  -3.7500 Du        
    959 ****        25.0000   9.0000  -3.5000 Du        
    960 ****        25.0000   9.0000  -3.2500 Du        
    961 ****        25.0000   9.0000  -3.0000 Du        
    962 ****        25.0000   9.2500  -4.2500 Du        
    963 ****        25.0000   9.2500  -4.0000 Du        
    964 ****        25.0000   9.2500  -3.7500 Du        
    965 ****        25.0000   9.2500  -3.5000 Du        
    966 ****        25.0000   9.2500  -3.2500 Du        
    967 ****        25.2500   7.0000 -11.2500 Du        
    968 ****        25.2500   7.0000 -11.0000 Du        
    969 ****        25.2500   7.0000 -10.7500 Du        
    970 ****        25.2500   7.0000  -3.2500 Du        
    971 ****        25.2500   7.0000  -3.0000 Du        
    972 ****        25.2500   7.0000  -2.7500 Du        
    973 ****        25.2500   7.2500 -11.0000 Du        
    974 ****        25.2500   7.2500 -10.7500 Du        
    975 ****        25.2500   7.2500 -10.5000 Du        
    976 ****        25.2500   7.2500  -4.0000 Du        
    977 ****        25.2500   7.2500  -3.7500 Du        
    978 ****        25.2500   7.2500  -3.5000 Du        
    979 ****        25.2500   7.2500  -3.2500 Du        
    980 ****        25.2500   7.2500  -3.0000 Du        
    981 ****        25.2500   7.2500  -2.7500 Du        
    982 ****        25.2500   7.2500  -2.5000 Du        
    983 ****        25.2500   7.2500  -2.2500 Du        
    984 ****        25.2500   7.5000 -11.0000 Du        
    985 ****        25.2500   7.5000 -10.7500 Du        
    986 ****        25.2500   7.5000 -10.5000 Du        
    987 ****        25.2500   7.5000  -4.2500 Du        
    988 ****        25.2500   7.5000  -4.0000 Du        
    989 ****        25.2500   7.5000  -3.7500 Du        
    990 ****        25.2500   7.5000  -3.5000 Du        
    991 ****        25.2500   7.5000  -3.2500 Du        
    992 ****        25.2500   7.5000  -3.0000 Du        
    993 ****        25.2500   7.5000  -2.7500 Du        
    994 ****        25.2500   7.5000  -2.5000 Du        
    995 ****        25.2500   7.5000  -2.2500 Du        
    996 ****        25.2500   7.5000  -2.0000 Du        
    997 ****        25.2500   7.7500 -10.7500 Du        
    998 ****        25.2500   7.7500 -10.5000 Du        
    999 ****        25.2500   7.7500 -10.2500 Du        
   1000 ****        25.2500   7.7500  -4.2500 Du        
   1001 ****        25.2500   7.7500  -4.0000 Du        
   1002 ****        25.2500   7.7500  -3.7500 Du        
   1003 ****        25.2500   7.7500  -3.5000 Du        
   1004 ****        25.2500   7.7500  -3.2500 Du        
   1005 ****        25.2500   7.7500  -3.0000 Du        
   1006 ****        25.2500   7.7500  -2.7500 Du        
   1007 ****        25.2500   7.7500  -2.5000 Du        
   1008 ****        25.2500   7.7500  -2.2500 Du        
   1009 ****        25.2500   7.7500  -2.0000 Du        
   1010 ****        25.2500   7.7500  -1.7500 Du        
   1011 ****        25.2500   8.0000 -10.5000 Du        
   1012 ****        25.2500   8.0000 -10.2500 Du        
   1013 ****        25.2500   8.0000  -4.2500 Du        
   1014 ****        25.2500   8.0000  -4.0000 Du        
   1015 ****        25.2500   8.0000  -3.7500 Du        
   1016 ****        25.2500   8.0000  -3.5000 Du        
   1017 ****        25.2500   8.0000  -3.2500 Du        
   1018 ****        25.2500   8.0000  -3.0000 Du        
   1019 ****        25.2500   8.0000  -2.7500 Du        
   1020 ****        25.2500   8.0000  -2.5000 Du        
   1021 ****        25.2500   8.0000  -2.2500 Du        
   1022 ****        25.2500   8.0000  -2.0000 Du        
   1023 ****        25.2500   8.0000  -1.7500 Du        
   1024 ****        25.2500   8.2500 -10.5000 Du        
   1025 ****        25.2500   8.2500 -10.2500 Du        
   1026 ****        25.2500   8.2500  -4.5000 Du        
   1027 ****        25.2500   8.2500  -4.2500 Du        
   1028 ****        25.2500   8.2500  -4.0000 Du        
   1029 ****        25.2500   8.2500  -3.7500 Du        
   1030 ****        25.2500   8.2500  -3.5000 Du        
   1031 ****        25.2500   8.2500  -3.2500 Du        
   1032 ****        25.2500   8.2500  -3.0000 Du        
   1033 ****        25.2500   8.2500  -2.7500 Du        
   1034 ****        25.2500   8.2500  -2.5000 Du        
   1035 ****        25.2500   8.2500  -2.2500 Du        
   1036 ****        25.2500   8.2500  -2.0000 Du        
   1037 ****        25.2500   8.2500  -1.7500 Du        
   1038 ****        25.2500   8.5000  -4.5000 Du        
   1039 ****        25.2500   8.5000  -4.2500 Du        
   1040 ****        25.2500   8.5000  -4.0000 Du        
   1041 ****        25.2500   8.5000  -3.7500 Du        
   1042 ****        25.2500   8.5000  -3.5000 Du        
   1043 ****        25.2500   8.5000  -3.2500 Du        
   1044 ****        25.2500   8.5000  -3.0000 Du        
   1045 ****        25.2500   8.5000  -2.7500 Du        
   1046 ****        25.2500   8.5000  -2.5000 Du        
   1047 ****        25.2500   8.5000  -2.2500 Du        
   1048 ****        25.2500   8.5000  -2.0000 Du        
   1049 ****        25.2500   8.7500  -4.7500 Du        
   1050 ****        25.2500   8.7500  -4.5000 Du        
   1051 ****        25.2500   8.7500  -4.2500 Du        
   1052 ****        25.2500   8.7500  -4.0000 Du        
   1053 ****        25.2500   8.7500  -3.7500 Du        
   1054 ****        25.2500   8.7500  -3.5000 Du        
   1055 ****        25.2500   8.7500  -3.2500 Du        
   1056 ****        25.2500   8.7500  -3.0000 Du        
   1057 ****        25.2500   8.7500  -2.7500 Du        
   1058 ****        25.2500   8.7500  -2.5000 Du        
   1059 ****        25.2500   8.7500  -2.2500 Du        
   1060 ****        25.2500   8.7500  -2.0000 Du        
   1061 ****        25.2500   9.0000  -4.7500 Du        
   1062 ****        25.2500   9.0000  -4.5000 Du        
   1063 ****        25.2500   9.0000  -4.2500 Du        
   1064 ****        25.2500   9.0000  -4.0000 Du        
   1065 ****        25.2500   9.0000  -3.7500 Du        
   1066 ****        25.2500   9.0000  -3.5000 Du        
   1067 ****        25.2500   9.0000  -3.2500 Du        
   1068 ****        25.2500   9.0000  -3.0000 Du        
   1069 ****        25.2500   9.0000  -2.7500 Du        
   1070 ****        25.2500   9.0000  -2.5000 Du        
   1071 ****        25.2500   9.0000  -2.2500 Du        
   1072 ****        25.2500   9.2500  -4.7500 Du        
   1073 ****        25.2500   9.2500  -4.5000 Du        
   1074 ****        25.2500   9.2500  -4.2500 Du        
   1075 ****        25.2500   9.2500  -4.0000 Du        
   1076 ****        25.2500   9.2500  -3.7500 Du        
   1077 ****        25.2500   9.2500  -3.5000 Du        
   1078 ****        25.2500   9.2500  -3.2500 Du        
   1079 ****        25.2500   9.2500  -3.0000 Du        
   1080 ****        25.2500   9.2500  -2.7500 Du        
   1081 ****        25.2500   9.2500  -2.5000 Du        
   1082 ****        25.2500   9.5000  -4.2500 Du        
   1083 ****        25.2500   9.5000  -4.0000 Du        
   1084 ****        25.2500   9.5000  -3.7500 Du        
   1085 ****        25.2500   9.5000  -3.5000 Du        
   1086 ****        25.2500   9.5000  -3.2500 Du        
   1087 ****        25.2500   9.5000  -3.0000 Du        
   1088 ****        25.2500   9.5000  -2.7500 Du        
   1089 ****        25.2500   9.7500  -4.0000 Du        
   1090 ****        25.2500   9.7500  -3.7500 Du        
   1091 ****        25.2500   9.7500  -3.5000 Du        
   1092 ****        25.2500   9.7500  -3.2500 Du        
   1093 ****        25.2500   9.7500  -3.0000 Du        
   1094 ****        25.2500  10.0000  -3.5000 Du        
   1095 ****        25.2500  10.0000  -3.2500 Du        
   1096 ****        25.2500  10.0000  -3.0000 Du        
   1097 ****        25.5000   7.0000 -11.0000 Du        
   1098 ****        25.5000   7.0000 -10.7500 Du        
   1099 ****        25.5000   7.0000  -3.2500 Du        
   1100 ****        25.5000   7.0000  -3.0000 Du        
   1101 ****        25.5000   7.2500 -11.0000 Du        
   1102 ****        25.5000   7.2500 -10.7500 Du        
   1103 ****        25.5000   7.2500 -10.5000 Du        
   1104 ****        25.5000   7.2500  -3.7500 Du        
   1105 ****        25.5000   7.2500  -3.5000 Du        
   1106 ****        25.5000   7.2500  -3.2500 Du        
   1107 ****        25.5000   7.2500  -3.0000 Du        
   1108 ****        25.5000   7.2500  -2.7500 Du        
   1109 ****        25.5000   7.2500  -2.5000 Du        
   1110 ****        25.5000   7.5000 -11.0000 Du        
   1111 ****        25.5000   7.5000 -10.7500 Du        
   1112 ****        25.5000   7.5000 -10.5000 Du        
   1113 ****        25.5000   7.5000 -10.2500 Du        
   1114 ****        25.5000   7.5000  -4.0000 Du        
   1115 ****        25.5000   7.5000  -3.7500 Du        
   1116 ****        25.5000   7.5000  -3.5000 Du        
   1117 ****        25.5000   7.5000  -3.2500 Du        
   1118 ****        25.5000   7.5000  -3.0000 Du        
   1119 ****        25.5000   7.5000  -2.7500 Du        
   1120 ****        25.5000   7.5000  -2.5000 Du        
   1121 ****        25.5000   7.5000  -2.2500 Du        
   1122 ****        25.5000   7.7500 -10.7500 Du        
   1123 ****        25.5000   7.7500 -10.5000 Du        
   1124 ****        25.5000   7.7500 -10.2500 Du        
   1125 ****        25.5000   7.7500  -4.2500 Du        
   1126 ****        25.5000   7.7500  -4.0000 Du        
   1127 ****        25.5000   7.7500  -3.7500 Du        
   1128 ****        25.5000   7.7500  -3.5000 Du        
   1129 ****        25.5000   7.7500  -3.2500 Du        
   1130 ****        25.5000   7.7500  -3.0000 Du        
   1131 ****        25.5000   7.7500  -2.7500 Du        
   1132 ****        25.5000   7.7500  -2.5000 Du        
   1133 ****        25.5000   7.7500  -2.2500 Du        
   1134 ****        25.5000   7.7500  -2.0000 Du        
   1135 ****        25.5000   8.0000 -10.5000 Du        
   1136 ****        25.5000   8.0000 -10.2500 Du        
   1137 ****        25.5000   8.0000  -4.2500 Du        
   1138 ****        25.5000   8.0000  -4.0000 Du        
   1139 ****        25.5000   8.0000  -3.7500 Du        
   1140 ****        25.5000   8.0000  -3.5000 Du        
   1141 ****        25.5000   8.0000  -3.2500 Du        
   1142 ****        25.5000   8.0000  -3.0000 Du        
   1143 ****        25.5000   8.0000  -2.7500 Du        
   1144 ****        25.5000   8.0000  -2.5000 Du        
   1145 ****        25.5000   8.0000  -2.2500 Du        
   1146 ****        25.5000   8.0000  -2.0000 Du        
   1147 ****        25.5000   8.0000  -1.7500 Du        
   1148 ****        25.5000   8.2500 -10.5000 Du        
   1149 ****        25.5000   8.2500 -10.2500 Du        
   1150 ****        25.5000   8.2500 -10.0000 Du        
   1151 ****        25.5000   8.2500  -4.5000 Du        
   1152 ****        25.5000   8.2500  -4.2500 Du        
   1153 ****        25.5000   8.2500  -4.0000 Du        
   1154 ****        25.5000   8.2500  -3.7500 Du        
   1155 ****        25.5000   8.2500  -3.5000 Du        
   1156 ****        25.5000   8.2500  -3.2500 Du        
   1157 ****        25.5000   8.2500  -3.0000 Du        
   1158 ****        25.5000   8.2500  -2.7500 Du        
   1159 ****        25.5000   8.2500  -2.5000 Du        
   1160 ****        25.5000   8.2500  -2.2500 Du        
   1161 ****        25.5000   8.2500  -2.0000 Du        
   1162 ****        25.5000   8.2500  -1.7500 Du        
   1163 ****        25.5000   8.5000 -10.2500 Du        
   1164 ****        25.5000   8.5000  -4.5000 Du        
   1165 ****        25.5000   8.5000  -4.2500 Du        
   1166 ****        25.5000   8.5000  -4.0000 Du        
   1167 ****        25.5000   8.5000  -3.7500 Du        
   1168 ****        25.5000   8.5000  -3.5000 Du        
   1169 ****        25.5000   8.5000  -3.2500 Du        
   1170 ****        25.5000   8.5000  -3.0000 Du        
   1171 ****        25.5000   8.5000  -2.7500 Du        
   1172 ****        25.5000   8.5000  -2.5000 Du        
   1173 ****        25.5000   8.5000  -2.2500 Du        
   1174 ****        25.5000   8.5000  -2.0000 Du        
   1175 ****        25.5000   8.5000  -1.7500 Du        
   1176 ****        25.5000   8.7500  -4.7500 Du        
   1177 ****        25.5000   8.7500  -4.5000 Du        
   1178 ****        25.5000   8.7500  -4.2500 Du        
   1179 ****        25.5000   8.7500  -4.0000 Du        
   1180 ****        25.5000   8.7500  -3.7500 Du        
   1181 ****        25.5000   8.7500  -3.5000 Du        
   1182 ****        25.5000   8.7500  -3.2500 Du        
   1183 ****        25.5000   8.7500  -3.0000 Du        
   1184 ****        25.5000   8.7500  -2.7500 Du        
   1185 ****        25.5000   8.7500  -2.5000 Du        
   1186 ****        25.5000   8.7500  -2.2500 Du        
   1187 ****        25.5000   8.7500  -2.0000 Du        
   1188 ****        25.5000   8.7500  -1.7500 Du        
   1189 ****        25.5000   9.0000  -4.7500 Du        
   1190 ****        25.5000   9.0000  -4.5000 Du        
   1191 ****        25.5000   9.0000  -4.2500 Du        
   1192 ****        25.5000   9.0000  -4.0000 Du        
   1193 ****        25.5000   9.0000  -3.7500 Du        
   1194 ****        25.5000   9.0000  -3.5000 Du        
   1195 ****        25.5000   9.0000  -3.2500 Du        
   1196 ****        25.5000   9.0000  -3.0000 Du        
   1197 ****        25.5000   9.0000  -2.7500 Du        
   1198 ****        25.5000   9.0000  -2.5000 Du        
   1199 ****        25.5000   9.0000  -2.2500 Du        
   1200 ****        25.5000   9.0000  -2.0000 Du        
   1201 ****        25.5000   9.0000  -1.7500 Du        
   1202 ****        25.5000   9.0000  -1.5000 Du        
   1203 ****        25.5000   9.2500  -4.7500 Du        
   1204 ****        25.5000   9.2500  -4.5000 Du        
   1205 ****        25.5000   9.2500  -4.2500 Du        
   1206 ****        25.5000   9.2500  -4.0000 Du        
   1207 ****        25.5000   9.2500  -3.7500 Du        
   1208 ****        25.5000   9.2500  -3.5000 Du        
   1209 ****        25.5000   9.2500  -3.2500 Du        
   1210 ****        25.5000   9.2500  -3.0000 Du        
   1211 ****        25.5000   9.2500  -2.7500 Du        
   1212 ****        25.5000   9.2500  -2.5000 Du        
   1213 ****        25.5000   9.2500  -2.2500 Du        
   1214 ****        25.5000   9.2500  -2.0000 Du        
   1215 ****        25.5000   9.2500  -1.7500 Du        
   1216 ****        25.5000   9.5000  -4.5000 Du        
   1217 ****        25.5000   9.5000  -4.2500 Du        
   1218 ****        25.5000   9.5000  -4.0000 Du        
   1219 ****        25.5000   9.5000  -3.7500 Du        
   1220 ****        25.5000   9.5000  -3.5000 Du        
   1221 ****        25.5000   9.5000  -3.2500 Du        
   1222 ****        25.5000   9.5000  -3.0000 Du        
   1223 ****        25.5000   9.5000  -2.7500 Du        
   1224 ****        25.5000   9.5000  -2.5000 Du        
   1225 ****        25.5000   9.5000  -2.2500 Du        
   1226 ****        25.5000   9.5000  -2.0000 Du        
   1227 ****        25.5000   9.5000  -1.7500 Du        
   1228 ****        25.5000   9.7500  -4.2500 Du        
   1229 ****        25.5000   9.7500  -4.0000 Du        
   1230 ****        25.5000   9.7500  -3.7500 Du        
   1231 ****        25.5000   9.7500  -3.5000 Du        
   1232 ****        25.5000   9.7500  -3.2500 Du        
   1233 ****        25.5000   9.7500  -3.0000 Du        
   1234 ****        25.5000   9.7500  -2.7500 Du        
   1235 ****        25.5000   9.7500  -2.5000 Du        
   1236 ****        25.5000   9.7500  -2.2500 Du        
   1237 ****        25.5000   9.7500  -2.0000 Du        
   1238 ****        25.5000   9.7500  -1.7500 Du        
   1239 ****        25.5000  10.0000  -4.0000 Du        
   1240 ****        25.5000  10.0000  -3.7500 Du        
   1241 ****        25.5000  10.0000  -3.5000 Du        
   1242 ****        25.5000  10.0000  -3.2500 Du        
   1243 ****        25.5000  10.0000  -3.0000 Du        
   1244 ****        25.5000  10.0000  -2.7500 Du        
   1245 ****        25.5000  10.0000  -2.5000 Du        
   1246 ****        25.5000  10.0000  -2.2500 Du        
   1247 ****        25.5000  10.0000  -2.0000 Du        
   1248 ****        25.5000  10.0000  -1.7500 Du        
   1249 ****        25.5000  10.2500  -3.7500 Du        
   1250 ****        25.5000  10.2500  -3.5000 Du        
   1251 ****        25.5000  10.2500  -3.2500 Du        
   1252 ****        25.5000  10.2500  -3.0000 Du        
   1253 ****        25.5000  10.2500  -2.7500 Du        
   1254 ****        25.5000  10.2500  -2.5000 Du        
   1255 ****        25.5000  10.2500  -2.2500 Du        
   1256 ****        25.5000  10.2500  -2.0000 Du        
   1257 ****        25.5000  10.5000  -3.5000 Du        
   1258 ****        25.5000  10.5000  -3.2500 Du        
   1259 ****        25.5000  10.5000  -3.0000 Du        
   1260 ****        25.5000  10.5000  -2.7500 Du        
   1261 ****        25.5000  10.7500  -0.2500 Du        
   1262 ****        25.5000  10.7500   0.0000 Du        
   1263 ****        25.5000  10.7500   0.2500 Du        
   1264 ****        25.5000  11.0000  -0.2500 Du        
   1265 ****        25.5000  11.0000   0.0000 Du        
   1266 ****        25.7500   7.0000 -11.0000 Du        
   1267 ****        25.7500   7.0000 -10.7500 Du        
   1268 ****        25.7500   7.0000  -3.2500 Du        
   1269 ****        25.7500   7.0000  -3.0000 Du        
   1270 ****        25.7500   7.2500 -11.0000 Du        
   1271 ****        25.7500   7.2500 -10.7500 Du        
   1272 ****        25.7500   7.2500 -10.5000 Du        
   1273 ****        25.7500   7.2500  -4.0000 Du        
   1274 ****        25.7500   7.2500  -3.7500 Du        
   1275 ****        25.7500   7.2500  -3.5000 Du        
   1276 ****        25.7500   7.2500  -3.2500 Du        
   1277 ****        25.7500   7.2500  -3.0000 Du        
   1278 ****        25.7500   7.2500  -2.7500 Du        
   1279 ****        25.7500   7.2500  -2.5000 Du        
   1280 ****        25.7500   7.5000 -10.7500 Du        
   1281 ****        25.7500   7.5000 -10.5000 Du        
   1282 ****        25.7500   7.5000  -4.0000 Du        
   1283 ****        25.7500   7.5000  -3.7500 Du        
   1284 ****        25.7500   7.5000  -3.5000 Du        
   1285 ****        25.7500   7.5000  -3.2500 Du        
   1286 ****        25.7500   7.5000  -3.0000 Du        
   1287 ****        25.7500   7.5000  -2.7500 Du        
   1288 ****        25.7500   7.5000  -2.5000 Du        
   1289 ****        25.7500   7.5000  -2.2500 Du        
   1290 ****        25.7500   7.7500 -10.7500 Du        
   1291 ****        25.7500   7.7500 -10.5000 Du        
   1292 ****        25.7500   7.7500 -10.2500 Du        
   1293 ****        25.7500   7.7500  -4.2500 Du        
   1294 ****        25.7500   7.7500  -4.0000 Du        
   1295 ****        25.7500   7.7500  -3.7500 Du        
   1296 ****        25.7500   7.7500  -3.5000 Du        
   1297 ****        25.7500   7.7500  -3.2500 Du        
   1298 ****        25.7500   7.7500  -3.0000 Du        
   1299 ****        25.7500   7.7500  -2.7500 Du        
   1300 ****        25.7500   7.7500  -2.5000 Du        
   1301 ****        25.7500   7.7500  -2.2500 Du        
   1302 ****        25.7500   8.0000 -10.5000 Du        
   1303 ****        25.7500   8.0000 -10.2500 Du        
   1304 ****        25.7500   8.0000  -4.2500 Du        
   1305 ****        25.7500   8.0000  -4.0000 Du        
   1306 ****        25.7500   8.0000  -3.7500 Du        
   1307 ****        25.7500   8.0000  -3.5000 Du        
   1308 ****        25.7500   8.0000  -3.2500 Du        
   1309 ****        25.7500   8.0000  -3.0000 Du        
   1310 ****        25.7500   8.0000  -2.7500 Du        
   1311 ****        25.7500   8.0000  -2.5000 Du        
   1312 ****        25.7500   8.0000  -2.2500 Du        
   1313 ****        25.7500   8.0000  -2.0000 Du        
   1314 ****        25.7500   8.2500 -10.2500 Du        
   1315 ****        25.7500   8.2500 -10.0000 Du        
   1316 ****        25.7500   8.2500  -4.5000 Du        
   1317 ****        25.7500   8.2500  -4.2500 Du        
   1318 ****        25.7500   8.2500  -4.0000 Du        
   1319 ****        25.7500   8.2500  -3.7500 Du        
   1320 ****        25.7500   8.2500  -3.5000 Du        
   1321 ****        25.7500   8.2500  -3.2500 Du        
   1322 ****        25.7500   8.2500  -3.0000 Du        
   1323 ****        25.7500   8.2500  -2.7500 Du        
   1324 ****        25.7500   8.2500  -2.5000 Du        
   1325 ****        25.7500   8.2500  -2.2500 Du        
   1326 ****        25.7500   8.2500  -2.0000 Du        
   1327 ****        25.7500   8.2500  -1.7500 Du        
   1328 ****        25.7500   8.5000  -4.5000 Du        
   1329 ****        25.7500   8.5000  -4.2500 Du        
   1330 ****        25.7500   8.5000  -4.0000 Du        
   1331 ****        25.7500   8.5000  -3.7500 Du        
   1332 ****        25.7500   8.5000  -3.5000 Du        
   1333 ****        25.7500   8.5000  -3.2500 Du        
   1334 ****        25.7500   8.5000  -3.0000 Du        
   1335 ****        25.7500   8.5000  -2.7500 Du        
   1336 ****        25.7500   8.5000  -2.5000 Du        
   1337 ****        25.7500   8.5000  -2.2500 Du        
   1338 ****        25.7500   8.5000  -2.0000 Du        
   1339 ****        25.7500   8.5000  -1.7500 Du        
   1340 ****        25.7500   8.7500  -4.7500 Du        
   1341 ****        25.7500   8.7500  -4.5000 Du        
   1342 ****        25.7500   8.7500  -4.2500 Du        
   1343 ****        25.7500   8.7500  -4.0000 Du        
   1344 ****        25.7500   8.7500  -3.7500 Du        
   1345 ****        25.7500   8.7500  -3.5000 Du        
   1346 ****        25.7500   8.7500  -3.2500 Du        
   1347 ****        25.7500   8.7500  -3.0000 Du        
   1348 ****        25.7500   8.7500  -2.7500 Du        
   1349 ****        25.7500   8.7500  -2.5000 Du        
   1350 ****        25.7500   8.7500  -2.2500 Du        
   1351 ****        25.7500   8.7500  -2.0000 Du        
   1352 ****        25.7500   8.7500  -1.7500 Du        
   1353 ****        25.7500   8.7500  -1.5000 Du        
   1354 ****        25.7500   9.0000  -4.7500 Du        
   1355 ****        25.7500   9.0000  -4.5000 Du        
   1356 ****        25.7500   9.0000  -4.2500 Du        
   1357 ****        25.7500   9.0000  -4.0000 Du        
   1358 ****        25.7500   9.0000  -3.7500 Du        
   1359 ****        25.7500   9.0000  -3.5000 Du        
   1360 ****        25.7500   9.0000  -3.2500 Du        
   1361 ****        25.7500   9.0000  -3.0000 Du        
   1362 ****        25.7500   9.0000  -2.7500 Du        
   1363 ****        25.7500   9.0000  -2.5000 Du        
   1364 ****        25.7500   9.0000  -2.2500 Du        
   1365 ****        25.7500   9.0000  -2.0000 Du        
   1366 ****        25.7500   9.0000  -1.7500 Du        
   1367 ****        25.7500   9.0000  -1.5000 Du        
   1368 ****        25.7500   9.0000  -1.2500 Du        
   1369 ****        25.7500   9.2500  -4.7500 Du        
   1370 ****        25.7500   9.2500  -4.5000 Du        
   1371 ****        25.7500   9.2500  -4.2500 Du        
   1372 ****        25.7500   9.2500  -4.0000 Du        
   1373 ****        25.7500   9.2500  -3.7500 Du        
   1374 ****        25.7500   9.2500  -3.5000 Du        
   1375 ****        25.7500   9.2500  -3.2500 Du        
   1376 ****        25.7500   9.2500  -3.0000 Du        
   1377 ****        25.7500   9.2500  -2.7500 Du        
   1378 ****        25.7500   9.2500  -2.5000 Du        
   1379 ****        25.7500   9.2500  -2.2500 Du        
   1380 ****        25.7500   9.2500  -2.0000 Du        
   1381 ****        25.7500   9.2500  -1.7500 Du        
   1382 ****        25.7500   9.2500  -1.5000 Du        
   1383 ****        25.7500   9.2500  -1.2500 Du        
   1384 ****        25.7500   9.5000  -4.7500 Du        
   1385 ****        25.7500   9.5000  -4.5000 Du        
   1386 ****        25.7500   9.5000  -4.2500 Du        
   1387 ****        25.7500   9.5000  -4.0000 Du        
   1388 ****        25.7500   9.5000  -3.7500 Du        
   1389 ****        25.7500   9.5000  -3.5000 Du        
   1390 ****        25.7500   9.5000  -3.2500 Du        
   1391 ****        25.7500   9.5000  -3.0000 Du        
   1392 ****        25.7500   9.5000  -2.7500 Du        
   1393 ****        25.7500   9.5000  -2.5000 Du        
   1394 ****        25.7500   9.5000  -2.2500 Du        
   1395 ****        25.7500   9.5000  -2.0000 Du        
   1396 ****        25.7500   9.5000  -1.7500 Du        
   1397 ****        25.7500   9.5000  -1.5000 Du        
   1398 ****        25.7500   9.5000  -1.2500 Du        
   1399 ****        25.7500   9.5000  -1.0000 Du        
   1400 ****        25.7500   9.7500  -4.5000 Du        
   1401 ****        25.7500   9.7500  -4.2500 Du        
   1402 ****        25.7500   9.7500  -4.0000 Du        
   1403 ****        25.7500   9.7500  -3.7500 Du        
   1404 ****        25.7500   9.7500  -3.5000 Du        
   1405 ****        25.7500   9.7500  -3.2500 Du        
   1406 ****        25.7500   9.7500  -3.0000 Du        
   1407 ****        25.7500   9.7500  -2.7500 Du        
   1408 ****        25.7500   9.7500  -2.5000 Du        
   1409 ****        25.7500   9.7500  -2.2500 Du        
   1410 ****        25.7500   9.7500  -2.0000 Du        
   1411 ****        25.7500   9.7500  -1.7500 Du        
   1412 ****        25.7500   9.7500  -1.5000 Du        
   1413 ****        25.7500   9.7500  -1.2500 Du        
   1414 ****        25.7500   9.7500  -1.0000 Du        
   1415 ****        25.7500   9.7500  -0.7500 Du        
   1416 ****        25.7500   9.7500  -0.5000 Du        
   1417 ****        25.7500  10.0000  -4.2500 Du        
   1418 ****        25.7500  10.0000  -4.0000 Du        
   1419 ****        25.7500  10.0000  -3.7500 Du        
   1420 ****        25.7500  10.0000  -3.5000 Du        
   1421 ****        25.7500  10.0000  -3.2500 Du        
   1422 ****        25.7500  10.0000  -3.0000 Du        
   1423 ****        25.7500  10.0000  -2.7500 Du        
   1424 ****        25.7500  10.0000  -2.5000 Du        
   1425 ****        25.7500  10.0000  -2.2500 Du        
   1426 ****        25.7500  10.0000  -2.0000 Du        
   1427 ****        25.7500  10.0000  -1.7500 Du        
   1428 ****        25.7500  10.0000  -1.5000 Du        
   1429 ****        25.7500  10.0000  -1.2500 Du        
   1430 ****        25.7500  10.0000  -1.0000 Du        
   1431 ****        25.7500  10.0000  -0.7500 Du        
   1432 ****        25.7500  10.0000  -0.5000 Du        
   1433 ****        25.7500  10.0000  -0.2500 Du        
   1434 ****        25.7500  10.0000   0.0000 Du        
   1435 ****        25.7500  10.2500  -4.0000 Du        
   1436 ****        25.7500  10.2500  -3.7500 Du        
   1437 ****        25.7500  10.2500  -3.5000 Du        
   1438 ****        25.7500  10.2500  -3.2500 Du        
   1439 ****        25.7500  10.2500  -3.0000 Du        
   1440 ****        25.7500  10.2500  -2.7500 Du        
   1441 ****        25.7500  10.2500  -2.5000 Du        
   1442 ****        25.7500  10.2500  -2.2500 Du        
   1443 ****        25.7500  10.2500  -2.0000 Du        
   1444 ****        25.7500  10.2500  -1.7500 Du        
   1445 ****        25.7500  10.2500  -1.5000 Du        
   1446 ****        25.7500  10.2500  -1.2500 Du        
   1447 ****        25.7500  10.2500  -1.0000 Du        
   1448 ****        25.7500  10.2500  -0.7500 Du        
   1449 ****        25.7500  10.2500  -0.5000 Du        
   1450 ****        25.7500  10.2500  -0.2500 Du        
   1451 ****        25.7500  10.2500   0.0000 Du        
   1452 ****        25.7500  10.2500   0.2500 Du        
   1453 ****        25.7500  10.5000  -3.7500 Du        
   1454 ****        25.7500  10.5000  -3.5000 Du        
   1455 ****        25.7500  10.5000  -3.2500 Du        
   1456 ****        25.7500  10.5000  -3.0000 Du        
   1457 ****        25.7500  10.5000  -2.7500 Du        
   1458 ****        25.7500  10.5000  -2.5000 Du        
   1459 ****        25.7500  10.5000  -1.0000 Du        
   1460 ****        25.7500  10.5000  -0.7500 Du        
   1461 ****        25.7500  10.5000  -0.5000 Du        
   1462 ****        25.7500  10.5000  -0.2500 Du        
   1463 ****        25.7500  10.5000   0.0000 Du        
   1464 ****        25.7500  10.5000   0.2500 Du        
   1465 ****        25.7500  10.7500  -3.5000 Du        
   1466 ****        25.7500  10.7500  -3.2500 Du        
   1467 ****        25.7500  10.7500  -0.5000 Du        
   1468 ****        25.7500  10.7500  -0.2500 Du        
   1469 ****        25.7500  10.7500   0.0000 Du        
   1470 ****        25.7500  10.7500   0.2500 Du        
   1471 ****        25.7500  11.0000  -0.2500 Du        
   1472 ****        25.7500  11.0000   0.0000 Du        
   1473 ****        26.0000   7.0000 -10.7500 Du        
   1474 ****        26.0000   7.2500 -11.0000 Du        
   1475 ****        26.0000   7.2500 -10.7500 Du        
   1476 ****        26.0000   7.2500 -10.5000 Du        
   1477 ****        26.0000   7.2500  -4.0000 Du        
   1478 ****        26.0000   7.2500  -3.7500 Du        
   1479 ****        26.0000   7.2500  -3.5000 Du        
   1480 ****        26.0000   7.2500  -3.2500 Du        
   1481 ****        26.0000   7.2500  -3.0000 Du        
   1482 ****        26.0000   7.2500  -2.7500 Du        
   1483 ****        26.0000   7.5000 -10.7500 Du        
   1484 ****        26.0000   7.5000 -10.5000 Du        
   1485 ****        26.0000   7.5000  -4.2500 Du        
   1486 ****        26.0000   7.5000  -4.0000 Du        
   1487 ****        26.0000   7.5000  -3.7500 Du        
   1488 ****        26.0000   7.5000  -3.5000 Du        
   1489 ****        26.0000   7.5000  -3.2500 Du        
   1490 ****        26.0000   7.5000  -3.0000 Du        
   1491 ****        26.0000   7.5000  -2.7500 Du        
   1492 ****        26.0000   7.7500 -10.5000 Du        
   1493 ****        26.0000   7.7500 -10.2500 Du        
   1494 ****        26.0000   7.7500  -4.2500 Du        
   1495 ****        26.0000   7.7500  -4.0000 Du        
   1496 ****        26.0000   7.7500  -3.7500 Du        
   1497 ****        26.0000   7.7500  -3.5000 Du        
   1498 ****        26.0000   7.7500  -3.2500 Du        
   1499 ****        26.0000   7.7500  -3.0000 Du        
   1500 ****        26.0000   7.7500  -2.7500 Du        
   1501 ****        26.0000   7.7500  -2.5000 Du        
   1502 ****        26.0000   8.0000 -10.2500 Du        
   1503 ****        26.0000   8.0000  -4.5000 Du        
   1504 ****        26.0000   8.0000  -4.2500 Du        
   1505 ****        26.0000   8.0000  -4.0000 Du        
   1506 ****        26.0000   8.0000  -3.7500 Du        
   1507 ****        26.0000   8.0000  -3.5000 Du        
   1508 ****        26.0000   8.0000  -3.2500 Du        
   1509 ****        26.0000   8.0000  -3.0000 Du        
   1510 ****        26.0000   8.0000  -2.7500 Du        
   1511 ****        26.0000   8.0000  -2.5000 Du        
   1512 ****        26.0000   8.0000  -2.2500 Du        
   1513 ****        26.0000   8.2500  -4.5000 Du        
   1514 ****        26.0000   8.2500  -4.2500 Du        
   1515 ****        26.0000   8.2500  -4.0000 Du        
   1516 ****        26.0000   8.2500  -3.7500 Du        
   1517 ****        26.0000   8.2500  -3.5000 Du        
   1518 ****        26.0000   8.2500  -3.2500 Du        
   1519 ****        26.0000   8.2500  -3.0000 Du        
   1520 ****        26.0000   8.2500  -2.7500 Du        
   1521 ****        26.0000   8.2500  -2.5000 Du        
   1522 ****        26.0000   8.2500  -2.2500 Du        
   1523 ****        26.0000   8.2500  -2.0000 Du        
   1524 ****        26.0000   8.5000  -4.5000 Du        
   1525 ****        26.0000   8.5000  -4.2500 Du        
   1526 ****        26.0000   8.5000  -4.0000 Du        
   1527 ****        26.0000   8.5000  -3.7500 Du        
   1528 ****        26.0000   8.5000  -3.5000 Du        
   1529 ****        26.0000   8.5000  -3.2500 Du        
   1530 ****        26.0000   8.5000  -3.0000 Du        
   1531 ****        26.0000   8.5000  -2.7500 Du        
   1532 ****        26.0000   8.5000  -2.5000 Du        
   1533 ****        26.0000   8.5000  -2.2500 Du        
   1534 ****        26.0000   8.5000  -2.0000 Du        
   1535 ****        26.0000   8.7500  -4.7500 Du        
   1536 ****        26.0000   8.7500  -4.5000 Du        
   1537 ****        26.0000   8.7500  -4.2500 Du        
   1538 ****        26.0000   8.7500  -4.0000 Du        
   1539 ****        26.0000   8.7500  -3.7500 Du        
   1540 ****        26.0000   8.7500  -3.5000 Du        
   1541 ****        26.0000   8.7500  -3.2500 Du        
   1542 ****        26.0000   8.7500  -3.0000 Du        
   1543 ****        26.0000   8.7500  -2.7500 Du        
   1544 ****        26.0000   8.7500  -2.5000 Du        
   1545 ****        26.0000   8.7500  -2.2500 Du        
   1546 ****        26.0000   8.7500  -2.0000 Du        
   1547 ****        26.0000   8.7500  -1.7500 Du        
   1548 ****        26.0000   8.7500  -1.5000 Du        
   1549 ****        26.0000   9.0000  -5.0000 Du        
   1550 ****        26.0000   9.0000  -4.7500 Du        
   1551 ****        26.0000   9.0000  -4.5000 Du        
   1552 ****        26.0000   9.0000  -4.2500 Du        
   1553 ****        26.0000   9.0000  -4.0000 Du        
   1554 ****        26.0000   9.0000  -3.7500 Du        
   1555 ****        26.0000   9.0000  -3.5000 Du        
   1556 ****        26.0000   9.0000  -3.2500 Du        
   1557 ****        26.0000   9.0000  -3.0000 Du        
   1558 ****        26.0000   9.0000  -2.7500 Du        
   1559 ****        26.0000   9.0000  -2.5000 Du        
   1560 ****        26.0000   9.0000  -2.2500 Du        
   1561 ****        26.0000   9.0000  -2.0000 Du        
   1562 ****        26.0000   9.0000  -1.7500 Du        
   1563 ****        26.0000   9.0000  -1.5000 Du        
   1564 ****        26.0000   9.0000  -1.2500 Du        
   1565 ****        26.0000   9.2500  -5.0000 Du        
   1566 ****        26.0000   9.2500  -4.7500 Du        
   1567 ****        26.0000   9.2500  -4.5000 Du        
   1568 ****        26.0000   9.2500  -4.2500 Du        
   1569 ****        26.0000   9.2500  -4.0000 Du        
   1570 ****        26.0000   9.2500  -3.7500 Du        
   1571 ****        26.0000   9.2500  -3.5000 Du        
   1572 ****        26.0000   9.2500  -3.2500 Du        
   1573 ****        26.0000   9.2500  -3.0000 Du        
   1574 ****        26.0000   9.2500  -2.7500 Du        
   1575 ****        26.0000   9.2500  -2.5000 Du        
   1576 ****        26.0000   9.2500  -2.2500 Du        
   1577 ****        26.0000   9.2500  -2.0000 Du        
   1578 ****        26.0000   9.2500  -1.7500 Du        
   1579 ****        26.0000   9.2500  -1.5000 Du        
   1580 ****        26.0000   9.2500  -1.2500 Du        
   1581 ****        26.0000   9.2500  -1.0000 Du        
   1582 ****        26.0000   9.5000  -4.7500 Du        
   1583 ****        26.0000   9.5000  -4.5000 Du        
   1584 ****        26.0000   9.5000  -4.2500 Du        
   1585 ****        26.0000   9.5000  -4.0000 Du        
   1586 ****        26.0000   9.5000  -3.7500 Du        
   1587 ****        26.0000   9.5000  -3.5000 Du        
   1588 ****        26.0000   9.5000  -3.2500 Du        
   1589 ****        26.0000   9.5000  -3.0000 Du        
   1590 ****        26.0000   9.5000  -2.7500 Du        
   1591 ****        26.0000   9.5000  -2.5000 Du        
   1592 ****        26.0000   9.5000  -2.2500 Du        
   1593 ****        26.0000   9.5000  -2.0000 Du        
   1594 ****        26.0000   9.5000  -1.7500 Du        
   1595 ****        26.0000   9.5000  -1.5000 Du        
   1596 ****        26.0000   9.5000  -1.2500 Du        
   1597 ****        26.0000   9.5000  -1.0000 Du        
   1598 ****        26.0000   9.5000  -0.7500 Du        
   1599 ****        26.0000   9.7500  -4.5000 Du        
   1600 ****        26.0000   9.7500  -4.2500 Du        
   1601 ****        26.0000   9.7500  -4.0000 Du        
   1602 ****        26.0000   9.7500  -3.7500 Du        
   1603 ****        26.0000   9.7500  -3.5000 Du        
   1604 ****        26.0000   9.7500  -3.2500 Du        
   1605 ****        26.0000   9.7500  -3.0000 Du        
   1606 ****        26.0000   9.7500  -2.7500 Du        
   1607 ****        26.0000   9.7500  -2.5000 Du        
   1608 ****        26.0000   9.7500  -2.2500 Du        
   1609 ****        26.0000   9.7500  -2.0000 Du        
   1610 ****        26.0000   9.7500  -1.7500 Du        
   1611 ****        26.0000   9.7500  -1.5000 Du        
   1612 ****        26.0000   9.7500  -1.2500 Du        
   1613 ****        26.0000   9.7500  -1.0000 Du        
   1614 ****        26.0000   9.7500  -0.7500 Du        
   1615 ****        26.0000   9.7500  -0.5000 Du        
   1616 ****        26.0000   9.7500  -0.2500 Du        
   1617 ****        26.0000  10.0000  -4.5000 Du        
   1618 ****        26.0000  10.0000  -4.2500 Du        
   1619 ****        26.0000  10.0000  -4.0000 Du        
   1620 ****        26.0000  10.0000  -3.7500 Du        
   1621 ****        26.0000  10.0000  -3.5000 Du        
   1622 ****        26.0000  10.0000  -3.2500 Du        
   1623 ****        26.0000  10.0000  -3.0000 Du        
   1624 ****        26.0000  10.0000  -2.7500 Du        
   1625 ****        26.0000  10.0000  -2.5000 Du        
   1626 ****        26.0000  10.0000  -2.2500 Du        
   1627 ****        26.0000  10.0000  -2.0000 Du        
   1628 ****        26.0000  10.0000  -1.7500 Du        
   1629 ****        26.0000  10.0000  -1.5000 Du        
   1630 ****        26.0000  10.0000  -1.2500 Du        
   1631 ****        26.0000  10.0000  -1.0000 Du        
   1632 ****        26.0000  10.0000  -0.7500 Du        
   1633 ****        26.0000  10.0000  -0.5000 Du        
   1634 ****        26.0000  10.0000  -0.2500 Du        
   1635 ****        26.0000  10.0000   0.0000 Du        
   1636 ****        26.0000  10.0000   0.2500 Du        
   1637 ****        26.0000  10.2500  -4.2500 Du        
   1638 ****        26.0000  10.2500  -4.0000 Du        
   1639 ****        26.0000  10.2500  -3.7500 Du        
   1640 ****        26.0000  10.2500  -3.5000 Du        
   1641 ****        26.0000  10.2500  -3.2500 Du        
   1642 ****        26.0000  10.2500  -3.0000 Du        
   1643 ****        26.0000  10.2500  -2.7500 Du        
   1644 ****        26.0000  10.2500  -2.5000 Du        
   1645 ****        26.0000  10.2500  -2.2500 Du        
   1646 ****        26.0000  10.2500  -2.0000 Du        
   1647 ****        26.0000  10.2500  -1.7500 Du        
   1648 ****        26.0000  10.2500  -1.5000 Du        
   1649 ****        26.0000  10.2500  -1.2500 Du        
   1650 ****        26.0000  10.2500  -1.0000 Du        
   1651 ****        26.0000  10.2500  -0.7500 Du        
   1652 ****        26.0000  10.2500  -0.5000 Du        
   1653 ****        26.0000  10.2500  -0.2500 Du        
   1654 ****        26.0000  10.2500   0.0000 Du        
   1655 ****        26.0000  10.2500   0.2500 Du        
   1656 ****        26.0000  10.2500   0.5000 Du        
   1657 ****        26.0000  10.5000  -4.0000 Du        
   1658 ****        26.0000  10.5000  -3.7500 Du        
   1659 ****        26.0000  10.5000  -3.5000 Du        
   1660 ****        26.0000  10.5000  -3.2500 Du        
   1661 ****        26.0000  10.5000  -3.0000 Du        
   1662 ****        26.0000  10.5000  -0.7500 Du        
   1663 ****        26.0000  10.5000  -0.5000 Du        
   1664 ****        26.0000  10.5000  -0.2500 Du        
   1665 ****        26.0000  10.5000   0.0000 Du        
   1666 ****        26.0000  10.5000   0.2500 Du        
   1667 ****        26.0000  10.5000   0.5000 Du        
   1668 ****        26.0000  10.7500  -3.7500 Du        
   1669 ****        26.0000  10.7500  -3.5000 Du        
   1670 ****        26.0000  10.7500  -0.2500 Du        
   1671 ****        26.0000  10.7500   0.0000 Du        
   1672 ****        26.0000  10.7500   0.2500 Du        
   1673 ****        26.2500   7.2500 -10.7500 Du        
   1674 ****        26.2500   7.2500 -10.5000 Du        
   1675 ****        26.2500   7.2500  -4.0000 Du        
   1676 ****        26.2500   7.2500  -3.7500 Du        
   1677 ****        26.2500   7.2500  -3.5000 Du        
   1678 ****        26.2500   7.2500  -3.2500 Du        
   1679 ****        26.2500   7.5000 -10.7500 Du        
   1680 ****        26.2500   7.5000 -10.5000 Du        
   1681 ****        26.2500   7.5000  -4.2500 Du        
   1682 ****        26.2500   7.5000  -4.0000 Du        
   1683 ****        26.2500   7.5000  -3.7500 Du        
   1684 ****        26.2500   7.5000  -3.5000 Du        
   1685 ****        26.2500   7.5000  -3.2500 Du        
   1686 ****        26.2500   7.5000  -3.0000 Du        
   1687 ****        26.2500   7.7500  -4.2500 Du        
   1688 ****        26.2500   7.7500  -4.0000 Du        
   1689 ****        26.2500   7.7500  -3.7500 Du        
   1690 ****        26.2500   7.7500  -3.5000 Du        
   1691 ****        26.2500   7.7500  -3.2500 Du        
   1692 ****        26.2500   7.7500  -3.0000 Du        
   1693 ****        26.2500   7.7500  -2.7500 Du        
   1694 ****        26.2500   8.0000  -4.5000 Du        
   1695 ****        26.2500   8.0000  -4.2500 Du        
   1696 ****        26.2500   8.0000  -4.0000 Du        
   1697 ****        26.2500   8.0000  -3.7500 Du        
   1698 ****        26.2500   8.0000  -3.5000 Du        
   1699 ****        26.2500   8.0000  -3.2500 Du        
   1700 ****        26.2500   8.0000  -3.0000 Du        
   1701 ****        26.2500   8.0000  -2.7500 Du        
   1702 ****        26.2500   8.2500  -4.5000 Du        
   1703 ****        26.2500   8.2500  -4.2500 Du        
   1704 ****        26.2500   8.2500  -4.0000 Du        
   1705 ****        26.2500   8.2500  -3.7500 Du        
   1706 ****        26.2500   8.2500  -3.5000 Du        
   1707 ****        26.2500   8.2500  -3.2500 Du        
   1708 ****        26.2500   8.2500  -3.0000 Du        
   1709 ****        26.2500   8.2500  -2.7500 Du        
   1710 ****        26.2500   8.2500  -2.5000 Du        
   1711 ****        26.2500   8.5000  -4.7500 Du        
   1712 ****        26.2500   8.5000  -4.5000 Du        
   1713 ****        26.2500   8.5000  -4.2500 Du        
   1714 ****        26.2500   8.5000  -4.0000 Du        
   1715 ****        26.2500   8.5000  -3.7500 Du        
   1716 ****        26.2500   8.5000  -3.5000 Du        
   1717 ****        26.2500   8.5000  -3.2500 Du        
   1718 ****        26.2500   8.5000  -3.0000 Du        
   1719 ****        26.2500   8.5000  -2.7500 Du        
   1720 ****        26.2500   8.5000  -2.5000 Du        
   1721 ****        26.2500   8.5000  -2.2500 Du        
   1722 ****        26.2500   8.7500  -4.7500 Du        
   1723 ****        26.2500   8.7500  -4.5000 Du        
   1724 ****        26.2500   8.7500  -4.2500 Du        
   1725 ****        26.2500   8.7500  -4.0000 Du        
   1726 ****        26.2500   8.7500  -3.7500 Du        
   1727 ****        26.2500   8.7500  -3.5000 Du        
   1728 ****        26.2500   8.7500  -3.2500 Du        
   1729 ****        26.2500   8.7500  -3.0000 Du        
   1730 ****        26.2500   8.7500  -2.7500 Du        
   1731 ****        26.2500   8.7500  -2.5000 Du        
   1732 ****        26.2500   8.7500  -2.2500 Du        
   1733 ****        26.2500   8.7500  -2.0000 Du        
   1734 ****        26.2500   9.0000  -5.0000 Du        
   1735 ****        26.2500   9.0000  -4.7500 Du        
   1736 ****        26.2500   9.0000  -4.5000 Du        
   1737 ****        26.2500   9.0000  -4.2500 Du        
   1738 ****        26.2500   9.0000  -4.0000 Du        
   1739 ****        26.2500   9.0000  -3.7500 Du        
   1740 ****        26.2500   9.0000  -3.5000 Du        
   1741 ****        26.2500   9.0000  -3.2500 Du        
   1742 ****        26.2500   9.0000  -3.0000 Du        
   1743 ****        26.2500   9.0000  -2.7500 Du        
   1744 ****        26.2500   9.0000  -2.5000 Du        
   1745 ****        26.2500   9.0000  -2.2500 Du        
   1746 ****        26.2500   9.0000  -2.0000 Du        
   1747 ****        26.2500   9.0000  -1.7500 Du        
   1748 ****        26.2500   9.0000  -1.5000 Du        
   1749 ****        26.2500   9.0000  -1.2500 Du        
   1750 ****        26.2500   9.2500  -5.0000 Du        
   1751 ****        26.2500   9.2500  -4.7500 Du        
   1752 ****        26.2500   9.2500  -4.5000 Du        
   1753 ****        26.2500   9.2500  -4.2500 Du        
   1754 ****        26.2500   9.2500  -4.0000 Du        
   1755 ****        26.2500   9.2500  -3.7500 Du        
   1756 ****        26.2500   9.2500  -3.5000 Du        
   1757 ****        26.2500   9.2500  -3.2500 Du        
   1758 ****        26.2500   9.2500  -3.0000 Du        
   1759 ****        26.2500   9.2500  -2.7500 Du        
   1760 ****        26.2500   9.2500  -2.5000 Du        
   1761 ****        26.2500   9.2500  -2.2500 Du        
   1762 ****        26.2500   9.2500  -2.0000 Du        
   1763 ****        26.2500   9.2500  -1.7500 Du        
   1764 ****        26.2500   9.2500  -1.5000 Du        
   1765 ****        26.2500   9.2500  -1.2500 Du        
   1766 ****        26.2500   9.2500  -1.0000 Du        
   1767 ****        26.2500   9.5000  -5.0000 Du        
   1768 ****        26.2500   9.5000  -4.7500 Du        
   1769 ****        26.2500   9.5000  -4.5000 Du        
   1770 ****        26.2500   9.5000  -4.2500 Du        
   1771 ****        26.2500   9.5000  -4.0000 Du        
   1772 ****        26.2500   9.5000  -3.7500 Du        
   1773 ****        26.2500   9.5000  -3.5000 Du        
   1774 ****        26.2500   9.5000  -3.2500 Du        
   1775 ****        26.2500   9.5000  -3.0000 Du        
   1776 ****        26.2500   9.5000  -2.7500 Du        
   1777 ****        26.2500   9.5000  -2.5000 Du        
   1778 ****        26.2500   9.5000  -2.2500 Du        
   1779 ****        26.2500   9.5000  -2.0000 Du        
   1780 ****        26.2500   9.5000  -1.7500 Du        
   1781 ****        26.2500   9.5000  -1.5000 Du        
   1782 ****        26.2500   9.5000  -1.2500 Du        
   1783 ****        26.2500   9.5000  -1.0000 Du        
   1784 ****        26.2500   9.5000  -0.7500 Du        
   1785 ****        26.2500   9.5000  -0.5000 Du        
   1786 ****        26.2500   9.7500  -4.7500 Du        
   1787 ****        26.2500   9.7500  -4.5000 Du        
   1788 ****        26.2500   9.7500  -4.2500 Du        
   1789 ****        26.2500   9.7500  -4.0000 Du        
   1790 ****        26.2500   9.7500  -3.7500 Du        
   1791 ****        26.2500   9.7500  -3.5000 Du        
   1792 ****        26.2500   9.7500  -3.2500 Du        
   1793 ****        26.2500   9.7500  -3.0000 Du        
   1794 ****        26.2500   9.7500  -2.7500 Du        
   1795 ****        26.2500   9.7500  -2.5000 Du        
   1796 ****        26.2500   9.7500  -2.2500 Du        
   1797 ****        26.2500   9.7500  -2.0000 Du        
   1798 ****        26.2500   9.7500  -1.7500 Du        
   1799 ****        26.2500   9.7500  -1.5000 Du        
   1800 ****        26.2500   9.7500  -1.2500 Du        
   1801 ****        26.2500   9.7500  -1.0000 Du        
   1802 ****        26.2500   9.7500  -0.7500 Du        
   1803 ****        26.2500   9.7500  -0.5000 Du        
   1804 ****        26.2500   9.7500  -0.2500 Du        
   1805 ****        26.2500   9.7500   0.0000 Du        
   1806 ****        26.2500  10.0000  -4.5000 Du        
   1807 ****        26.2500  10.0000  -4.2500 Du        
   1808 ****        26.2500  10.0000  -4.0000 Du        
   1809 ****        26.2500  10.0000  -3.7500 Du        
   1810 ****        26.2500  10.0000  -3.5000 Du        
   1811 ****        26.2500  10.0000  -3.2500 Du        
   1812 ****        26.2500  10.0000  -3.0000 Du        
   1813 ****        26.2500  10.0000  -2.7500 Du        
   1814 ****        26.2500  10.0000  -2.5000 Du        
   1815 ****        26.2500  10.0000  -2.2500 Du        
   1816 ****        26.2500  10.0000  -2.0000 Du        
   1817 ****        26.2500  10.0000  -1.7500 Du        
   1818 ****        26.2500  10.0000  -1.5000 Du        
   1819 ****        26.2500  10.0000  -1.2500 Du        
   1820 ****        26.2500  10.0000  -1.0000 Du        
   1821 ****        26.2500  10.0000  -0.7500 Du        
   1822 ****        26.2500  10.0000  -0.5000 Du        
   1823 ****        26.2500  10.0000  -0.2500 Du        
   1824 ****        26.2500  10.0000   0.0000 Du        
   1825 ****        26.2500  10.0000   0.2500 Du        
   1826 ****        26.2500  10.0000   0.5000 Du        
   1827 ****        26.2500  10.2500  -4.5000 Du        
   1828 ****        26.2500  10.2500  -4.2500 Du        
   1829 ****        26.2500  10.2500  -4.0000 Du        
   1830 ****        26.2500  10.2500  -3.7500 Du        
   1831 ****        26.2500  10.2500  -3.5000 Du        
   1832 ****        26.2500  10.2500  -3.2500 Du        
   1833 ****        26.2500  10.2500  -3.0000 Du        
   1834 ****        26.2500  10.2500  -2.7500 Du        
   1835 ****        26.2500  10.2500  -1.0000 Du        
   1836 ****        26.2500  10.2500  -0.7500 Du        
   1837 ****        26.2500  10.2500  -0.5000 Du        
   1838 ****        26.2500  10.2500  -0.2500 Du        
   1839 ****        26.2500  10.2500   0.0000 Du        
   1840 ****        26.2500  10.2500   0.2500 Du        
   1841 ****        26.2500  10.2500   0.5000 Du        
   1842 ****        26.2500  10.5000  -4.2500 Du        
   1843 ****        26.2500  10.5000  -4.0000 Du        
   1844 ****        26.2500  10.5000  -3.7500 Du        
   1845 ****        26.2500  10.5000  -3.5000 Du        
   1846 ****        26.2500  10.5000  -3.2500 Du        
   1847 ****        26.2500  10.5000  -0.5000 Du        
   1848 ****        26.2500  10.5000  -0.2500 Du        
   1849 ****        26.2500  10.5000   0.0000 Du        
   1850 ****        26.2500  10.5000   0.2500 Du        
   1851 ****        26.2500  10.5000   0.5000 Du        
   1852 ****        26.2500  10.7500   0.0000 Du        
   1853 ****        26.2500  10.7500   0.2500 Du        
   1854 ****        26.5000   7.2500  -4.0000 Du        
   1855 ****        26.5000   7.2500  -3.7500 Du        
   1856 ****        26.5000   7.2500  -3.5000 Du        
   1857 ****        26.5000   7.5000  -4.2500 Du        
   1858 ****        26.5000   7.5000  -4.0000 Du        
   1859 ****        26.5000   7.5000  -3.7500 Du        
   1860 ****        26.5000   7.5000  -3.5000 Du        
   1861 ****        26.5000   7.7500  -4.5000 Du        
   1862 ****        26.5000   7.7500  -4.2500 Du        
   1863 ****        26.5000   7.7500  -4.0000 Du        
   1864 ****        26.5000   7.7500  -3.7500 Du        
   1865 ****        26.5000   7.7500  -3.5000 Du        
   1866 ****        26.5000   7.7500  -3.2500 Du        
   1867 ****        26.5000   8.0000  -4.5000 Du        
   1868 ****        26.5000   8.0000  -4.2500 Du        
   1869 ****        26.5000   8.0000  -4.0000 Du        
   1870 ****        26.5000   8.0000  -3.7500 Du        
   1871 ****        26.5000   8.0000  -3.5000 Du        
   1872 ****        26.5000   8.0000  -3.2500 Du        
   1873 ****        26.5000   8.0000  -3.0000 Du        
   1874 ****        26.5000   8.2500  -4.5000 Du        
   1875 ****        26.5000   8.2500  -4.2500 Du        
   1876 ****        26.5000   8.2500  -4.0000 Du        
   1877 ****        26.5000   8.2500  -3.7500 Du        
   1878 ****        26.5000   8.2500  -3.5000 Du        
   1879 ****        26.5000   8.2500  -3.2500 Du        
   1880 ****        26.5000   8.2500  -3.0000 Du        
   1881 ****        26.5000   8.5000  -4.7500 Du        
   1882 ****        26.5000   8.5000  -4.5000 Du        
   1883 ****        26.5000   8.5000  -4.2500 Du        
   1884 ****        26.5000   8.5000  -4.0000 Du        
   1885 ****        26.5000   8.5000  -3.7500 Du        
   1886 ****        26.5000   8.5000  -3.5000 Du        
   1887 ****        26.5000   8.5000  -3.2500 Du        
   1888 ****        26.5000   8.5000  -3.0000 Du        
   1889 ****        26.5000   8.5000  -2.7500 Du        
   1890 ****        26.5000   8.7500  -5.0000 Du        
   1891 ****        26.5000   8.7500  -4.7500 Du        
   1892 ****        26.5000   8.7500  -4.5000 Du        
   1893 ****        26.5000   8.7500  -4.2500 Du        
   1894 ****        26.5000   8.7500  -4.0000 Du        
   1895 ****        26.5000   8.7500  -3.7500 Du        
   1896 ****        26.5000   8.7500  -3.5000 Du        
   1897 ****        26.5000   8.7500  -3.2500 Du        
   1898 ****        26.5000   8.7500  -3.0000 Du        
   1899 ****        26.5000   8.7500  -2.7500 Du        
   1900 ****        26.5000   8.7500  -2.5000 Du        
   1901 ****        26.5000   8.7500  -2.2500 Du        
   1902 ****        26.5000   9.0000  -5.0000 Du        
   1903 ****        26.5000   9.0000  -4.7500 Du        
   1904 ****        26.5000   9.0000  -4.5000 Du        
   1905 ****        26.5000   9.0000  -4.2500 Du        
   1906 ****        26.5000   9.0000  -4.0000 Du        
   1907 ****        26.5000   9.0000  -3.7500 Du        
   1908 ****        26.5000   9.0000  -3.5000 Du        
   1909 ****        26.5000   9.0000  -3.2500 Du        
   1910 ****        26.5000   9.0000  -3.0000 Du        
   1911 ****        26.5000   9.0000  -2.7500 Du        
   1912 ****        26.5000   9.0000  -2.5000 Du        
   1913 ****        26.5000   9.0000  -2.2500 Du        
   1914 ****        26.5000   9.0000  -2.0000 Du        
   1915 ****        26.5000   9.0000  -1.7500 Du        
   1916 ****        26.5000   9.2500  -5.2500 Du        
   1917 ****        26.5000   9.2500  -5.0000 Du        
   1918 ****        26.5000   9.2500  -4.7500 Du        
   1919 ****        26.5000   9.2500  -4.5000 Du        
   1920 ****        26.5000   9.2500  -4.2500 Du        
   1921 ****        26.5000   9.2500  -4.0000 Du        
   1922 ****        26.5000   9.2500  -3.7500 Du        
   1923 ****        26.5000   9.2500  -3.5000 Du        
   1924 ****        26.5000   9.2500  -3.2500 Du        
   1925 ****        26.5000   9.2500  -3.0000 Du        
   1926 ****        26.5000   9.2500  -2.7500 Du        
   1927 ****        26.5000   9.2500  -2.5000 Du        
   1928 ****        26.5000   9.2500  -2.2500 Du        
   1929 ****        26.5000   9.2500  -2.0000 Du        
   1930 ****        26.5000   9.2500  -1.7500 Du        
   1931 ****        26.5000   9.2500  -1.5000 Du        
   1932 ****        26.5000   9.2500  -1.2500 Du        
   1933 ****        26.5000   9.2500  -1.0000 Du        
   1934 ****        26.5000   9.5000  -5.0000 Du        
   1935 ****        26.5000   9.5000  -4.7500 Du        
   1936 ****        26.5000   9.5000  -4.5000 Du        
   1937 ****        26.5000   9.5000  -4.2500 Du        
   1938 ****        26.5000   9.5000  -4.0000 Du        
   1939 ****        26.5000   9.5000  -3.7500 Du        
   1940 ****        26.5000   9.5000  -3.5000 Du        
   1941 ****        26.5000   9.5000  -3.2500 Du        
   1942 ****        26.5000   9.5000  -3.0000 Du        
   1943 ****        26.5000   9.5000  -2.7500 Du        
   1944 ****        26.5000   9.5000  -2.5000 Du        
   1945 ****        26.5000   9.5000  -2.2500 Du        
   1946 ****        26.5000   9.5000  -2.0000 Du        
   1947 ****        26.5000   9.5000  -1.7500 Du        
   1948 ****        26.5000   9.5000  -1.5000 Du        
   1949 ****        26.5000   9.5000  -1.2500 Du        
   1950 ****        26.5000   9.5000  -1.0000 Du        
   1951 ****        26.5000   9.5000  -0.7500 Du        
   1952 ****        26.5000   9.5000  -0.5000 Du        
   1953 ****        26.5000   9.7500  -5.0000 Du        
   1954 ****        26.5000   9.7500  -4.7500 Du        
   1955 ****        26.5000   9.7500  -4.5000 Du        
   1956 ****        26.5000   9.7500  -4.2500 Du        
   1957 ****        26.5000   9.7500  -4.0000 Du        
   1958 ****        26.5000   9.7500  -3.7500 Du        
   1959 ****        26.5000   9.7500  -3.5000 Du        
   1960 ****        26.5000   9.7500  -3.2500 Du        
   1961 ****        26.5000   9.7500  -3.0000 Du        
   1962 ****        26.5000   9.7500  -2.7500 Du        
   1963 ****        26.5000   9.7500  -2.5000 Du        
   1964 ****        26.5000   9.7500  -2.2500 Du        
   1965 ****        26.5000   9.7500  -2.0000 Du        
   1966 ****        26.5000   9.7500  -1.7500 Du        
   1967 ****        26.5000   9.7500  -1.5000 Du        
   1968 ****        26.5000   9.7500  -1.2500 Du        
   1969 ****        26.5000   9.7500  -1.0000 Du        
   1970 ****        26.5000   9.7500  -0.7500 Du        
   1971 ****        26.5000   9.7500  -0.5000 Du        
   1972 ****        26.5000   9.7500  -0.2500 Du        
   1973 ****        26.5000   9.7500   0.0000 Du        
   1974 ****        26.5000  10.0000  -4.7500 Du        
   1975 ****        26.5000  10.0000  -4.5000 Du        
   1976 ****        26.5000  10.0000  -4.2500 Du        
   1977 ****        26.5000  10.0000  -4.0000 Du        
   1978 ****        26.5000  10.0000  -3.7500 Du        
   1979 ****        26.5000  10.0000  -3.5000 Du        
   1980 ****        26.5000  10.0000  -3.2500 Du        
   1981 ****        26.5000  10.0000  -3.0000 Du        
   1982 ****        26.5000  10.0000  -2.7500 Du        
   1983 ****        26.5000  10.0000  -2.5000 Du        
   1984 ****        26.5000  10.0000  -2.2500 Du        
   1985 ****        26.5000  10.0000  -2.0000 Du        
   1986 ****        26.5000  10.0000  -1.7500 Du        
   1987 ****        26.5000  10.0000  -1.5000 Du        
   1988 ****        26.5000  10.0000  -1.2500 Du        
   1989 ****        26.5000  10.0000  -1.0000 Du        
   1990 ****        26.5000  10.0000  -0.7500 Du        
   1991 ****        26.5000  10.0000  -0.5000 Du        
   1992 ****        26.5000  10.0000  -0.2500 Du        
   1993 ****        26.5000  10.0000   0.0000 Du        
   1994 ****        26.5000  10.0000   0.2500 Du        
   1995 ****        26.5000  10.0000   0.5000 Du        
   1996 ****        26.5000  10.2500  -4.5000 Du        
   1997 ****        26.5000  10.2500  -4.2500 Du        
   1998 ****        26.5000  10.2500  -4.0000 Du        
   1999 ****        26.5000  10.2500  -3.7500 Du        
   2000 ****        26.5000  10.2500  -3.5000 Du        
   2001 ****        26.5000  10.2500  -3.2500 Du        
   2002 ****        26.5000  10.2500  -3.0000 Du        
   2003 ****        26.5000  10.2500  -0.7500 Du        
   2004 ****        26.5000  10.2500  -0.5000 Du        
   2005 ****        26.5000  10.2500  -0.2500 Du        
   2006 ****        26.5000  10.2500   0.0000 Du        
   2007 ****        26.5000  10.2500   0.2500 Du        
   2008 ****        26.5000  10.2500   0.5000 Du        
   2009 ****        26.5000  10.5000  -4.2500 Du        
   2010 ****        26.5000  10.5000  -4.0000 Du        
   2011 ****        26.5000  10.5000  -3.7500 Du        
   2012 ****        26.5000  10.5000  -3.5000 Du        
   2013 ****        26.5000  10.5000  -0.2500 Du        
   2014 ****        26.5000  10.5000   0.0000 Du        
   2015 ****        26.5000  10.5000   0.2500 Du        
   2016 ****        26.5000  10.5000   0.5000 Du        
   2017 ****        26.5000  10.7500  -4.0000 Du        
   2018 ****        26.7500   7.2500  -4.0000 Du        
   2019 ****        26.7500   7.5000  -4.2500 Du        
   2020 ****        26.7500   7.5000  -4.0000 Du        
   2021 ****        26.7500   7.5000  -3.7500 Du        
   2022 ****        26.7500   7.7500  -4.5000 Du        
   2023 ****        26.7500   7.7500  -4.2500 Du        
   2024 ****        26.7500   7.7500  -4.0000 Du        
   2025 ****        26.7500   7.7500  -3.7500 Du        
   2026 ****        26.7500   7.7500  -3.5000 Du        
   2027 ****        26.7500   8.0000  -4.5000 Du        
   2028 ****        26.7500   8.0000  -4.2500 Du        
   2029 ****        26.7500   8.0000  -4.0000 Du        
   2030 ****        26.7500   8.0000  -3.7500 Du        
   2031 ****        26.7500   8.0000  -3.5000 Du        
   2032 ****        26.7500   8.2500  -4.7500 Du        
   2033 ****        26.7500   8.2500  -4.5000 Du        
   2034 ****        26.7500   8.2500  -4.2500 Du        
   2035 ****        26.7500   8.2500  -4.0000 Du        
   2036 ****        26.7500   8.2500  -3.7500 Du        
   2037 ****        26.7500   8.2500  -3.5000 Du        
   2038 ****        26.7500   8.2500  -3.2500 Du        
   2039 ****        26.7500   8.5000  -4.7500 Du        
   2040 ****        26.7500   8.5000  -4.5000 Du        
   2041 ****        26.7500   8.5000  -4.2500 Du        
   2042 ****        26.7500   8.5000  -4.0000 Du        
   2043 ****        26.7500   8.5000  -3.7500 Du        
   2044 ****        26.7500   8.5000  -3.5000 Du        
   2045 ****        26.7500   8.5000  -3.2500 Du        
   2046 ****        26.7500   8.5000  -3.0000 Du        
   2047 ****        26.7500   8.7500  -5.0000 Du        
   2048 ****        26.7500   8.7500  -4.7500 Du        
   2049 ****        26.7500   8.7500  -4.5000 Du        
   2050 ****        26.7500   8.7500  -4.2500 Du        
   2051 ****        26.7500   8.7500  -4.0000 Du        
   2052 ****        26.7500   8.7500  -3.7500 Du        
   2053 ****        26.7500   8.7500  -3.5000 Du        
   2054 ****        26.7500   8.7500  -3.2500 Du        
   2055 ****        26.7500   8.7500  -3.0000 Du        
   2056 ****        26.7500   8.7500  -2.7500 Du        
   2057 ****        26.7500   9.0000  -5.2500 Du        
   2058 ****        26.7500   9.0000  -5.0000 Du        
   2059 ****        26.7500   9.0000  -4.7500 Du        
   2060 ****        26.7500   9.0000  -4.5000 Du        
   2061 ****        26.7500   9.0000  -4.2500 Du        
   2062 ****        26.7500   9.0000  -4.0000 Du        
   2063 ****        26.7500   9.0000  -3.7500 Du        
   2064 ****        26.7500   9.0000  -3.5000 Du        
   2065 ****        26.7500   9.0000  -3.2500 Du        
   2066 ****        26.7500   9.0000  -3.0000 Du        
   2067 ****        26.7500   9.0000  -2.7500 Du        
   2068 ****        26.7500   9.0000  -2.5000 Du        
   2069 ****        26.7500   9.0000  -2.2500 Du        
   2070 ****        26.7500   9.2500  -5.2500 Du        
   2071 ****        26.7500   9.2500  -5.0000 Du        
   2072 ****        26.7500   9.2500  -4.7500 Du        
   2073 ****        26.7500   9.2500  -4.5000 Du        
   2074 ****        26.7500   9.2500  -4.2500 Du        
   2075 ****        26.7500   9.2500  -4.0000 Du        
   2076 ****        26.7500   9.2500  -3.7500 Du        
   2077 ****        26.7500   9.2500  -3.5000 Du        
   2078 ****        26.7500   9.2500  -3.2500 Du        
   2079 ****        26.7500   9.2500  -3.0000 Du        
   2080 ****        26.7500   9.2500  -2.7500 Du        
   2081 ****        26.7500   9.2500  -2.5000 Du        
   2082 ****        26.7500   9.2500  -2.2500 Du        
   2083 ****        26.7500   9.2500  -2.0000 Du        
   2084 ****        26.7500   9.2500  -1.7500 Du        
   2085 ****        26.7500   9.5000  -5.2500 Du        
   2086 ****        26.7500   9.5000  -5.0000 Du        
   2087 ****        26.7500   9.5000  -4.7500 Du        
   2088 ****        26.7500   9.5000  -4.5000 Du        
   2089 ****        26.7500   9.5000  -4.2500 Du        
   2090 ****        26.7500   9.5000  -4.0000 Du        
   2091 ****        26.7500   9.5000  -3.7500 Du        
   2092 ****        26.7500   9.5000  -3.5000 Du        
   2093 ****        26.7500   9.5000  -3.2500 Du        
   2094 ****        26.7500   9.5000  -3.0000 Du        
   2095 ****        26.7500   9.5000  -2.7500 Du        
   2096 ****        26.7500   9.5000  -2.5000 Du        
   2097 ****        26.7500   9.5000  -2.2500 Du        
   2098 ****        26.7500   9.5000  -2.0000 Du        
   2099 ****        26.7500   9.5000  -1.7500 Du        
   2100 ****        26.7500   9.5000  -1.5000 Du        
   2101 ****        26.7500   9.5000  -1.2500 Du        
   2102 ****        26.7500   9.5000  -1.0000 Du        
   2103 ****        26.7500   9.5000  -0.7500 Du        
   2104 ****        26.7500   9.5000  -0.5000 Du        
   2105 ****        26.7500   9.5000  -0.2500 Du        
   2106 ****        26.7500   9.7500  -5.2500 Du        
   2107 ****        26.7500   9.7500  -5.0000 Du        
   2108 ****        26.7500   9.7500  -4.7500 Du        
   2109 ****        26.7500   9.7500  -4.5000 Du        
   2110 ****        26.7500   9.7500  -4.2500 Du        
   2111 ****        26.7500   9.7500  -4.0000 Du        
   2112 ****        26.7500   9.7500  -3.7500 Du        
   2113 ****        26.7500   9.7500  -3.5000 Du        
   2114 ****        26.7500   9.7500  -3.2500 Du        
   2115 ****        26.7500   9.7500  -3.0000 Du        
   2116 ****        26.7500   9.7500  -2.7500 Du        
   2117 ****        26.7500   9.7500  -2.5000 Du        
   2118 ****        26.7500   9.7500  -2.2500 Du        
   2119 ****        26.7500   9.7500  -2.0000 Du        
   2120 ****        26.7500   9.7500  -1.7500 Du        
   2121 ****        26.7500   9.7500  -1.5000 Du        
   2122 ****        26.7500   9.7500  -1.2500 Du        
   2123 ****        26.7500   9.7500  -1.0000 Du        
   2124 ****        26.7500   9.7500  -0.7500 Du        
   2125 ****        26.7500   9.7500  -0.5000 Du        
   2126 ****        26.7500   9.7500  -0.2500 Du        
   2127 ****        26.7500   9.7500   0.0000 Du        
   2128 ****        26.7500   9.7500   0.2500 Du        
   2129 ****        26.7500  10.0000  -5.0000 Du        
   2130 ****        26.7500  10.0000  -4.7500 Du        
   2131 ****        26.7500  10.0000  -4.5000 Du        
   2132 ****        26.7500  10.0000  -4.2500 Du        
   2133 ****        26.7500  10.0000  -4.0000 Du        
   2134 ****        26.7500  10.0000  -3.7500 Du        
   2135 ****        26.7500  10.0000  -3.5000 Du        
   2136 ****        26.7500  10.0000  -3.2500 Du        
   2137 ****        26.7500  10.0000  -3.0000 Du        
   2138 ****        26.7500  10.0000  -2.7500 Du        
   2139 ****        26.7500  10.0000  -1.0000 Du        
   2140 ****        26.7500  10.0000  -0.7500 Du        
   2141 ****        26.7500  10.0000  -0.5000 Du        
   2142 ****        26.7500  10.0000  -0.2500 Du        
   2143 ****        26.7500  10.0000   0.0000 Du        
   2144 ****        26.7500  10.0000   0.2500 Du        
   2145 ****        26.7500  10.0000   0.5000 Du        
   2146 ****        26.7500  10.2500  -4.7500 Du        
   2147 ****        26.7500  10.2500  -4.5000 Du        
   2148 ****        26.7500  10.2500  -4.2500 Du        
   2149 ****        26.7500  10.2500  -4.0000 Du        
   2150 ****        26.7500  10.2500  -3.7500 Du        
   2151 ****        26.7500  10.2500  -3.5000 Du        
   2152 ****        26.7500  10.2500  -3.2500 Du        
   2153 ****        26.7500  10.2500  -0.5000 Du        
   2154 ****        26.7500  10.2500  -0.2500 Du        
   2155 ****        26.7500  10.2500   0.0000 Du        
   2156 ****        26.7500  10.2500   0.2500 Du        
   2157 ****        26.7500  10.2500   0.5000 Du        
   2158 ****        26.7500  10.2500   0.7500 Du        
   2159 ****        26.7500  10.5000  -4.5000 Du        
   2160 ****        26.7500  10.5000  -4.2500 Du        
   2161 ****        26.7500  10.5000  -4.0000 Du        
   2162 ****        26.7500  10.5000  -3.7500 Du        
   2163 ****        26.7500  10.5000   0.0000 Du        
   2164 ****        26.7500  10.5000   0.2500 Du        
   2165 ****        26.7500  10.5000   0.5000 Du        
   2166 ****        26.7500  10.7500  -4.2500 Du        
   2167 ****        26.7500  10.7500  -4.0000 Du        
   2168 ****        27.0000   7.7500  -4.2500 Du        
   2169 ****        27.0000   7.7500  -4.0000 Du        
   2170 ****        27.0000   8.0000  -4.5000 Du        
   2171 ****        27.0000   8.0000  -4.2500 Du        
   2172 ****        27.0000   8.0000  -4.0000 Du        
   2173 ****        27.0000   8.0000  -3.7500 Du        
   2174 ****        27.0000   8.2500  -4.7500 Du        
   2175 ****        27.0000   8.2500  -4.5000 Du        
   2176 ****        27.0000   8.2500  -4.2500 Du        
   2177 ****        27.0000   8.2500  -4.0000 Du        
   2178 ****        27.0000   8.2500  -3.7500 Du        
   2179 ****        27.0000   8.5000  -5.0000 Du        
   2180 ****        27.0000   8.5000  -4.7500 Du        
   2181 ****        27.0000   8.5000  -4.5000 Du        
   2182 ****        27.0000   8.5000  -4.2500 Du        
   2183 ****        27.0000   8.5000  -4.0000 Du        
   2184 ****        27.0000   8.5000  -3.7500 Du        
   2185 ****        27.0000   8.5000  -3.5000 Du        
   2186 ****        27.0000   8.7500  -5.0000 Du        
   2187 ****        27.0000   8.7500  -4.7500 Du        
   2188 ****        27.0000   8.7500  -4.5000 Du        
   2189 ****        27.0000   8.7500  -4.2500 Du        
   2190 ****        27.0000   8.7500  -4.0000 Du        
   2191 ****        27.0000   8.7500  -3.7500 Du        
   2192 ****        27.0000   8.7500  -3.5000 Du        
   2193 ****        27.0000   8.7500  -3.2500 Du        
   2194 ****        27.0000   9.0000  -5.2500 Du        
   2195 ****        27.0000   9.0000  -5.0000 Du        
   2196 ****        27.0000   9.0000  -4.7500 Du        
   2197 ****        27.0000   9.0000  -4.5000 Du        
   2198 ****        27.0000   9.0000  -4.2500 Du        
   2199 ****        27.0000   9.0000  -4.0000 Du        
   2200 ****        27.0000   9.0000  -3.7500 Du        
   2201 ****        27.0000   9.0000  -3.5000 Du        
   2202 ****        27.0000   9.0000  -3.2500 Du        
   2203 ****        27.0000   9.0000  -3.0000 Du        
   2204 ****        27.0000   9.0000  -2.7500 Du        
   2205 ****        27.0000   9.2500  -5.5000 Du        
   2206 ****        27.0000   9.2500  -5.2500 Du        
   2207 ****        27.0000   9.2500  -5.0000 Du        
   2208 ****        27.0000   9.2500  -4.7500 Du        
   2209 ****        27.0000   9.2500  -4.5000 Du        
   2210 ****        27.0000   9.2500  -4.2500 Du        
   2211 ****        27.0000   9.2500  -4.0000 Du        
   2212 ****        27.0000   9.2500  -3.7500 Du        
   2213 ****        27.0000   9.2500  -3.5000 Du        
   2214 ****        27.0000   9.2500  -3.2500 Du        
   2215 ****        27.0000   9.2500  -3.0000 Du        
   2216 ****        27.0000   9.2500  -2.7500 Du        
   2217 ****        27.0000   9.2500  -2.5000 Du        
   2218 ****        27.0000   9.5000  -5.7500 Du        
   2219 ****        27.0000   9.5000  -5.5000 Du        
   2220 ****        27.0000   9.5000  -5.2500 Du        
   2221 ****        27.0000   9.5000  -5.0000 Du        
   2222 ****        27.0000   9.5000  -4.7500 Du        
   2223 ****        27.0000   9.5000  -4.5000 Du        
   2224 ****        27.0000   9.5000  -4.2500 Du        
   2225 ****        27.0000   9.5000  -4.0000 Du        
   2226 ****        27.0000   9.5000  -3.7500 Du        
   2227 ****        27.0000   9.5000  -3.5000 Du        
   2228 ****        27.0000   9.5000  -3.2500 Du        
   2229 ****        27.0000   9.5000  -3.0000 Du        
   2230 ****        27.0000   9.5000  -2.7500 Du        
   2231 ****        27.0000   9.5000  -2.5000 Du        
   2232 ****        27.0000   9.5000  -2.2500 Du        
   2233 ****        27.0000   9.5000  -2.0000 Du        
   2234 ****        27.0000   9.5000  -1.7500 Du        
   2235 ****        27.0000   9.5000  -1.5000 Du        
   2236 ****        27.0000   9.5000  -1.2500 Du        
   2237 ****        27.0000   9.5000  -1.0000 Du        
   2238 ****        27.0000   9.5000  -0.7500 Du        
   2239 ****        27.0000   9.5000  -0.5000 Du        
   2240 ****        27.0000   9.7500  -5.5000 Du        
   2241 ****        27.0000   9.7500  -5.2500 Du        
   2242 ****        27.0000   9.7500  -5.0000 Du        
   2243 ****        27.0000   9.7500  -4.7500 Du        
   2244 ****        27.0000   9.7500  -4.5000 Du        
   2245 ****        27.0000   9.7500  -4.2500 Du        
   2246 ****        27.0000   9.7500  -4.0000 Du        
   2247 ****        27.0000   9.7500  -3.7500 Du        
   2248 ****        27.0000   9.7500  -3.5000 Du        
   2249 ****        27.0000   9.7500  -3.2500 Du        
   2250 ****        27.0000   9.7500  -3.0000 Du        
   2251 ****        27.0000   9.7500  -2.7500 Du        
   2252 ****        27.0000   9.7500  -2.5000 Du        
   2253 ****        27.0000   9.7500  -2.2500 Du        
   2254 ****        27.0000   9.7500  -2.0000 Du        
   2255 ****        27.0000   9.7500  -1.7500 Du        
   2256 ****        27.0000   9.7500  -1.5000 Du        
   2257 ****        27.0000   9.7500  -1.2500 Du        
   2258 ****        27.0000   9.7500  -1.0000 Du        
   2259 ****        27.0000   9.7500  -0.7500 Du        
   2260 ****        27.0000   9.7500  -0.5000 Du        
   2261 ****        27.0000   9.7500  -0.2500 Du        
   2262 ****        27.0000   9.7500   0.0000 Du        
   2263 ****        27.0000   9.7500   0.2500 Du        
   2264 ****        27.0000  10.0000  -5.2500 Du        
   2265 ****        27.0000  10.0000  -5.0000 Du        
   2266 ****        27.0000  10.0000  -4.7500 Du        
   2267 ****        27.0000  10.0000  -4.5000 Du        
   2268 ****        27.0000  10.0000  -4.2500 Du        
   2269 ****        27.0000  10.0000  -4.0000 Du        
   2270 ****        27.0000  10.0000  -3.7500 Du        
   2271 ****        27.0000  10.0000  -3.5000 Du        
   2272 ****        27.0000  10.0000  -3.2500 Du        
   2273 ****        27.0000  10.0000  -3.0000 Du        
   2274 ****        27.0000  10.0000  -0.7500 Du        
   2275 ****        27.0000  10.0000  -0.5000 Du        
   2276 ****        27.0000  10.0000  -0.2500 Du        
   2277 ****        27.0000  10.0000   0.0000 Du        
   2278 ****        27.0000  10.0000   0.2500 Du        
   2279 ****        27.0000  10.0000   0.5000 Du        
   2280 ****        27.0000  10.0000   0.7500 Du        
   2281 ****        27.0000  10.2500  -5.0000 Du        
   2282 ****        27.0000  10.2500  -4.7500 Du        
   2283 ****        27.0000  10.2500  -4.5000 Du        
   2284 ****        27.0000  10.2500  -4.2500 Du        
   2285 ****        27.0000  10.2500  -4.0000 Du        
   2286 ****        27.0000  10.2500  -3.7500 Du        
   2287 ****        27.0000  10.2500  -3.5000 Du        
   2288 ****        27.0000  10.2500  -3.2500 Du        
   2289 ****        27.0000  10.2500  -0.2500 Du        
   2290 ****        27.0000  10.2500   0.0000 Du        
   2291 ****        27.0000  10.2500   0.2500 Du        
   2292 ****        27.0000  10.2500   0.5000 Du        
   2293 ****        27.0000  10.2500   0.7500 Du        
   2294 ****        27.0000  10.5000  -4.7500 Du        
   2295 ****        27.0000  10.5000  -4.5000 Du        
   2296 ****        27.0000  10.5000  -4.2500 Du        
   2297 ****        27.0000  10.5000  -4.0000 Du        
   2298 ****        27.0000  10.5000  -3.7500 Du        
   2299 ****        27.0000  10.5000   0.0000 Du        
   2300 ****        27.0000  10.5000   0.2500 Du        
   2301 ****        27.0000  10.5000   0.5000 Du        
   2302 ****        27.0000  10.7500  -4.7500 Du        
   2303 ****        27.0000  10.7500  -4.5000 Du        
   2304 ****        27.0000  10.7500  -4.2500 Du        
   2305 ****        27.2500   8.2500  -4.7500 Du        
   2306 ****        27.2500   8.2500  -4.5000 Du        
   2307 ****        27.2500   8.2500  -4.2500 Du        
   2308 ****        27.2500   8.2500  -4.0000 Du        
   2309 ****        27.2500   8.5000  -5.0000 Du        
   2310 ****        27.2500   8.5000  -4.7500 Du        
   2311 ****        27.2500   8.5000  -4.5000 Du        
   2312 ****        27.2500   8.5000  -4.2500 Du        
   2313 ****        27.2500   8.5000  -4.0000 Du        
   2314 ****        27.2500   8.5000  -3.7500 Du        
   2315 ****        27.2500   8.7500  -5.2500 Du        
   2316 ****        27.2500   8.7500  -5.0000 Du        
   2317 ****        27.2500   8.7500  -4.7500 Du        
   2318 ****        27.2500   8.7500  -4.5000 Du        
   2319 ****        27.2500   8.7500  -4.2500 Du        
   2320 ****        27.2500   8.7500  -4.0000 Du        
   2321 ****        27.2500   8.7500  -3.7500 Du        
   2322 ****        27.2500   8.7500  -3.5000 Du        
   2323 ****        27.2500   9.0000  -5.5000 Du        
   2324 ****        27.2500   9.0000  -5.2500 Du        
   2325 ****        27.2500   9.0000  -5.0000 Du        
   2326 ****        27.2500   9.0000  -4.7500 Du        
   2327 ****        27.2500   9.0000  -4.5000 Du        
   2328 ****        27.2500   9.0000  -4.2500 Du        
   2329 ****        27.2500   9.0000  -4.0000 Du        
   2330 ****        27.2500   9.0000  -3.7500 Du        
   2331 ****        27.2500   9.0000  -3.5000 Du        
   2332 ****        27.2500   9.0000  -3.2500 Du        
   2333 ****        27.2500   9.2500  -5.7500 Du        
   2334 ****        27.2500   9.2500  -5.5000 Du        
   2335 ****        27.2500   9.2500  -5.2500 Du        
   2336 ****        27.2500   9.2500  -5.0000 Du        
   2337 ****        27.2500   9.2500  -4.7500 Du        
   2338 ****        27.2500   9.2500  -4.5000 Du        
   2339 ****        27.2500   9.2500  -4.2500 Du        
   2340 ****        27.2500   9.2500  -4.0000 Du        
   2341 ****        27.2500   9.2500  -3.7500 Du        
   2342 ****        27.2500   9.2500  -3.5000 Du        
   2343 ****        27.2500   9.2500  -3.2500 Du        
   2344 ****        27.2500   9.2500  -3.0000 Du        
   2345 ****        27.2500   9.5000  -5.7500 Du        
   2346 ****        27.2500   9.5000  -5.5000 Du        
   2347 ****        27.2500   9.5000  -5.2500 Du        
   2348 ****        27.2500   9.5000  -5.0000 Du        
   2349 ****        27.2500   9.5000  -4.7500 Du        
   2350 ****        27.2500   9.5000  -4.5000 Du        
   2351 ****        27.2500   9.5000  -4.2500 Du        
   2352 ****        27.2500   9.5000  -4.0000 Du        
   2353 ****        27.2500   9.5000  -3.7500 Du        
   2354 ****        27.2500   9.5000  -3.5000 Du        
   2355 ****        27.2500   9.5000  -3.2500 Du        
   2356 ****        27.2500   9.5000  -3.0000 Du        
   2357 ****        27.2500   9.5000  -2.7500 Du        
   2358 ****        27.2500   9.7500  -5.7500 Du        
   2359 ****        27.2500   9.7500  -5.5000 Du        
   2360 ****        27.2500   9.7500  -5.2500 Du        
   2361 ****        27.2500   9.7500  -5.0000 Du        
   2362 ****        27.2500   9.7500  -4.7500 Du        
   2363 ****        27.2500   9.7500  -4.5000 Du        
   2364 ****        27.2500   9.7500  -4.2500 Du        
   2365 ****        27.2500   9.7500  -4.0000 Du        
   2366 ****        27.2500   9.7500  -3.7500 Du        
   2367 ****        27.2500   9.7500  -3.5000 Du        
   2368 ****        27.2500   9.7500  -3.2500 Du        
   2369 ****        27.2500   9.7500  -3.0000 Du        
   2370 ****        27.2500   9.7500  -2.7500 Du        
   2371 ****        27.2500   9.7500  -1.0000 Du        
   2372 ****        27.2500   9.7500  -0.7500 Du        
   2373 ****        27.2500   9.7500  -0.5000 Du        
   2374 ****        27.2500   9.7500  -0.2500 Du        
   2375 ****        27.2500   9.7500   0.0000 Du        
   2376 ****        27.2500   9.7500   0.2500 Du        
   2377 ****        27.2500  10.0000  -5.7500 Du        
   2378 ****        27.2500  10.0000  -5.5000 Du        
   2379 ****        27.2500  10.0000  -5.2500 Du        
   2380 ****        27.2500  10.0000  -5.0000 Du        
   2381 ****        27.2500  10.0000  -4.7500 Du        
   2382 ****        27.2500  10.0000  -4.5000 Du        
   2383 ****        27.2500  10.0000  -4.2500 Du        
   2384 ****        27.2500  10.0000  -4.0000 Du        
   2385 ****        27.2500  10.0000  -3.7500 Du        
   2386 ****        27.2500  10.0000  -3.5000 Du        
   2387 ****        27.2500  10.0000  -3.2500 Du        
   2388 ****        27.2500  10.0000  -3.0000 Du        
   2389 ****        27.2500  10.0000  -0.5000 Du        
   2390 ****        27.2500  10.0000  -0.2500 Du        
   2391 ****        27.2500  10.0000   0.0000 Du        
   2392 ****        27.2500  10.0000   0.2500 Du        
   2393 ****        27.2500  10.0000   0.5000 Du        
   2394 ****        27.2500  10.0000   0.7500 Du        
   2395 ****        27.2500  10.2500  -5.5000 Du        
   2396 ****        27.2500  10.2500  -5.2500 Du        
   2397 ****        27.2500  10.2500  -5.0000 Du        
   2398 ****        27.2500  10.2500  -4.7500 Du        
   2399 ****        27.2500  10.2500  -4.5000 Du        
   2400 ****        27.2500  10.2500  -4.2500 Du        
   2401 ****        27.2500  10.2500  -4.0000 Du        
   2402 ****        27.2500  10.2500  -3.7500 Du        
   2403 ****        27.2500  10.2500  -3.5000 Du        
   2404 ****        27.2500  10.2500  -0.2500 Du        
   2405 ****        27.2500  10.2500   0.0000 Du        
   2406 ****        27.2500  10.2500   0.2500 Du        
   2407 ****        27.2500  10.2500   0.5000 Du        
   2408 ****        27.2500  10.2500   0.7500 Du        
   2409 ****        27.2500  10.5000  -5.2500 Du        
   2410 ****        27.2500  10.5000  -5.0000 Du        
   2411 ****        27.2500  10.5000  -4.7500 Du        
   2412 ****        27.2500  10.5000  -4.5000 Du        
   2413 ****        27.2500  10.5000  -4.2500 Du        
   2414 ****        27.2500  10.5000  -4.0000 Du        
   2415 ****        27.2500  10.5000  -3.7500 Du        
   2416 ****        27.2500  10.5000   0.2500 Du        
   2417 ****        27.2500  10.5000   0.5000 Du        
   2418 ****        27.2500  10.7500  -5.0000 Du        
   2419 ****        27.2500  10.7500  -4.7500 Du        
   2420 ****        27.2500  10.7500  -4.5000 Du        
   2421 ****        27.2500  10.7500  -4.2500 Du        
   2422 ****        27.5000   8.5000  -4.2500 Du        
   2423 ****        27.5000   8.7500  -5.2500 Du        
   2424 ****        27.5000   8.7500  -5.0000 Du        
   2425 ****        27.5000   8.7500  -4.7500 Du        
   2426 ****        27.5000   8.7500  -4.5000 Du        
   2427 ****        27.5000   8.7500  -4.2500 Du        
   2428 ****        27.5000   8.7500  -4.0000 Du        
   2429 ****        27.5000   8.7500  -3.7500 Du        
   2430 ****        27.5000   9.0000  -5.5000 Du        
   2431 ****        27.5000   9.0000  -5.2500 Du        
   2432 ****        27.5000   9.0000  -5.0000 Du        
   2433 ****        27.5000   9.0000  -4.7500 Du        
   2434 ****        27.5000   9.0000  -4.5000 Du        
   2435 ****        27.5000   9.0000  -4.2500 Du        
   2436 ****        27.5000   9.0000  -4.0000 Du        
   2437 ****        27.5000   9.0000  -3.7500 Du        
   2438 ****        27.5000   9.0000  -3.5000 Du        
   2439 ****        27.5000   9.2500  -5.7500 Du        
   2440 ****        27.5000   9.2500  -5.5000 Du        
   2441 ****        27.5000   9.2500  -5.2500 Du        
   2442 ****        27.5000   9.2500  -5.0000 Du        
   2443 ****        27.5000   9.2500  -4.7500 Du        
   2444 ****        27.5000   9.2500  -4.5000 Du        
   2445 ****        27.5000   9.2500  -4.2500 Du        
   2446 ****        27.5000   9.2500  -4.0000 Du        
   2447 ****        27.5000   9.2500  -3.7500 Du        
   2448 ****        27.5000   9.2500  -3.5000 Du        
   2449 ****        27.5000   9.2500  -3.2500 Du        
   2450 ****        27.5000   9.5000  -5.7500 Du        
   2451 ****        27.5000   9.5000  -5.5000 Du        
   2452 ****        27.5000   9.5000  -5.2500 Du        
   2453 ****        27.5000   9.5000  -5.0000 Du        
   2454 ****        27.5000   9.5000  -4.7500 Du        
   2455 ****        27.5000   9.5000  -4.5000 Du        
   2456 ****        27.5000   9.5000  -4.2500 Du        
   2457 ****        27.5000   9.5000  -4.0000 Du        
   2458 ****        27.5000   9.5000  -3.7500 Du        
   2459 ****        27.5000   9.5000  -3.5000 Du        
   2460 ****        27.5000   9.5000  -3.2500 Du        
   2461 ****        27.5000   9.5000  -3.0000 Du        
   2462 ****        27.5000   9.5000  -2.7500 Du        
   2463 ****        27.5000   9.7500  -5.7500 Du        
   2464 ****        27.5000   9.7500  -5.5000 Du        
   2465 ****        27.5000   9.7500  -5.2500 Du        
   2466 ****        27.5000   9.7500  -5.0000 Du        
   2467 ****        27.5000   9.7500  -4.7500 Du        
   2468 ****        27.5000   9.7500  -4.5000 Du        
   2469 ****        27.5000   9.7500  -4.2500 Du        
   2470 ****        27.5000   9.7500  -4.0000 Du        
   2471 ****        27.5000   9.7500  -3.7500 Du        
   2472 ****        27.5000   9.7500  -3.5000 Du        
   2473 ****        27.5000   9.7500  -3.2500 Du        
   2474 ****        27.5000   9.7500  -3.0000 Du        
   2475 ****        27.5000   9.7500  -2.7500 Du        
   2476 ****        27.5000  10.0000  -5.7500 Du        
   2477 ****        27.5000  10.0000  -5.5000 Du        
   2478 ****        27.5000  10.0000  -5.2500 Du        
   2479 ****        27.5000  10.0000  -5.0000 Du        
   2480 ****        27.5000  10.0000  -4.7500 Du        
   2481 ****        27.5000  10.0000  -4.5000 Du        
   2482 ****        27.5000  10.0000  -4.2500 Du        
   2483 ****        27.5000  10.0000  -4.0000 Du        
   2484 ****        27.5000  10.0000  -3.7500 Du        
   2485 ****        27.5000  10.0000  -3.5000 Du        
   2486 ****        27.5000  10.0000  -3.2500 Du        
   2487 ****        27.5000  10.0000  -3.0000 Du        
   2488 ****        27.5000  10.0000  -0.2500 Du        
   2489 ****        27.5000  10.0000   0.0000 Du        
   2490 ****        27.5000  10.0000   0.2500 Du        
   2491 ****        27.5000  10.0000   0.5000 Du        
   2492 ****        27.5000  10.0000   0.7500 Du        
   2493 ****        27.5000  10.2500  -5.7500 Du        
   2494 ****        27.5000  10.2500  -5.5000 Du        
   2495 ****        27.5000  10.2500  -5.2500 Du        
   2496 ****        27.5000  10.2500  -5.0000 Du        
   2497 ****        27.5000  10.2500  -4.7500 Du        
   2498 ****        27.5000  10.2500  -4.5000 Du        
   2499 ****        27.5000  10.2500  -4.2500 Du        
   2500 ****        27.5000  10.2500  -4.0000 Du        
   2501 ****        27.5000  10.2500  -3.7500 Du        
   2502 ****        27.5000  10.2500  -3.5000 Du        
   2503 ****        27.5000  10.2500   0.0000 Du        
   2504 ****        27.5000  10.2500   0.2500 Du        
   2505 ****        27.5000  10.2500   0.5000 Du        
   2506 ****        27.5000  10.2500   0.7500 Du        
   2507 ****        27.5000  10.5000  -5.5000 Du        
   2508 ****        27.5000  10.5000  -5.2500 Du        
   2509 ****        27.5000  10.5000  -5.0000 Du        
   2510 ****        27.5000  10.5000  -4.7500 Du        
   2511 ****        27.5000  10.5000  -4.5000 Du        
   2512 ****        27.5000  10.5000  -4.2500 Du        
   2513 ****        27.5000  10.5000  -4.0000 Du        
   2514 ****        27.5000  10.5000  -3.7500 Du        
   2515 ****        27.5000  10.5000   0.2500 Du        
   2516 ****        27.5000  10.5000   0.5000 Du        
   2517 ****        27.5000  10.7500  -5.2500 Du        
   2518 ****        27.5000  10.7500  -5.0000 Du        
   2519 ****        27.5000  10.7500  -4.7500 Du        
   2520 ****        27.5000  10.7500  -4.5000 Du        
   2521 ****        27.5000  10.7500  -4.2500 Du        
   2522 ****        27.5000  11.0000  -5.0000 Du        
   2523 ****        27.7500   8.7500  -5.2500 Du        
   2524 ****        27.7500   8.7500  -5.0000 Du        
   2525 ****        27.7500   8.7500  -4.7500 Du        
   2526 ****        27.7500   8.7500  -4.5000 Du        
   2527 ****        27.7500   8.7500  -4.2500 Du        
   2528 ****        27.7500   8.7500  -4.0000 Du        
   2529 ****        27.7500   9.0000  -5.5000 Du        
   2530 ****        27.7500   9.0000  -5.2500 Du        
   2531 ****        27.7500   9.0000  -5.0000 Du        
   2532 ****        27.7500   9.0000  -4.7500 Du        
   2533 ****        27.7500   9.0000  -4.5000 Du        
   2534 ****        27.7500   9.0000  -4.2500 Du        
   2535 ****        27.7500   9.0000  -4.0000 Du        
   2536 ****        27.7500   9.0000  -3.7500 Du        
   2537 ****        27.7500   9.2500  -5.5000 Du        
   2538 ****        27.7500   9.2500  -5.2500 Du        
   2539 ****        27.7500   9.2500  -5.0000 Du        
   2540 ****        27.7500   9.2500  -4.7500 Du        
   2541 ****        27.7500   9.2500  -4.5000 Du        
   2542 ****        27.7500   9.2500  -4.2500 Du        
   2543 ****        27.7500   9.2500  -4.0000 Du        
   2544 ****        27.7500   9.2500  -3.7500 Du        
   2545 ****        27.7500   9.2500  -3.5000 Du        
   2546 ****        27.7500   9.5000  -5.5000 Du        
   2547 ****        27.7500   9.5000  -5.2500 Du        
   2548 ****        27.7500   9.5000  -5.0000 Du        
   2549 ****        27.7500   9.5000  -4.7500 Du        
   2550 ****        27.7500   9.5000  -4.5000 Du        
   2551 ****        27.7500   9.5000  -4.2500 Du        
   2552 ****        27.7500   9.5000  -4.0000 Du        
   2553 ****        27.7500   9.5000  -3.7500 Du        
   2554 ****        27.7500   9.5000  -3.5000 Du        
   2555 ****        27.7500   9.5000  -3.2500 Du        
   2556 ****        27.7500   9.5000  -3.0000 Du        
   2557 ****        27.7500   9.7500  -5.7500 Du        
   2558 ****        27.7500   9.7500  -5.5000 Du        
   2559 ****        27.7500   9.7500  -5.2500 Du        
   2560 ****        27.7500   9.7500  -5.0000 Du        
   2561 ****        27.7500   9.7500  -4.7500 Du        
   2562 ****        27.7500   9.7500  -4.5000 Du        
   2563 ****        27.7500   9.7500  -4.2500 Du        
   2564 ****        27.7500   9.7500  -4.0000 Du        
   2565 ****        27.7500   9.7500  -3.7500 Du        
   2566 ****        27.7500   9.7500  -3.5000 Du        
   2567 ****        27.7500   9.7500  -3.2500 Du        
   2568 ****        27.7500   9.7500  -3.0000 Du        
   2569 ****        27.7500   9.7500  -2.7500 Du        
   2570 ****        27.7500  10.0000  -5.7500 Du        
   2571 ****        27.7500  10.0000  -5.5000 Du        
   2572 ****        27.7500  10.0000  -5.2500 Du        
   2573 ****        27.7500  10.0000  -5.0000 Du        
   2574 ****        27.7500  10.0000  -4.7500 Du        
   2575 ****        27.7500  10.0000  -4.5000 Du        
   2576 ****        27.7500  10.0000  -4.2500 Du        
   2577 ****        27.7500  10.0000  -4.0000 Du        
   2578 ****        27.7500  10.0000  -3.7500 Du        
   2579 ****        27.7500  10.0000  -3.5000 Du        
   2580 ****        27.7500  10.0000  -3.2500 Du        
   2581 ****        27.7500  10.0000  -3.0000 Du        
   2582 ****        27.7500  10.2500  -6.0000 Du        
   2583 ****        27.7500  10.2500  -5.7500 Du        
   2584 ****        27.7500  10.2500  -5.5000 Du        
   2585 ****        27.7500  10.2500  -5.2500 Du        
   2586 ****        27.7500  10.2500  -5.0000 Du        
   2587 ****        27.7500  10.2500  -4.7500 Du        
   2588 ****        27.7500  10.2500  -4.5000 Du        
   2589 ****        27.7500  10.2500  -4.2500 Du        
   2590 ****        27.7500  10.2500  -4.0000 Du        
   2591 ****        27.7500  10.2500  -3.7500 Du        
   2592 ****        27.7500  10.2500  -3.5000 Du        
   2593 ****        27.7500  10.2500   0.2500 Du        
   2594 ****        27.7500  10.2500   0.5000 Du        
   2595 ****        27.7500  10.2500   0.7500 Du        
   2596 ****        27.7500  10.5000  -5.7500 Du        
   2597 ****        27.7500  10.5000  -5.5000 Du        
   2598 ****        27.7500  10.5000  -5.2500 Du        
   2599 ****        27.7500  10.5000  -5.0000 Du        
   2600 ****        27.7500  10.5000  -4.7500 Du        
   2601 ****        27.7500  10.5000  -4.5000 Du        
   2602 ****        27.7500  10.5000  -4.2500 Du        
   2603 ****        27.7500  10.5000  -4.0000 Du        
   2604 ****        27.7500  10.7500  -5.7500 Du        
   2605 ****        27.7500  10.7500  -5.5000 Du        
   2606 ****        27.7500  10.7500  -5.2500 Du        
   2607 ****        27.7500  10.7500  -5.0000 Du        
   2608 ****        27.7500  10.7500  -4.7500 Du        
   2609 ****        27.7500  10.7500  -4.5000 Du        
   2610 ****        27.7500  10.7500  -4.2500 Du        
   2611 ****        27.7500  11.0000  -5.2500 Du        
   2612 ****        27.7500  11.0000  -5.0000 Du        
   2613 ****        27.7500  11.0000  -4.7500 Du        
   2614 ****        28.0000   9.0000  -5.2500 Du        
   2615 ****        28.0000   9.0000  -5.0000 Du        
   2616 ****        28.0000   9.0000  -4.7500 Du        
   2617 ****        28.0000   9.0000  -4.5000 Du        
   2618 ****        28.0000   9.0000  -4.2500 Du        
   2619 ****        28.0000   9.0000  -4.0000 Du        
   2620 ****        28.0000   9.2500  -5.2500 Du        
   2621 ****        28.0000   9.2500  -5.0000 Du        
   2622 ****        28.0000   9.2500  -4.7500 Du        
   2623 ****        28.0000   9.2500  -4.5000 Du        
   2624 ****        28.0000   9.2500  -4.2500 Du        
   2625 ****        28.0000   9.2500  -4.0000 Du        
   2626 ****        28.0000   9.2500  -3.7500 Du        
   2627 ****        28.0000   9.5000  -5.5000 Du        
   2628 ****        28.0000   9.5000  -5.2500 Du        
   2629 ****        28.0000   9.5000  -5.0000 Du        
   2630 ****        28.0000   9.5000  -4.7500 Du        
   2631 ****        28.0000   9.5000  -4.5000 Du        
   2632 ****        28.0000   9.5000  -4.2500 Du        
   2633 ****        28.0000   9.5000  -4.0000 Du        
   2634 ****        28.0000   9.5000  -3.7500 Du        
   2635 ****        28.0000   9.5000  -3.5000 Du        
   2636 ****        28.0000   9.5000  -3.2500 Du        
   2637 ****        28.0000   9.7500  -5.5000 Du        
   2638 ****        28.0000   9.7500  -5.2500 Du        
   2639 ****        28.0000   9.7500  -5.0000 Du        
   2640 ****        28.0000   9.7500  -4.7500 Du        
   2641 ****        28.0000   9.7500  -4.5000 Du        
   2642 ****        28.0000   9.7500  -4.2500 Du        
   2643 ****        28.0000   9.7500  -4.0000 Du        
   2644 ****        28.0000   9.7500  -3.7500 Du        
   2645 ****        28.0000   9.7500  -3.5000 Du        
   2646 ****        28.0000   9.7500  -3.2500 Du        
   2647 ****        28.0000   9.7500  -3.0000 Du        
   2648 ****        28.0000  10.0000  -5.7500 Du        
   2649 ****        28.0000  10.0000  -5.5000 Du        
   2650 ****        28.0000  10.0000  -5.2500 Du        
   2651 ****        28.0000  10.0000  -5.0000 Du        
   2652 ****        28.0000  10.0000  -4.7500 Du        
   2653 ****        28.0000  10.0000  -4.5000 Du        
   2654 ****        28.0000  10.0000  -4.2500 Du        
   2655 ****        28.0000  10.0000  -4.0000 Du        
   2656 ****        28.0000  10.0000  -3.7500 Du        
   2657 ****        28.0000  10.0000  -3.5000 Du        
   2658 ****        28.0000  10.0000  -3.2500 Du        
   2659 ****        28.0000  10.0000  -3.0000 Du        
   2660 ****        28.0000  10.2500  -5.7500 Du        
   2661 ****        28.0000  10.2500  -5.5000 Du        
   2662 ****        28.0000  10.2500  -5.2500 Du        
   2663 ****        28.0000  10.2500  -5.0000 Du        
   2664 ****        28.0000  10.2500  -4.7500 Du        
   2665 ****        28.0000  10.2500  -4.5000 Du        
   2666 ****        28.0000  10.2500  -4.2500 Du        
   2667 ****        28.0000  10.2500  -4.0000 Du        
   2668 ****        28.0000  10.2500  -3.7500 Du        
   2669 ****        28.0000  10.2500  -3.5000 Du        
   2670 ****        28.0000  10.5000  -5.7500 Du        
   2671 ****        28.0000  10.5000  -5.5000 Du        
   2672 ****        28.0000  10.5000  -5.2500 Du        
   2673 ****        28.0000  10.5000  -5.0000 Du        
   2674 ****        28.0000  10.5000  -4.7500 Du        
   2675 ****        28.0000  10.5000  -4.5000 Du        
   2676 ****        28.0000  10.5000  -4.2500 Du        
   2677 ****        28.0000  10.5000  -4.0000 Du        
   2678 ****        28.0000  10.7500  -5.7500 Du        
   2679 ****        28.0000  10.7500  -5.5000 Du        
   2680 ****        28.0000  10.7500  -5.2500 Du        
   2681 ****        28.0000  10.7500  -5.0000 Du        
   2682 ****        28.0000  10.7500  -4.7500 Du        
   2683 ****        28.0000  10.7500  -4.5000 Du        
   2684 ****        28.0000  11.0000  -5.5000 Du        
   2685 ****        28.0000  11.0000  -5.2500 Du        
   2686 ****        28.0000  11.0000  -5.0000 Du        
   2687 ****        28.0000  11.0000  -4.7500 Du        
   2688 ****        28.2500   9.0000  -4.7500 Du        
   2689 ****        28.2500   9.2500  -5.2500 Du        
   2690 ****        28.2500   9.2500  -5.0000 Du        
   2691 ****        28.2500   9.2500  -4.7500 Du        
   2692 ****        28.2500   9.2500  -4.5000 Du        
   2693 ****        28.2500   9.2500  -4.2500 Du        
   2694 ****        28.2500   9.2500  -4.0000 Du        
   2695 ****        28.2500   9.2500  -3.7500 Du        
   2696 ****        28.2500   9.5000  -5.2500 Du        
   2697 ****        28.2500   9.5000  -5.0000 Du        
   2698 ****        28.2500   9.5000  -4.7500 Du        
   2699 ****        28.2500   9.5000  -4.5000 Du        
   2700 ****        28.2500   9.5000  -4.2500 Du        
   2701 ****        28.2500   9.5000  -4.0000 Du        
   2702 ****        28.2500   9.5000  -3.7500 Du        
   2703 ****        28.2500   9.5000  -3.5000 Du        
   2704 ****        28.2500   9.7500  -5.5000 Du        
   2705 ****        28.2500   9.7500  -5.2500 Du        
   2706 ****        28.2500   9.7500  -5.0000 Du        
   2707 ****        28.2500   9.7500  -4.7500 Du        
   2708 ****        28.2500   9.7500  -4.5000 Du        
   2709 ****        28.2500   9.7500  -4.2500 Du        
   2710 ****        28.2500   9.7500  -4.0000 Du        
   2711 ****        28.2500   9.7500  -3.7500 Du        
   2712 ****        28.2500   9.7500  -3.5000 Du        
   2713 ****        28.2500   9.7500  -3.2500 Du        
   2714 ****        28.2500   9.7500  -3.0000 Du        
   2715 ****        28.2500  10.0000  -5.5000 Du        
   2716 ****        28.2500  10.0000  -5.2500 Du        
   2717 ****        28.2500  10.0000  -5.0000 Du        
   2718 ****        28.2500  10.0000  -4.7500 Du        
   2719 ****        28.2500  10.0000  -4.5000 Du        
   2720 ****        28.2500  10.0000  -4.2500 Du        
   2721 ****        28.2500  10.0000  -4.0000 Du        
   2722 ****        28.2500  10.0000  -3.7500 Du        
   2723 ****        28.2500  10.0000  -3.5000 Du        
   2724 ****        28.2500  10.0000  -3.2500 Du        
   2725 ****        28.2500  10.2500  -5.7500 Du        
   2726 ****        28.2500  10.2500  -5.5000 Du        
   2727 ****        28.2500  10.2500  -5.2500 Du        
   2728 ****        28.2500  10.2500  -5.0000 Du        
   2729 ****        28.2500  10.2500  -4.7500 Du        
   2730 ****        28.2500  10.2500  -4.5000 Du        
   2731 ****        28.2500  10.2500  -4.2500 Du        
   2732 ****        28.2500  10.2500  -4.0000 Du        
   2733 ****        28.2500  10.2500  -3.7500 Du        
   2734 ****        28.2500  10.5000  -5.7500 Du        
   2735 ****        28.2500  10.5000  -5.5000 Du        
   2736 ****        28.2500  10.5000  -5.2500 Du        
   2737 ****        28.2500  10.5000  -5.0000 Du        
   2738 ****        28.2500  10.5000  -4.7500 Du        
   2739 ****        28.2500  10.5000  -4.5000 Du        
   2740 ****        28.2500  10.5000  -4.2500 Du        
   2741 ****        28.2500  10.5000  -4.0000 Du        
   2742 ****        28.2500  10.7500  -5.7500 Du        
   2743 ****        28.2500  10.7500  -5.5000 Du        
   2744 ****        28.2500  10.7500  -5.2500 Du        
   2745 ****        28.2500  10.7500  -5.0000 Du        
   2746 ****        28.2500  10.7500  -4.7500 Du        
   2747 ****        28.2500  10.7500  -4.5000 Du        
   2748 ****        28.2500  11.0000  -5.5000 Du        
   2749 ****        28.2500  11.0000  -5.2500 Du        
   2750 ****        28.2500  11.0000  -5.0000 Du        
   2751 ****        28.5000   9.2500  -5.0000 Du        
   2752 ****        28.5000   9.2500  -4.7500 Du        
   2753 ****        28.5000   9.2500  -4.5000 Du        
   2754 ****        28.5000   9.2500  -4.2500 Du        
   2755 ****        28.5000   9.2500  -4.0000 Du        
   2756 ****        28.5000   9.2500  -3.7500 Du        
   2757 ****        28.5000   9.5000  -5.2500 Du        
   2758 ****        28.5000   9.5000  -5.0000 Du        
   2759 ****        28.5000   9.5000  -4.7500 Du        
   2760 ****        28.5000   9.5000  -4.5000 Du        
   2761 ****        28.5000   9.5000  -4.2500 Du        
   2762 ****        28.5000   9.5000  -4.0000 Du        
   2763 ****        28.5000   9.5000  -3.7500 Du        
   2764 ****        28.5000   9.5000  -3.5000 Du        
   2765 ****        28.5000   9.7500  -5.2500 Du        
   2766 ****        28.5000   9.7500  -5.0000 Du        
   2767 ****        28.5000   9.7500  -4.7500 Du        
   2768 ****        28.5000   9.7500  -4.5000 Du        
   2769 ****        28.5000   9.7500  -4.2500 Du        
   2770 ****        28.5000   9.7500  -4.0000 Du        
   2771 ****        28.5000   9.7500  -3.7500 Du        
   2772 ****        28.5000   9.7500  -3.5000 Du        
   2773 ****        28.5000   9.7500  -3.2500 Du        
   2774 ****        28.5000  10.0000  -5.5000 Du        
   2775 ****        28.5000  10.0000  -5.2500 Du        
   2776 ****        28.5000  10.0000  -5.0000 Du        
   2777 ****        28.5000  10.0000  -4.7500 Du        
   2778 ****        28.5000  10.0000  -4.5000 Du        
   2779 ****        28.5000  10.0000  -4.2500 Du        
   2780 ****        28.5000  10.0000  -4.0000 Du        
   2781 ****        28.5000  10.0000  -3.7500 Du        
   2782 ****        28.5000  10.0000  -3.5000 Du        
   2783 ****        28.5000  10.0000  -3.2500 Du        
   2784 ****        28.5000  10.2500  -5.5000 Du        
   2785 ****        28.5000  10.2500  -5.2500 Du        
   2786 ****        28.5000  10.2500  -5.0000 Du        
   2787 ****        28.5000  10.2500  -4.7500 Du        
   2788 ****        28.5000  10.2500  -4.5000 Du        
   2789 ****        28.5000  10.2500  -4.2500 Du        
   2790 ****        28.5000  10.2500  -4.0000 Du        
   2791 ****        28.5000  10.2500  -3.7500 Du        
   2792 ****        28.5000  10.5000  -5.7500 Du        
   2793 ****        28.5000  10.5000  -5.5000 Du        
   2794 ****        28.5000  10.5000  -5.2500 Du        
   2795 ****        28.5000  10.5000  -5.0000 Du        
   2796 ****        28.5000  10.5000  -4.7500 Du        
   2797 ****        28.5000  10.5000  -4.5000 Du        
   2798 ****        28.5000  10.5000  -4.2500 Du        
   2799 ****        28.5000  10.7500  -5.7500 Du        
   2800 ****        28.5000  10.7500  -5.5000 Du        
   2801 ****        28.5000  10.7500  -5.2500 Du        
   2802 ****        28.5000  10.7500  -5.0000 Du        
   2803 ****        28.5000  10.7500  -4.7500 Du        
   2804 ****        28.5000  11.0000  -5.5000 Du        
   2805 ****        28.5000  11.0000  -5.2500 Du        
   2806 ****        28.5000  11.0000  -5.0000 Du        
   2807 ****        28.7500   9.2500  -4.7500 Du        
   2808 ****        28.7500   9.2500  -4.5000 Du        
   2809 ****        28.7500   9.2500  -4.2500 Du        
   2810 ****        28.7500   9.2500  -4.0000 Du        
   2811 ****        28.7500   9.5000  -5.0000 Du        
   2812 ****        28.7500   9.5000  -4.7500 Du        
   2813 ****        28.7500   9.5000  -4.5000 Du        
   2814 ****        28.7500   9.5000  -4.2500 Du        
   2815 ****        28.7500   9.5000  -4.0000 Du        
   2816 ****        28.7500   9.5000  -3.7500 Du        
   2817 ****        28.7500   9.5000  -3.5000 Du        
   2818 ****        28.7500   9.7500  -5.2500 Du        
   2819 ****        28.7500   9.7500  -5.0000 Du        
   2820 ****        28.7500   9.7500  -4.7500 Du        
   2821 ****        28.7500   9.7500  -4.5000 Du        
   2822 ****        28.7500   9.7500  -4.2500 Du        
   2823 ****        28.7500   9.7500  -4.0000 Du        
   2824 ****        28.7500   9.7500  -3.7500 Du        
   2825 ****        28.7500   9.7500  -3.5000 Du        
   2826 ****        28.7500   9.7500  -3.2500 Du        
   2827 ****        28.7500  10.0000  -5.2500 Du        
   2828 ****        28.7500  10.0000  -5.0000 Du        
   2829 ****        28.7500  10.0000  -4.7500 Du        
   2830 ****        28.7500  10.0000  -4.5000 Du        
   2831 ****        28.7500  10.0000  -4.2500 Du        
   2832 ****        28.7500  10.0000  -4.0000 Du        
   2833 ****        28.7500  10.0000  -3.7500 Du        
   2834 ****        28.7500  10.0000  -3.5000 Du        
   2835 ****        28.7500  10.0000  -3.2500 Du        
   2836 ****        28.7500  10.2500  -5.5000 Du        
   2837 ****        28.7500  10.2500  -5.2500 Du        
   2838 ****        28.7500  10.2500  -5.0000 Du        
   2839 ****        28.7500  10.2500  -4.7500 Du        
   2840 ****        28.7500  10.2500  -4.5000 Du        
   2841 ****        28.7500  10.2500  -4.2500 Du        
   2842 ****        28.7500  10.2500  -4.0000 Du        
   2843 ****        28.7500  10.2500  -3.7500 Du        
   2844 ****        28.7500  10.5000  -5.5000 Du        
   2845 ****        28.7500  10.5000  -5.2500 Du        
   2846 ****        28.7500  10.5000  -5.0000 Du        
   2847 ****        28.7500  10.5000  -4.7500 Du        
   2848 ****        28.7500  10.5000  -4.5000 Du        
   2849 ****        28.7500  10.7500  -5.5000 Du        
   2850 ****        28.7500  10.7500  -5.2500 Du        
   2851 ****        28.7500  10.7500  -5.0000 Du        
   2852 ****        28.7500  10.7500  -4.7500 Du        
   2853 ****        28.7500  11.0000  -5.2500 Du        
   2854 ****        29.0000   9.5000  -5.0000 Du        
   2855 ****        29.0000   9.5000  -4.7500 Du        
   2856 ****        29.0000   9.5000  -4.5000 Du        
   2857 ****        29.0000   9.5000  -4.2500 Du        
   2858 ****        29.0000   9.5000  -4.0000 Du        
   2859 ****        29.0000   9.5000  -3.7500 Du        
   2860 ****        29.0000   9.7500  -5.2500 Du        
   2861 ****        29.0000   9.7500  -5.0000 Du        
   2862 ****        29.0000   9.7500  -4.7500 Du        
   2863 ****        29.0000   9.7500  -4.5000 Du        
   2864 ****        29.0000   9.7500  -4.2500 Du        
   2865 ****        29.0000   9.7500  -4.0000 Du        
   2866 ****        29.0000   9.7500  -3.7500 Du        
   2867 ****        29.0000   9.7500  -3.5000 Du        
   2868 ****        29.0000   9.7500  -3.2500 Du        
   2869 ****        29.0000  10.0000  -5.2500 Du        
   2870 ****        29.0000  10.0000  -5.0000 Du        
   2871 ****        29.0000  10.0000  -4.7500 Du        
   2872 ****        29.0000  10.0000  -4.5000 Du        
   2873 ****        29.0000  10.0000  -4.2500 Du        
   2874 ****        29.0000  10.0000  -4.0000 Du        
   2875 ****        29.0000  10.0000  -3.7500 Du        
   2876 ****        29.0000  10.0000  -3.5000 Du        
   2877 ****        29.0000  10.0000  -3.2500 Du        
   2878 ****        29.0000  10.2500  -5.5000 Du        
   2879 ****        29.0000  10.2500  -5.2500 Du        
   2880 ****        29.0000  10.2500  -5.0000 Du        
   2881 ****        29.0000  10.2500  -4.7500 Du        
   2882 ****        29.0000  10.2500  -4.5000 Du        
   2883 ****        29.0000  10.2500  -4.2500 Du        
   2884 ****        29.0000  10.2500  -4.0000 Du        
   2885 ****        29.0000  10.2500  -3.7500 Du        
   2886 ****        29.0000  10.5000  -5.5000 Du        
   2887 ****        29.0000  10.5000  -5.2500 Du        
   2888 ****        29.0000  10.5000  -5.0000 Du        
   2889 ****        29.0000  10.5000  -4.7500 Du        
   2890 ****        29.0000  10.5000  -4.5000 Du        
   2891 ****        29.0000  10.7500  -5.5000 Du        
   2892 ****        29.0000  10.7500  -5.2500 Du        
   2893 ****        29.0000  10.7500  -5.0000 Du        
   2894 ****        29.2500   9.5000  -5.0000 Du        
   2895 ****        29.2500   9.5000  -4.7500 Du        
   2896 ****        29.2500   9.5000  -4.5000 Du        
   2897 ****        29.2500   9.5000  -4.2500 Du        
   2898 ****        29.2500   9.5000  -4.0000 Du        
   2899 ****        29.2500   9.5000  -3.7500 Du        
   2900 ****        29.2500   9.7500  -5.0000 Du        
   2901 ****        29.2500   9.7500  -4.7500 Du        
   2902 ****        29.2500   9.7500  -4.5000 Du        
   2903 ****        29.2500   9.7500  -4.2500 Du        
   2904 ****        29.2500   9.7500  -4.0000 Du        
   2905 ****        29.2500   9.7500  -3.7500 Du        
   2906 ****        29.2500   9.7500  -3.5000 Du        
   2907 ****        29.2500   9.7500  -3.2500 Du        
   2908 ****        29.2500  10.0000  -5.2500 Du        
   2909 ****        29.2500  10.0000  -5.0000 Du        
   2910 ****        29.2500  10.0000  -4.7500 Du        
   2911 ****        29.2500  10.0000  -4.5000 Du        
   2912 ****        29.2500  10.0000  -4.2500 Du        
   2913 ****        29.2500  10.0000  -4.0000 Du        
   2914 ****        29.2500  10.0000  -3.7500 Du        
   2915 ****        29.2500  10.0000  -3.5000 Du        
   2916 ****        29.2500  10.0000  -3.2500 Du        
   2917 ****        29.2500  10.2500  -5.5000 Du        
   2918 ****        29.2500  10.2500  -5.2500 Du        
   2919 ****        29.2500  10.2500  -5.0000 Du        
   2920 ****        29.2500  10.2500  -4.7500 Du        
   2921 ****        29.2500  10.2500  -4.5000 Du        
   2922 ****        29.2500  10.2500  -4.2500 Du        
   2923 ****        29.2500  10.2500  -4.0000 Du        
   2924 ****        29.2500  10.5000  -5.5000 Du        
   2925 ****        29.2500  10.5000  -5.2500 Du        
   2926 ****        29.2500  10.5000  -5.0000 Du        
   2927 ****        29.2500  10.5000  -4.7500 Du        
   2928 ****        29.2500  10.5000  -4.5000 Du        
   2929 ****        29.2500  10.7500  -5.5000 Du        
   2930 ****        29.2500  10.7500  -5.2500 Du        
   2931 ****        29.2500  10.7500  -5.0000 Du        
   2932 ****        29.5000   9.5000  -4.7500 Du        
   2933 ****        29.5000   9.5000  -4.5000 Du        
   2934 ****        29.5000   9.5000  -4.2500 Du        
   2935 ****        29.5000   9.7500  -5.0000 Du        
   2936 ****        29.5000   9.7500  -4.7500 Du        
   2937 ****        29.5000   9.7500  -4.5000 Du        
   2938 ****        29.5000   9.7500  -4.2500 Du        
   2939 ****        29.5000   9.7500  -4.0000 Du        
   2940 ****        29.5000   9.7500  -3.7500 Du        
   2941 ****        29.5000   9.7500  -3.5000 Du        
   2942 ****        29.5000  10.0000  -5.2500 Du        
   2943 ****        29.5000  10.0000  -5.0000 Du        
   2944 ****        29.5000  10.0000  -4.7500 Du        
   2945 ****        29.5000  10.0000  -4.5000 Du        
   2946 ****        29.5000  10.0000  -4.2500 Du        
   2947 ****        29.5000  10.0000  -4.0000 Du        
   2948 ****        29.5000  10.0000  -3.7500 Du        
   2949 ****        29.5000  10.0000  -3.5000 Du        
   2950 ****        29.5000  10.0000  -3.2500 Du        
   2951 ****        29.5000  10.0000  -3.0000 Du        
   2952 ****        29.5000  10.2500  -5.2500 Du        
   2953 ****        29.5000  10.2500  -5.0000 Du        
   2954 ****        29.5000  10.2500  -4.7500 Du        
   2955 ****        29.5000  10.2500  -4.5000 Du        
   2956 ****        29.5000  10.2500  -4.2500 Du        
   2957 ****        29.5000  10.2500  -4.0000 Du        
   2958 ****        29.5000  10.5000  -5.5000 Du        
   2959 ****        29.5000  10.5000  -5.2500 Du        
   2960 ****        29.5000  10.5000  -5.0000 Du        
   2961 ****        29.5000  10.5000  -4.7500 Du        
   2962 ****        29.5000  10.5000  -4.5000 Du        
   2963 ****        29.5000  10.7500  -5.5000 Du        
   2964 ****        29.5000  10.7500  -5.2500 Du        
   2965 ****        29.5000  10.7500  -5.0000 Du        
   2966 ****        29.7500   9.5000  -4.7500 Du        
   2967 ****        29.7500   9.7500  -5.0000 Du        
   2968 ****        29.7500   9.7500  -4.7500 Du        
   2969 ****        29.7500   9.7500  -4.5000 Du        
   2970 ****        29.7500   9.7500  -4.2500 Du        
   2971 ****        29.7500   9.7500  -4.0000 Du        
   2972 ****        29.7500   9.7500  -3.7500 Du        
   2973 ****        29.7500  10.0000  -5.2500 Du        
   2974 ****        29.7500  10.0000  -5.0000 Du        
   2975 ****        29.7500  10.0000  -4.7500 Du        
   2976 ****        29.7500  10.0000  -4.5000 Du        
   2977 ****        29.7500  10.0000  -4.2500 Du        
   2978 ****        29.7500  10.0000  -4.0000 Du        
   2979 ****        29.7500  10.0000  -3.7500 Du        
   2980 ****        29.7500  10.0000  -3.5000 Du        
   2981 ****        29.7500  10.0000  -3.2500 Du        
   2982 ****        29.7500  10.0000  -3.0000 Du        
   2983 ****        29.7500  10.0000  -2.7500 Du        
   2984 ****        29.7500  10.0000  -2.5000 Du        
   2985 ****        29.7500  10.0000  -2.2500 Du        
   2986 ****        29.7500  10.2500  -5.2500 Du        
   2987 ****        29.7500  10.2500  -5.0000 Du        
   2988 ****        29.7500  10.2500  -4.7500 Du        
   2989 ****        29.7500  10.2500  -4.5000 Du        
   2990 ****        29.7500  10.2500  -4.2500 Du        
   2991 ****        29.7500  10.2500  -4.0000 Du        
   2992 ****        29.7500  10.2500  -3.7500 Du        
   2993 ****        29.7500  10.5000  -5.5000 Du        
   2994 ****        29.7500  10.5000  -5.2500 Du        
   2995 ****        29.7500  10.5000  -5.0000 Du        
   2996 ****        29.7500  10.5000  -4.7500 Du        
   2997 ****        29.7500  10.5000  -4.5000 Du        
   2998 ****        29.7500  10.7500  -5.5000 Du        
   2999 ****        29.7500  10.7500  -5.2500 Du        
   3000 ****        29.7500  10.7500  -5.0000 Du        
   3001 ****        30.0000   9.5000  -4.7500 Du        
   3002 ****        30.0000   9.7500  -5.2500 Du        
   3003 ****        30.0000   9.7500  -5.0000 Du        
   3004 ****        30.0000   9.7500  -4.7500 Du        
   3005 ****        30.0000   9.7500  -4.5000 Du        
   3006 ****        30.0000   9.7500  -4.2500 Du        
   3007 ****        30.0000   9.7500  -4.0000 Du        
   3008 ****        30.0000  10.0000  -5.2500 Du        
   3009 ****        30.0000  10.0000  -5.0000 Du        
   3010 ****        30.0000  10.0000  -4.7500 Du        
   3011 ****        30.0000  10.0000  -4.5000 Du        
   3012 ****        30.0000  10.0000  -4.2500 Du        
   3013 ****        30.0000  10.0000  -4.0000 Du        
   3014 ****        30.0000  10.0000  -3.7500 Du        
   3015 ****        30.0000  10.0000  -3.5000 Du        
   3016 ****        30.0000  10.0000  -3.2500 Du        
   3017 ****        30.0000  10.0000  -3.0000 Du        
   3018 ****        30.0000  10.0000  -2.7500 Du        
   3019 ****        30.0000  10.0000  -2.5000 Du        
   3020 ****        30.0000  10.0000  -2.2500 Du        
   3021 ****        30.0000  10.0000  -2.0000 Du        
   3022 ****        30.0000  10.2500  -5.5000 Du        
   3023 ****        30.0000  10.2500  -5.2500 Du        
   3024 ****        30.0000  10.2500  -5.0000 Du        
   3025 ****        30.0000  10.2500  -4.7500 Du        
   3026 ****        30.0000  10.2500  -4.5000 Du        
   3027 ****        30.0000  10.2500  -4.2500 Du        
   3028 ****        30.0000  10.2500  -4.0000 Du        
   3029 ****        30.0000  10.2500  -3.7500 Du        
   3030 ****        30.0000  10.2500  -2.7500 Du        
   3031 ****        30.0000  10.2500  -2.5000 Du        
   3032 ****        30.0000  10.2500  -2.2500 Du        
   3033 ****        30.0000  10.5000  -5.5000 Du        
   3034 ****        30.0000  10.5000  -5.2500 Du        
   3035 ****        30.0000  10.5000  -5.0000 Du        
   3036 ****        30.0000  10.5000  -4.7500 Du        
   3037 ****        30.0000  10.5000  -4.5000 Du        
   3038 ****        30.0000  10.5000  -4.2500 Du        
   3039 ****        30.0000  10.7500  -5.5000 Du        
   3040 ****        30.0000  10.7500  -5.2500 Du        
   3041 ****        30.0000  10.7500  -5.0000 Du        
   3042 ****        30.0000  10.7500  -4.7500 Du        
   3043 ****        30.2500   9.7500  -5.2500 Du        
   3044 ****        30.2500   9.7500  -5.0000 Du        
   3045 ****        30.2500   9.7500  -4.7500 Du        
   3046 ****        30.2500   9.7500  -4.5000 Du        
   3047 ****        30.2500   9.7500  -4.2500 Du        
   3048 ****        30.2500  10.0000  -5.2500 Du        
   3049 ****        30.2500  10.0000  -5.0000 Du        
   3050 ****        30.2500  10.0000  -4.7500 Du        
   3051 ****        30.2500  10.0000  -4.5000 Du        
   3052 ****        30.2500  10.0000  -4.2500 Du        
   3053 ****        30.2500  10.0000  -4.0000 Du        
   3054 ****        30.2500  10.0000  -3.7500 Du        
   3055 ****        30.2500  10.0000  -3.5000 Du        
   3056 ****        30.2500  10.0000  -3.2500 Du        
   3057 ****        30.2500  10.0000  -3.0000 Du        
   3058 ****        30.2500  10.0000  -2.7500 Du        
   3059 ****        30.2500  10.0000  -2.5000 Du        
   3060 ****        30.2500  10.0000  -2.2500 Du        
   3061 ****        30.2500  10.0000  -2.0000 Du        
   3062 ****        30.2500  10.2500  -5.5000 Du        
   3063 ****        30.2500  10.2500  -5.2500 Du        
   3064 ****        30.2500  10.2500  -5.0000 Du        
   3065 ****        30.2500  10.2500  -4.7500 Du        
   3066 ****        30.2500  10.2500  -4.5000 Du        
   3067 ****        30.2500  10.2500  -4.2500 Du        
   3068 ****        30.2500  10.2500  -4.0000 Du        
   3069 ****        30.2500  10.2500  -3.7500 Du        
   3070 ****        30.2500  10.2500  -3.5000 Du        
   3071 ****        30.2500  10.2500  -3.2500 Du        
   3072 ****        30.2500  10.2500  -3.0000 Du        
   3073 ****        30.2500  10.2500  -2.7500 Du        
   3074 ****        30.2500  10.2500  -2.5000 Du        
   3075 ****        30.2500  10.2500  -2.2500 Du        
   3076 ****        30.2500  10.2500  -2.0000 Du        
   3077 ****        30.2500  10.5000  -5.5000 Du        
   3078 ****        30.2500  10.5000  -5.2500 Du        
   3079 ****        30.2500  10.5000  -5.0000 Du        
   3080 ****        30.2500  10.5000  -4.7500 Du        
   3081 ****        30.2500  10.5000  -4.5000 Du        
   3082 ****        30.2500  10.5000  -4.2500 Du        
   3083 ****        30.2500  10.7500  -5.2500 Du        
   3084 ****        30.2500  10.7500  -5.0000 Du        
   3085 ****        30.2500  10.7500  -4.7500 Du        
   3086 ****        30.5000   9.7500  -5.2500 Du        
   3087 ****        30.5000   9.7500  -5.0000 Du        
   3088 ****        30.5000   9.7500  -4.7500 Du        
   3089 ****        30.5000   9.7500  -4.5000 Du        
   3090 ****        30.5000  10.0000  -5.2500 Du        
   3091 ****        30.5000  10.0000  -5.0000 Du        
   3092 ****        30.5000  10.0000  -4.7500 Du        
   3093 ****        30.5000  10.0000  -4.5000 Du        
   3094 ****        30.5000  10.0000  -4.2500 Du        
   3095 ****        30.5000  10.0000  -4.0000 Du        
   3096 ****        30.5000  10.0000  -3.7500 Du        
   3097 ****        30.5000  10.0000  -3.5000 Du        
   3098 ****        30.5000  10.0000  -3.2500 Du        
   3099 ****        30.5000  10.0000  -3.0000 Du        
   3100 ****        30.5000  10.0000  -2.7500 Du        
   3101 ****        30.5000  10.0000  -2.5000 Du        
   3102 ****        30.5000  10.0000  -2.2500 Du        
   3103 ****        30.5000  10.0000  -2.0000 Du        
   3104 ****        30.5000  10.2500  -5.5000 Du        
   3105 ****        30.5000  10.2500  -5.2500 Du        
   3106 ****        30.5000  10.2500  -5.0000 Du        
   3107 ****        30.5000  10.2500  -4.7500 Du        
   3108 ****        30.5000  10.2500  -4.5000 Du        
   3109 ****        30.5000  10.2500  -4.2500 Du        
   3110 ****        30.5000  10.2500  -4.0000 Du        
   3111 ****        30.5000  10.2500  -3.7500 Du        
   3112 ****        30.5000  10.2500  -3.5000 Du        
   3113 ****        30.5000  10.2500  -3.2500 Du        
   3114 ****        30.5000  10.2500  -3.0000 Du        
   3115 ****        30.5000  10.2500  -2.7500 Du        
   3116 ****        30.5000  10.2500  -2.5000 Du        
   3117 ****        30.5000  10.2500  -2.2500 Du        
   3118 ****        30.5000  10.2500  -2.0000 Du        
   3119 ****        30.5000  10.5000  -5.5000 Du        
   3120 ****        30.5000  10.5000  -5.2500 Du        
   3121 ****        30.5000  10.5000  -5.0000 Du        
   3122 ****        30.5000  10.5000  -4.7500 Du        
   3123 ****        30.5000  10.5000  -4.5000 Du        
   3124 ****        30.5000  10.5000  -4.2500 Du        
   3125 ****        30.5000  10.5000  -4.0000 Du        
   3126 ****        30.5000  10.5000  -3.7500 Du        
   3127 ****        30.5000  10.7500  -5.2500 Du        
   3128 ****        30.5000  10.7500  -5.0000 Du        
   3129 ****        30.5000  10.7500  -4.7500 Du        
   3130 ****        30.5000  10.7500  -4.5000 Du        
   3131 ****        30.7500   9.7500  -5.2500 Du        
   3132 ****        30.7500   9.7500  -5.0000 Du        
   3133 ****        30.7500   9.7500  -4.7500 Du        
   3134 ****        30.7500  10.0000  -5.2500 Du        
   3135 ****        30.7500  10.0000  -5.0000 Du        
   3136 ****        30.7500  10.0000  -4.7500 Du        
   3137 ****        30.7500  10.0000  -4.5000 Du        
   3138 ****        30.7500  10.0000  -4.2500 Du        
   3139 ****        30.7500  10.0000  -4.0000 Du        
   3140 ****        30.7500  10.0000  -3.7500 Du        
   3141 ****        30.7500  10.0000  -3.5000 Du        
   3142 ****        30.7500  10.0000  -3.2500 Du        
   3143 ****        30.7500  10.0000  -3.0000 Du        
   3144 ****        30.7500  10.0000  -2.7500 Du        
   3145 ****        30.7500  10.0000  -2.5000 Du        
   3146 ****        30.7500  10.0000  -2.2500 Du        
   3147 ****        30.7500  10.0000  -2.0000 Du        
   3148 ****        30.7500  10.0000  -1.7500 Du        
   3149 ****        30.7500  10.2500  -5.5000 Du        
   3150 ****        30.7500  10.2500  -5.2500 Du        
   3151 ****        30.7500  10.2500  -5.0000 Du        
   3152 ****        30.7500  10.2500  -4.7500 Du        
   3153 ****        30.7500  10.2500  -4.5000 Du        
   3154 ****        30.7500  10.2500  -4.2500 Du        
   3155 ****        30.7500  10.2500  -4.0000 Du        
   3156 ****        30.7500  10.2500  -3.7500 Du        
   3157 ****        30.7500  10.2500  -3.5000 Du        
   3158 ****        30.7500  10.2500  -3.2500 Du        
   3159 ****        30.7500  10.2500  -3.0000 Du        
   3160 ****        30.7500  10.2500  -2.7500 Du        
   3161 ****        30.7500  10.2500  -2.5000 Du        
   3162 ****        30.7500  10.2500  -2.2500 Du        
   3163 ****        30.7500  10.2500  -2.0000 Du        
   3164 ****        30.7500  10.5000  -5.2500 Du        
   3165 ****        30.7500  10.5000  -5.0000 Du        
   3166 ****        30.7500  10.5000  -4.7500 Du        
   3167 ****        30.7500  10.5000  -4.5000 Du        
   3168 ****        30.7500  10.5000  -4.2500 Du        
   3169 ****        30.7500  10.5000  -4.0000 Du        
   3170 ****        30.7500  10.5000  -3.7500 Du        
   3171 ****        30.7500  10.5000  -3.5000 Du        
   3172 ****        30.7500  10.5000  -3.2500 Du        
   3173 ****        30.7500  10.5000  -3.0000 Du        
   3174 ****        30.7500  10.5000  -2.7500 Du        
   3175 ****        30.7500  10.5000  -2.5000 Du        
   3176 ****        30.7500  10.5000  -2.2500 Du        
   3177 ****        30.7500  10.7500  -5.2500 Du        
   3178 ****        30.7500  10.7500  -5.0000 Du        
   3179 ****        30.7500  10.7500  -4.7500 Du        
   3180 ****        30.7500  10.7500  -4.5000 Du        
   3181 ****        30.7500  10.7500  -4.2500 Du        
   3182 ****        31.0000   9.7500  -5.2500 Du        
   3183 ****        31.0000   9.7500  -5.0000 Du        
   3184 ****        31.0000   9.7500  -4.7500 Du        
   3185 ****        31.0000   9.7500  -2.0000 Du        
   3186 ****        31.0000   9.7500  -1.7500 Du        
   3187 ****        31.0000  10.0000  -5.2500 Du        
   3188 ****        31.0000  10.0000  -5.0000 Du        
   3189 ****        31.0000  10.0000  -4.7500 Du        
   3190 ****        31.0000  10.0000  -4.5000 Du        
   3191 ****        31.0000  10.0000  -4.2500 Du        
   3192 ****        31.0000  10.0000  -4.0000 Du        
   3193 ****        31.0000  10.0000  -3.7500 Du        
   3194 ****        31.0000  10.0000  -3.5000 Du        
   3195 ****        31.0000  10.0000  -3.2500 Du        
   3196 ****        31.0000  10.0000  -3.0000 Du        
   3197 ****        31.0000  10.0000  -2.7500 Du        
   3198 ****        31.0000  10.0000  -2.5000 Du        
   3199 ****        31.0000  10.0000  -2.2500 Du        
   3200 ****        31.0000  10.0000  -2.0000 Du        
   3201 ****        31.0000  10.0000  -1.7500 Du        
   3202 ****        31.0000  10.2500  -5.5000 Du        
   3203 ****        31.0000  10.2500  -5.2500 Du        
   3204 ****        31.0000  10.2500  -5.0000 Du        
   3205 ****        31.0000  10.2500  -4.7500 Du        
   3206 ****        31.0000  10.2500  -4.5000 Du        
   3207 ****        31.0000  10.2500  -4.2500 Du        
   3208 ****        31.0000  10.2500  -4.0000 Du        
   3209 ****        31.0000  10.2500  -3.7500 Du        
   3210 ****        31.0000  10.2500  -3.5000 Du        
   3211 ****        31.0000  10.2500  -3.2500 Du        
   3212 ****        31.0000  10.2500  -3.0000 Du        
   3213 ****        31.0000  10.2500  -2.7500 Du        
   3214 ****        31.0000  10.2500  -2.5000 Du        
   3215 ****        31.0000  10.2500  -2.2500 Du        
   3216 ****        31.0000  10.2500  -2.0000 Du        
   3217 ****        31.0000  10.5000  -5.2500 Du        
   3218 ****        31.0000  10.5000  -5.0000 Du        
   3219 ****        31.0000  10.5000  -4.7500 Du        
   3220 ****        31.0000  10.5000  -4.5000 Du        
   3221 ****        31.0000  10.5000  -4.2500 Du        
   3222 ****        31.0000  10.5000  -4.0000 Du        
   3223 ****        31.0000  10.5000  -3.7500 Du        
   3224 ****        31.0000  10.5000  -3.5000 Du        
   3225 ****        31.0000  10.5000  -3.2500 Du        
   3226 ****        31.0000  10.5000  -3.0000 Du        
   3227 ****        31.0000  10.5000  -2.7500 Du        
   3228 ****        31.0000  10.5000  -2.5000 Du        
   3229 ****        31.0000  10.5000  -2.2500 Du        
   3230 ****        31.0000  10.7500  -5.2500 Du        
   3231 ****        31.0000  10.7500  -5.0000 Du        
   3232 ****        31.0000  10.7500  -4.7500 Du        
   3233 ****        31.0000  10.7500  -4.5000 Du        
   3234 ****        31.0000  10.7500  -4.2500 Du        
   3235 ****        31.0000  10.7500  -4.0000 Du        
   3236 ****        31.0000  10.7500  -3.7500 Du        
   3237 ****        31.0000  11.0000  -4.7500 Du        
   3238 ****        31.2500   9.7500  -5.0000 Du        
   3239 ****        31.2500   9.7500  -2.0000 Du        
   3240 ****        31.2500   9.7500  -1.7500 Du        
   3241 ****        31.2500  10.0000  -5.2500 Du        
   3242 ****        31.2500  10.0000  -5.0000 Du        
   3243 ****        31.2500  10.0000  -4.7500 Du        
   3244 ****        31.2500  10.0000  -4.5000 Du        
   3245 ****        31.2500  10.0000  -4.2500 Du        
   3246 ****        31.2500  10.0000  -4.0000 Du        
   3247 ****        31.2500  10.0000  -3.7500 Du        
   3248 ****        31.2500  10.0000  -3.5000 Du        
   3249 ****        31.2500  10.0000  -3.2500 Du        
   3250 ****        31.2500  10.0000  -3.0000 Du        
   3251 ****        31.2500  10.0000  -2.7500 Du        
   3252 ****        31.2500  10.0000  -2.5000 Du        
   3253 ****        31.2500  10.0000  -2.2500 Du        
   3254 ****        31.2500  10.0000  -2.0000 Du        
   3255 ****        31.2500  10.0000  -1.7500 Du        
   3256 ****        31.2500  10.2500  -5.5000 Du        
   3257 ****        31.2500  10.2500  -5.2500 Du        
   3258 ****        31.2500  10.2500  -5.0000 Du        
   3259 ****        31.2500  10.2500  -4.7500 Du        
   3260 ****        31.2500  10.2500  -4.5000 Du        
   3261 ****        31.2500  10.2500  -4.2500 Du        
   3262 ****        31.2500  10.2500  -4.0000 Du        
   3263 ****        31.2500  10.2500  -3.7500 Du        
   3264 ****        31.2500  10.2500  -3.5000 Du        
   3265 ****        31.2500  10.2500  -3.2500 Du        
   3266 ****        31.2500  10.2500  -3.0000 Du        
   3267 ****        31.2500  10.2500  -2.7500 Du        
   3268 ****        31.2500  10.2500  -2.5000 Du        
   3269 ****        31.2500  10.2500  -2.2500 Du        
   3270 ****        31.2500  10.2500  -2.0000 Du        
   3271 ****        31.2500  10.5000  -5.2500 Du        
   3272 ****        31.2500  10.5000  -5.0000 Du        
   3273 ****        31.2500  10.5000  -4.7500 Du        
   3274 ****        31.2500  10.5000  -4.5000 Du        
   3275 ****        31.2500  10.5000  -4.2500 Du        
   3276 ****        31.2500  10.5000  -4.0000 Du        
   3277 ****        31.2500  10.5000  -3.7500 Du        
   3278 ****        31.2500  10.5000  -3.5000 Du        
   3279 ****        31.2500  10.5000  -3.2500 Du        
   3280 ****        31.2500  10.5000  -3.0000 Du        
   3281 ****        31.2500  10.5000  -2.7500 Du        
   3282 ****        31.2500  10.5000  -2.5000 Du        
   3283 ****        31.2500  10.5000  -2.2500 Du        
   3284 ****        31.2500  10.7500  -5.0000 Du        
   3285 ****        31.2500  10.7500  -4.7500 Du        
   3286 ****        31.2500  10.7500  -4.5000 Du        
   3287 ****        31.2500  10.7500  -4.2500 Du        
   3288 ****        31.2500  10.7500  -4.0000 Du        
   3289 ****        31.2500  10.7500  -3.7500 Du        
   3290 ****        31.2500  10.7500  -3.5000 Du        
   3291 ****        31.2500  10.7500  -3.2500 Du        
   3292 ****        31.2500  10.7500  -3.0000 Du        
   3293 ****        31.2500  10.7500  -2.7500 Du        
   3294 ****        31.2500  11.0000  -4.7500 Du        
   3295 ****        31.2500  11.0000  -4.5000 Du        
   3296 ****        31.2500  11.0000  -4.2500 Du        
   3297 ****        31.5000   7.7500   3.7500 Du        
   3298 ****        31.5000   8.0000   3.7500 Du        
   3299 ****        31.5000   9.7500  -2.0000 Du        
   3300 ****        31.5000   9.7500  -1.7500 Du        
   3301 ****        31.5000   9.7500  -1.5000 Du        
   3302 ****        31.5000  10.0000  -5.2500 Du        
   3303 ****        31.5000  10.0000  -5.0000 Du        
   3304 ****        31.5000  10.0000  -4.7500 Du        
   3305 ****        31.5000  10.0000  -4.5000 Du        
   3306 ****        31.5000  10.0000  -4.2500 Du        
   3307 ****        31.5000  10.0000  -4.0000 Du        
   3308 ****        31.5000  10.0000  -3.7500 Du        
   3309 ****        31.5000  10.0000  -3.5000 Du        
   3310 ****        31.5000  10.0000  -3.2500 Du        
   3311 ****        31.5000  10.0000  -3.0000 Du        
   3312 ****        31.5000  10.0000  -2.7500 Du        
   3313 ****        31.5000  10.0000  -2.5000 Du        
   3314 ****        31.5000  10.0000  -2.2500 Du        
   3315 ****        31.5000  10.0000  -2.0000 Du        
   3316 ****        31.5000  10.0000  -1.7500 Du        
   3317 ****        31.5000  10.2500  -5.5000 Du        
   3318 ****        31.5000  10.2500  -5.2500 Du        
   3319 ****        31.5000  10.2500  -5.0000 Du        
   3320 ****        31.5000  10.2500  -4.7500 Du        
   3321 ****        31.5000  10.2500  -4.5000 Du        
   3322 ****        31.5000  10.2500  -4.2500 Du        
   3323 ****        31.5000  10.2500  -4.0000 Du        
   3324 ****        31.5000  10.2500  -3.7500 Du        
   3325 ****        31.5000  10.2500  -3.5000 Du        
   3326 ****        31.5000  10.2500  -3.2500 Du        
   3327 ****        31.5000  10.2500  -3.0000 Du        
   3328 ****        31.5000  10.2500  -2.7500 Du        
   3329 ****        31.5000  10.2500  -2.5000 Du        
   3330 ****        31.5000  10.2500  -2.2500 Du        
   3331 ****        31.5000  10.2500  -2.0000 Du        
   3332 ****        31.5000  10.5000  -5.2500 Du        
   3333 ****        31.5000  10.5000  -5.0000 Du        
   3334 ****        31.5000  10.5000  -4.7500 Du        
   3335 ****        31.5000  10.5000  -4.5000 Du        
   3336 ****        31.5000  10.5000  -4.2500 Du        
   3337 ****        31.5000  10.5000  -4.0000 Du        
   3338 ****        31.5000  10.5000  -3.7500 Du        
   3339 ****        31.5000  10.5000  -3.5000 Du        
   3340 ****        31.5000  10.5000  -3.2500 Du        
   3341 ****        31.5000  10.5000  -3.0000 Du        
   3342 ****        31.5000  10.5000  -2.7500 Du        
   3343 ****        31.5000  10.5000  -2.5000 Du        
   3344 ****        31.5000  10.5000  -2.2500 Du        
   3345 ****        31.5000  10.7500  -5.0000 Du        
   3346 ****        31.5000  10.7500  -4.7500 Du        
   3347 ****        31.5000  10.7500  -4.5000 Du        
   3348 ****        31.5000  10.7500  -4.2500 Du        
   3349 ****        31.5000  10.7500  -4.0000 Du        
   3350 ****        31.5000  10.7500  -3.7500 Du        
   3351 ****        31.5000  10.7500  -3.5000 Du        
   3352 ****        31.5000  10.7500  -3.2500 Du        
   3353 ****        31.5000  10.7500  -3.0000 Du        
   3354 ****        31.5000  10.7500  -2.7500 Du        
   3355 ****        31.5000  11.0000  -4.7500 Du        
   3356 ****        31.5000  11.0000  -4.5000 Du        
   3357 ****        31.7500   8.0000   3.7500 Du        
   3358 ****        31.7500   8.2500   3.7500 Du        
   3359 ****        31.7500   9.7500  -2.2500 Du        
   3360 ****        31.7500   9.7500  -2.0000 Du        
   3361 ****        31.7500   9.7500  -1.7500 Du        
   3362 ****        31.7500   9.7500  -1.5000 Du        
   3363 ****        31.7500  10.0000  -5.2500 Du        
   3364 ****        31.7500  10.0000  -5.0000 Du        
   3365 ****        31.7500  10.0000  -4.7500 Du        
   3366 ****        31.7500  10.0000  -4.5000 Du        
   3367 ****        31.7500  10.0000  -4.2500 Du        
   3368 ****        31.7500  10.0000  -4.0000 Du        
   3369 ****        31.7500  10.0000  -3.7500 Du        
   3370 ****        31.7500  10.0000  -3.5000 Du        
   3371 ****        31.7500  10.0000  -3.2500 Du        
   3372 ****        31.7500  10.0000  -3.0000 Du        
   3373 ****        31.7500  10.0000  -2.7500 Du        
   3374 ****        31.7500  10.0000  -2.5000 Du        
   3375 ****        31.7500  10.0000  -2.2500 Du        
   3376 ****        31.7500  10.0000  -2.0000 Du        
   3377 ****        31.7500  10.0000  -1.7500 Du        
   3378 ****        31.7500  10.0000  -1.5000 Du        
   3379 ****        31.7500  10.2500  -5.5000 Du        
   3380 ****        31.7500  10.2500  -5.2500 Du        
   3381 ****        31.7500  10.2500  -5.0000 Du        
   3382 ****        31.7500  10.2500  -4.7500 Du        
   3383 ****        31.7500  10.2500  -4.5000 Du        
   3384 ****        31.7500  10.2500  -4.2500 Du        
   3385 ****        31.7500  10.2500  -4.0000 Du        
   3386 ****        31.7500  10.2500  -3.7500 Du        
   3387 ****        31.7500  10.2500  -3.5000 Du        
   3388 ****        31.7500  10.2500  -3.2500 Du        
   3389 ****        31.7500  10.2500  -3.0000 Du        
   3390 ****        31.7500  10.2500  -2.7500 Du        
   3391 ****        31.7500  10.2500  -2.5000 Du        
   3392 ****        31.7500  10.2500  -2.2500 Du        
   3393 ****        31.7500  10.2500  -2.0000 Du        
   3394 ****        31.7500  10.2500  -1.7500 Du        
   3395 ****        31.7500  10.5000  -5.2500 Du        
   3396 ****        31.7500  10.5000  -5.0000 Du        
   3397 ****        31.7500  10.5000  -4.7500 Du        
   3398 ****        31.7500  10.5000  -4.5000 Du        
   3399 ****        31.7500  10.5000  -4.2500 Du        
   3400 ****        31.7500  10.5000  -4.0000 Du        
   3401 ****        31.7500  10.5000  -3.7500 Du        
   3402 ****        31.7500  10.5000  -3.5000 Du        
   3403 ****        31.7500  10.5000  -3.2500 Du        
   3404 ****        31.7500  10.5000  -3.0000 Du        
   3405 ****        31.7500  10.5000  -2.7500 Du        
   3406 ****        31.7500  10.5000  -2.5000 Du        
   3407 ****        31.7500  10.5000  -2.2500 Du        
   3408 ****        31.7500  10.7500  -5.0000 Du        
   3409 ****        31.7500  10.7500  -4.7500 Du        
   3410 ****        31.7500  10.7500  -4.5000 Du        
   3411 ****        31.7500  10.7500  -4.2500 Du        
   3412 ****        31.7500  10.7500  -4.0000 Du        
   3413 ****        31.7500  10.7500  -3.7500 Du        
   3414 ****        31.7500  10.7500  -3.5000 Du        
   3415 ****        31.7500  10.7500  -3.2500 Du        
   3416 ****        31.7500  10.7500  -3.0000 Du        
   3417 ****        32.0000   9.5000  -1.7500 Du        
   3418 ****        32.0000   9.7500  -2.5000 Du        
   3419 ****        32.0000   9.7500  -2.2500 Du        
   3420 ****        32.0000   9.7500  -2.0000 Du        
   3421 ****        32.0000   9.7500  -1.7500 Du        
   3422 ****        32.0000   9.7500  -1.5000 Du        
   3423 ****        32.0000  10.0000  -5.2500 Du        
   3424 ****        32.0000  10.0000  -5.0000 Du        
   3425 ****        32.0000  10.0000  -4.7500 Du        
   3426 ****        32.0000  10.0000  -4.5000 Du        
   3427 ****        32.0000  10.0000  -4.2500 Du        
   3428 ****        32.0000  10.0000  -4.0000 Du        
   3429 ****        32.0000  10.0000  -3.7500 Du        
   3430 ****        32.0000  10.0000  -3.5000 Du        
   3431 ****        32.0000  10.0000  -3.2500 Du        
   3432 ****        32.0000  10.0000  -3.0000 Du        
   3433 ****        32.0000  10.0000  -2.7500 Du        
   3434 ****        32.0000  10.0000  -2.5000 Du        
   3435 ****        32.0000  10.0000  -2.2500 Du        
   3436 ****        32.0000  10.0000  -2.0000 Du        
   3437 ****        32.0000  10.0000  -1.7500 Du        
   3438 ****        32.0000  10.0000  -1.5000 Du        
   3439 ****        32.0000  10.2500  -5.5000 Du        
   3440 ****        32.0000  10.2500  -5.2500 Du        
   3441 ****        32.0000  10.2500  -5.0000 Du        
   3442 ****        32.0000  10.2500  -4.7500 Du        
   3443 ****        32.0000  10.2500  -4.5000 Du        
   3444 ****        32.0000  10.2500  -4.2500 Du        
   3445 ****        32.0000  10.2500  -4.0000 Du        
   3446 ****        32.0000  10.2500  -3.7500 Du        
   3447 ****        32.0000  10.2500  -3.5000 Du        
   3448 ****        32.0000  10.2500  -3.2500 Du        
   3449 ****        32.0000  10.2500  -3.0000 Du        
   3450 ****        32.0000  10.2500  -2.7500 Du        
   3451 ****        32.0000  10.2500  -2.5000 Du        
   3452 ****        32.0000  10.2500  -2.2500 Du        
   3453 ****        32.0000  10.2500  -2.0000 Du        
   3454 ****        32.0000  10.2500  -1.7500 Du        
   3455 ****        32.0000  10.5000  -5.2500 Du        
   3456 ****        32.0000  10.5000  -5.0000 Du        
   3457 ****        32.0000  10.5000  -4.7500 Du        
   3458 ****        32.0000  10.5000  -4.5000 Du        
   3459 ****        32.0000  10.5000  -4.2500 Du        
   3460 ****        32.0000  10.5000  -4.0000 Du        
   3461 ****        32.0000  10.5000  -3.7500 Du        
   3462 ****        32.0000  10.5000  -3.5000 Du        
   3463 ****        32.0000  10.5000  -3.2500 Du        
   3464 ****        32.0000  10.5000  -3.0000 Du        
   3465 ****        32.0000  10.5000  -2.7500 Du        
   3466 ****        32.0000  10.5000  -2.5000 Du        
   3467 ****        32.0000  10.5000  -2.2500 Du        
   3468 ****        32.0000  10.7500  -5.0000 Du        
   3469 ****        32.0000  10.7500  -4.7500 Du        
   3470 ****        32.0000  10.7500  -4.5000 Du        
   3471 ****        32.0000  10.7500  -4.2500 Du        
   3472 ****        32.0000  10.7500  -4.0000 Du        
   3473 ****        32.0000  10.7500  -3.7500 Du        
   3474 ****        32.2500   9.5000  -2.0000 Du        
   3475 ****        32.2500   9.5000  -1.7500 Du        
   3476 ****        32.2500   9.7500  -2.7500 Du        
   3477 ****        32.2500   9.7500  -2.5000 Du        
   3478 ****        32.2500   9.7500  -2.2500 Du        
   3479 ****        32.2500   9.7500  -2.0000 Du        
   3480 ****        32.2500   9.7500  -1.7500 Du        
   3481 ****        32.2500   9.7500  -1.5000 Du        
   3482 ****        32.2500  10.0000  -5.2500 Du        
   3483 ****        32.2500  10.0000  -5.0000 Du        
   3484 ****        32.2500  10.0000  -4.7500 Du        
   3485 ****        32.2500  10.0000  -4.5000 Du        
   3486 ****        32.2500  10.0000  -4.2500 Du        
   3487 ****        32.2500  10.0000  -4.0000 Du        
   3488 ****        32.2500  10.0000  -3.7500 Du        
   3489 ****        32.2500  10.0000  -3.5000 Du        
   3490 ****        32.2500  10.0000  -3.2500 Du        
   3491 ****        32.2500  10.0000  -3.0000 Du        
   3492 ****        32.2500  10.0000  -2.7500 Du        
   3493 ****        32.2500  10.0000  -2.5000 Du        
   3494 ****        32.2500  10.0000  -2.2500 Du        
   3495 ****        32.2500  10.0000  -2.0000 Du        
   3496 ****        32.2500  10.0000  -1.7500 Du        
   3497 ****        32.2500  10.0000  -1.5000 Du        
   3498 ****        32.2500  10.2500  -5.5000 Du        
   3499 ****        32.2500  10.2500  -5.2500 Du        
   3500 ****        32.2500  10.2500  -5.0000 Du        
   3501 ****        32.2500  10.2500  -4.7500 Du        
   3502 ****        32.2500  10.2500  -4.5000 Du        
   3503 ****        32.2500  10.2500  -4.2500 Du        
   3504 ****        32.2500  10.2500  -4.0000 Du        
   3505 ****        32.2500  10.2500  -3.7500 Du        
   3506 ****        32.2500  10.2500  -3.5000 Du        
   3507 ****        32.2500  10.2500  -3.2500 Du        
   3508 ****        32.2500  10.2500  -3.0000 Du        
   3509 ****        32.2500  10.2500  -2.7500 Du        
   3510 ****        32.2500  10.2500  -2.5000 Du        
   3511 ****        32.2500  10.2500  -2.2500 Du        
   3512 ****        32.2500  10.2500  -2.0000 Du        
   3513 ****        32.2500  10.2500  -1.7500 Du        
   3514 ****        32.2500  10.5000  -5.2500 Du        
   3515 ****        32.2500  10.5000  -5.0000 Du        
   3516 ****        32.2500  10.5000  -4.7500 Du        
   3517 ****        32.2500  10.5000  -4.5000 Du        
   3518 ****        32.2500  10.5000  -4.2500 Du        
   3519 ****        32.2500  10.5000  -4.0000 Du        
   3520 ****        32.2500  10.5000  -3.7500 Du        
   3521 ****        32.2500  10.5000  -3.5000 Du        
   3522 ****        32.2500  10.5000  -3.2500 Du        
   3523 ****        32.2500  10.5000  -3.0000 Du        
   3524 ****        32.2500  10.5000  -2.7500 Du        
   3525 ****        32.2500  10.5000  -2.5000 Du        
   3526 ****        32.2500  10.5000  -2.2500 Du        
   3527 ****        32.2500  10.7500  -5.0000 Du        
   3528 ****        32.2500  10.7500  -4.7500 Du        
   3529 ****        32.2500  10.7500  -4.5000 Du        
   3530 ****        32.2500  10.7500  -4.2500 Du        
   3531 ****        32.5000   9.5000  -2.2500 Du        
   3532 ****        32.5000   9.5000  -2.0000 Du        
   3533 ****        32.5000   9.7500  -3.0000 Du        
   3534 ****        32.5000   9.7500  -2.7500 Du        
   3535 ****        32.5000   9.7500  -2.5000 Du        
   3536 ****        32.5000   9.7500  -2.2500 Du        
   3537 ****        32.5000   9.7500  -2.0000 Du        
   3538 ****        32.5000   9.7500  -1.7500 Du        
   3539 ****        32.5000  10.0000  -4.7500 Du        
   3540 ****        32.5000  10.0000  -4.5000 Du        
   3541 ****        32.5000  10.0000  -4.2500 Du        
   3542 ****        32.5000  10.0000  -4.0000 Du        
   3543 ****        32.5000  10.0000  -3.7500 Du        
   3544 ****        32.5000  10.0000  -3.5000 Du        
   3545 ****        32.5000  10.0000  -3.2500 Du        
   3546 ****        32.5000  10.0000  -3.0000 Du        
   3547 ****        32.5000  10.0000  -2.7500 Du        
   3548 ****        32.5000  10.0000  -2.5000 Du        
   3549 ****        32.5000  10.0000  -2.2500 Du        
   3550 ****        32.5000  10.0000  -2.0000 Du        
   3551 ****        32.5000  10.0000  -1.7500 Du        
   3552 ****        32.5000  10.2500  -5.2500 Du        
   3553 ****        32.5000  10.2500  -5.0000 Du        
   3554 ****        32.5000  10.2500  -4.7500 Du        
   3555 ****        32.5000  10.2500  -4.5000 Du        
   3556 ****        32.5000  10.2500  -4.2500 Du        
   3557 ****        32.5000  10.2500  -4.0000 Du        
   3558 ****        32.5000  10.2500  -3.7500 Du        
   3559 ****        32.5000  10.2500  -3.5000 Du        
   3560 ****        32.5000  10.2500  -3.2500 Du        
   3561 ****        32.5000  10.2500  -3.0000 Du        
   3562 ****        32.5000  10.2500  -2.7500 Du        
   3563 ****        32.5000  10.2500  -2.5000 Du        
   3564 ****        32.5000  10.2500  -2.2500 Du        
   3565 ****        32.5000  10.2500  -2.0000 Du        
   3566 ****        32.5000  10.2500  -1.7500 Du        
   3567 ****        32.5000  10.5000  -5.0000 Du        
   3568 ****        32.5000  10.5000  -4.7500 Du        
   3569 ****        32.5000  10.5000  -4.5000 Du        
   3570 ****        32.5000  10.5000  -4.2500 Du        
   3571 ****        32.5000  10.5000  -4.0000 Du        
   3572 ****        32.5000  10.5000  -3.7500 Du        
   3573 ****        32.5000  10.5000  -3.5000 Du        
   3574 ****        32.5000  10.5000  -3.2500 Du        
   3575 ****        32.5000  10.5000  -3.0000 Du        
   3576 ****        32.5000  10.5000  -2.7500 Du        
   3577 ****        32.5000  10.5000  -2.5000 Du        
   3578 ****        32.7500   9.5000  -2.5000 Du        
   3579 ****        32.7500   9.5000  -2.2500 Du        
   3580 ****        32.7500   9.5000  -2.0000 Du        
   3581 ****        32.7500   9.7500  -3.2500 Du        
   3582 ****        32.7500   9.7500  -3.0000 Du        
   3583 ****        32.7500   9.7500  -2.7500 Du        
   3584 ****        32.7500   9.7500  -2.5000 Du        
   3585 ****        32.7500   9.7500  -2.2500 Du        
   3586 ****        32.7500   9.7500  -2.0000 Du        
   3587 ****        32.7500   9.7500  -1.7500 Du        
   3588 ****        32.7500  10.0000  -4.0000 Du        
   3589 ****        32.7500  10.0000  -3.7500 Du        
   3590 ****        32.7500  10.0000  -3.5000 Du        
   3591 ****        32.7500  10.0000  -3.2500 Du        
   3592 ****        32.7500  10.0000  -3.0000 Du        
   3593 ****        32.7500  10.0000  -2.7500 Du        
   3594 ****        32.7500  10.0000  -2.5000 Du        
   3595 ****        32.7500  10.0000  -2.2500 Du        
   3596 ****        32.7500  10.0000  -2.0000 Du        
   3597 ****        32.7500  10.0000  -1.7500 Du        
   3598 ****        32.7500  10.2500  -4.2500 Du        
   3599 ****        32.7500  10.2500  -4.0000 Du        
   3600 ****        32.7500  10.2500  -3.7500 Du        
   3601 ****        32.7500  10.2500  -3.5000 Du        
   3602 ****        32.7500  10.2500  -3.2500 Du        
   3603 ****        32.7500  10.2500  -3.0000 Du        
   3604 ****        32.7500  10.2500  -2.7500 Du        
   3605 ****        32.7500  10.2500  -2.5000 Du        
   3606 ****        32.7500  10.2500  -2.2500 Du        
   3607 ****        32.7500  10.2500  -2.0000 Du        
   3608 ****        32.7500  10.2500  -1.7500 Du        
   3609 ****        32.7500  10.5000  -4.2500 Du        
   3610 ****        32.7500  10.5000  -4.0000 Du        
   3611 ****        32.7500  10.5000  -3.7500 Du        
   3612 ****        32.7500  10.5000  -3.5000 Du        
   3613 ****        32.7500  10.5000  -3.2500 Du        
   3614 ****        33.0000   9.5000  -2.7500 Du        
   3615 ****        33.0000   9.5000  -2.5000 Du        
   3616 ****        33.0000   9.5000  -2.2500 Du        
   3617 ****        33.0000   9.5000  -2.0000 Du        
   3618 ****        33.0000   9.7500  -3.5000 Du        
   3619 ****        33.0000   9.7500  -3.2500 Du        
   3620 ****        33.0000   9.7500  -3.0000 Du        
   3621 ****        33.0000   9.7500  -2.7500 Du        
   3622 ****        33.0000   9.7500  -2.5000 Du        
   3623 ****        33.0000   9.7500  -2.2500 Du        
   3624 ****        33.0000   9.7500  -2.0000 Du        
   3625 ****        33.0000  10.0000  -3.7500 Du        
   3626 ****        33.0000  10.0000  -3.5000 Du        
   3627 ****        33.0000  10.0000  -3.2500 Du        
   3628 ****        33.0000  10.0000  -3.0000 Du        
   3629 ****        33.0000  10.0000  -2.7500 Du        
   3630 ****        33.0000  10.0000  -2.5000 Du        
   3631 ****        33.0000  10.0000  -2.2500 Du        
   3632 ****        33.0000  10.0000  -2.0000 Du        
   3633 ****        33.0000  10.2500  -3.7500 Du        
   3634 ****        33.0000  10.2500  -3.5000 Du        
   3635 ****        33.0000  10.2500  -3.2500 Du        
   3636 ****        33.0000  10.2500  -3.0000 Du        
   3637 ****        33.0000  10.2500  -2.7500 Du        
   3638 ****        33.0000  10.2500  -2.5000 Du        
   3639 ****        33.0000  10.2500  -2.2500 Du        
   3640 ****        33.0000  10.2500  -2.0000 Du        
   3641 ****        33.2500   9.5000  -2.7500 Du        
   3642 ****        33.2500   9.5000  -2.5000 Du        
   3643 ****        33.2500   9.5000  -2.2500 Du        
   3644 ****        33.2500   9.7500  -3.2500 Du        
   3645 ****        33.2500   9.7500  -3.0000 Du        
   3646 ****        33.2500   9.7500  -2.7500 Du        
   3647 ****        33.2500   9.7500  -2.5000 Du        
   3648 ****        33.2500   9.7500  -2.2500 Du        
   3649 ****        33.2500  10.0000  -3.5000 Du        
   3650 ****        33.2500  10.0000  -3.2500 Du        
   3651 ****        33.2500  10.0000  -3.0000 Du        
   3652 ****        33.2500  10.0000  -2.7500 Du        
   3653 ****        33.2500  10.0000  -2.5000 Du        
   3654 ****        33.2500  10.0000  -2.2500 Du        
   3655 ****        33.2500  10.2500  -3.2500 Du        
   3656 ****        33.2500  10.2500  -3.0000 Du        
