#       Name:                CT1002167954
#       Creating user name   hitesit
#       Creation time:       Sun Apr 16 22:50:30 2023


#       File generated by GOLD software.
#

@<TRIPOS>MOLECULE
CT1002167954|ligand_prepared|mol2|1|dock4
    29    30     1
SMALL
NO_CHARGES


@<TRIPOS>ATOM
      1 C1          26.9627   9.1913  -3.0384 C.3            1 RES1               0.0000
      2 C2          28.2878   9.6325  -3.6928 C.ar           1 RES1               0.0000
      3 C3          25.8684  10.0504  -3.6651 C.2            1 RES1               0.0000
      4 C4          26.8223   7.6999  -3.3229 C.2            1 RES1               0.0000
      5 C5          26.9262   9.3907  -1.5053 C.3            1 RES1               0.0000
      6 C6          28.3457   9.9168  -5.0539 C.ar           1 RES1               0.0000
      7 C7          29.4578   9.7622  -2.9493 C.ar           1 RES1               0.0000
      8 N8          25.0370   9.4552  -4.5675 N.am           1 RES1               0.0000
      9 O9          25.7616  11.2416  -3.4012 O.2            1 RES1               0.0000
     10 N10         25.7924   7.2946  -4.1308 N.am           1 RES1               0.0000
     11 O11         27.6041   6.8739  -2.8682 O.2            1 RES1               0.0000
     12 C12         25.5384   9.2459  -0.9010 C.3            1 RES1               0.0000
     13 C13         29.5296  10.3190  -5.6496 C.ar           1 RES1               0.0000
     14 C14         30.6408  10.1643  -3.5470 C.ar           1 RES1               0.0000
     15 C15         24.9118   8.1076  -4.7909 C.2            1 RES1               0.0000
     16 C16         30.6777  10.4435  -4.8966 C.ar           1 RES1               0.0000
     17 O17         24.0460   7.6709  -5.5438 O.2            1 RES1               0.0000
     18 H18         27.5933   8.6561  -1.0377 H              1 RES1               0.0000
     19 H19         27.3111  10.3906  -1.2700 H              1 RES1               0.0000
     20 H20         27.4529   9.8221  -5.6630 H              1 RES1               0.0000
     21 H21         29.4525   9.5469  -1.8861 H              1 RES1               0.0000
     22 H22         24.4545  10.0689  -5.1283 H              1 RES1               0.0000
     23 H23         25.6710   6.2940  -4.2512 H              1 RES1               0.0000
     24 H24         25.5692   9.3953   0.1762 H              1 RES1               0.0000
     25 H25         24.8547   9.9783  -1.3252 H              1 RES1               0.0000
     26 H26         25.1352   8.2540  -1.0943 H              1 RES1               0.0000
     27 H27         29.5538  10.5362  -6.7124 H              1 RES1               0.0000
     28 H28         31.5421  10.2603  -2.9506 H              1 RES1               0.0000
     29 H29         31.6050  10.7590  -5.3634 H              1 RES1               0.0000
@<TRIPOS>BOND
    1    1    2 1     
    2    1    3 1     
    3    1    4 1     
    4    1    5 1     
    5    2    6 ar    
    6    2    7 ar    
    7    3    8 1     
    8    3    9 2     
    9    4   10 1     
   10    4   11 2     
   11    5   12 1     
   12    5   18 1     
   13    5   19 1     
   14    6   13 ar    
   15    6   20 1     
   16    7   14 ar    
   17    7   21 1     
   18    8   15 1     
   19    8   22 1     
   20   10   15 1     
   21   10   23 1     
   22   12   24 1     
   23   12   25 1     
   24   12   26 1     
   25   13   16 ar    
   26   13   27 1     
   27   14   16 ar    
   28   14   28 1     
   29   15   17 2     
   30   16   29 1     
@<TRIPOS>SUBSTRUCTURE
      1 RES1           1
@<TRIPOS>SET
DONOR_HYDROGENS      STATIC     ATOMS    <user>   **** ""
2 22 23
ATOM$RED        STATIC     ATOMS    COLORGROUP SYSTEM
2 22 23
@<TRIPOS>COMMENT
> <Gold.Version>
2022.3.0

> <Gold.Id.Protein>
unknown|3nx8_clean|pdb

> <Gold.Protein.RotatedTorsions>
[  549  544  542  539 ] final  123.05 input   60.01 | X-H torsion
[ 2770 2763 2761 2758 ] final  -57.11 input   60.01 | X-H torsion
[ 5056 5047 5046 5044 ] final  162.00 input   59.99 | X-H torsion
[ 1860 1855 1854 1851 ] final   -8.08 input   60.02 | X-H torsion
[  567  564  563  560 ] final  -30.71 input   60.03 | X-H torsion
[ 2456 2451 2450 2448 ] final   53.77 input   59.99 | X-H torsion
[ 2535 2524 2523 2522 ] final  -51.47 input   60.02 | X-H torsion

> <Gold.Protein.ActiveResidues>
 THR48   LEU49   GLY50   THR51   GLY52   SER53   PHE54   GLY55   ARG56   VAL57  
 MET58   ALA70   LYS72   GLU91   VAL104  MET120  TYR122  VAL123  GLY126  GLU127 
 MET128  PHE129  SER130  TYR164  ASP166  LYS168  PRO169  GLU170  ASN171  LEU172 
 LEU173  GLN181  VAL182  THR183  ASP184  PHE185  GLY186  ASN326  PHE327  ASP328 
 TYR330 

> <Gold.Protein.RotatedAtoms>
   19.3409   11.4314   -4.8767 H   0  0  0  0  0  0  0  0  0  0  0  0  # atno 549  bound_to 544 
   22.2539    9.4367    2.6157 H   0  0  0  0  0  0  0  0  0  0  0  0  # atno 567  bound_to 564 
   25.2863    4.3281  -11.7538 H   0  0  0  0  0  0  0  0  0  0  0  0  # atno 1860 bound_to 1855
   27.2932    3.0132    2.7680 H   0  0  0  0  0  0  0  0  0  0  0  0  # atno 2456 bound_to 2451
   18.6187    3.6452   -1.8131 H   0  0  0  0  0  0  0  0  0  0  0  0  # atno 2535 bound_to 2524
   18.9262    3.7605   -0.1885 H   0  0  0  0  0  0  0  0  0  0  0  0  # atno 2536 bound_to 2524
   19.3395    5.0065   -1.2010 H   0  0  0  0  0  0  0  0  0  0  0  0  # atno 2537 bound_to 2524
   28.7976    8.2124    0.9475 H   0  0  0  0  0  0  0  0  0  0  0  0  # atno 2770 bound_to 2763
   22.1834   10.0154   -8.7769 H   0  0  0  0  0  0  0  0  0  0  0  0  # atno 5056 bound_to 5047
   20.7665   10.8528   -5.4068 LP  0  0  0  0  0  0  0  0  0  0  0  0  # atno 5356 bound_to 544 
   20.0208   12.0602   -6.2148 LP  0  0  0  0  0  0  0  0  0  0  0  0  # atno 5357 bound_to 544 
   29.6798    8.7600   -0.3059 LP  0  0  0  0  0  0  0  0  0  0  0  0  # atno 5378 bound_to 2763
   30.4154    8.3252    1.0856 LP  0  0  0  0  0  0  0  0  0  0  0  0  # atno 5379 bound_to 2763
   23.7742   10.0750   -9.1146 LP  0  0  0  0  0  0  0  0  0  0  0  0  # atno 5382 bound_to 5047
   22.6959    9.7632  -10.3007 LP  0  0  0  0  0  0  0  0  0  0  0  0  # atno 5383 bound_to 5047
   25.9644    5.3410  -12.8321 LP  0  0  0  0  0  0  0  0  0  0  0  0  # atno 5388 bound_to 1855
   26.8536    4.7392  -11.6018 LP  0  0  0  0  0  0  0  0  0  0  0  0  # atno 5389 bound_to 1855
   22.2568    8.6875    4.0607 LP  0  0  0  0  0  0  0  0  0  0  0  0  # atno 5398 bound_to 564 
   21.6829   10.2106    3.9288 LP  0  0  0  0  0  0  0  0  0  0  0  0  # atno 5399 bound_to 564 
   25.7517    3.4675    3.0253 LP  0  0  0  0  0  0  0  0  0  0  0  0  # atno 5400 bound_to 2451
   26.0772    2.1579    2.1057 LP  0  0  0  0  0  0  0  0  0  0  0  0  # atno 5401 bound_to 2451

> <Gold.Score>
     Fitness  S(hb_ext) S(vdw_ext)  S(hb_int)    S(int)      intcor
     35.94       1.61      25.16       0.00      -0.27      -0.77

> <Gold.Goldscore.Fitness>
35.9444

> <Gold.Goldscore.Internal.Vdw>
-0.4170

> <Gold.Goldscore.Internal.Torsion>
-0.6169

> <Gold.Goldscore.External.Vdw>
25.1608

> <Gold.Goldscore.Internal.HBond>
0.0000

> <Gold.Goldscore.External.HBond>
1.6135

> <Gold.Goldscore.Internal.Correction>
-0.7686

> <Gold.Goldscore.Hbonds>
donor molecule, donor type, donor heavy atom, donor atom, acceptor molecule, acceptor atom, score
      L1  H    10    23       P1  2555  0.81

> <Gold.Goldscore.Internal.Vdw.Weighted>
-0.4170

> <Gold.Goldscore.Internal.Torsion.Weighted>
-0.6169

> <Gold.Goldscore.External.Vdw.Weighted>
34.5961

> <Gold.Goldscore.Internal.HBond.Weighted>
0.0000

> <Gold.Goldscore.External.HBond.Weighted>
1.6135

> <Gold.Goldscore.Internal.Correction.Weighted>
-0.7686

> <Gold.Rescore>
     Score     S(PLP)   S(hbond)     S(cho)   S(metal)  DE(clash)   DE(tors)     intcor
     29.04     -27.40       1.23       0.00       0.00       0.00       1.03       ----

> <Gold.PLP.Fitness>
29.0357

> <Gold.PLP.PLP>
-27.4044

> <Gold.PLP.part.hbond>
-2.9891

> <Gold.PLP.part.metal>
0.0000

> <Gold.PLP.part.buried>
9.4671

> <Gold.PLP.part.nonpolar>
-37.0974

> <Gold.PLP.part.repulsive>
2.0344

> <Gold.PLP.ligand.clash>
0.0000

> <Gold.PLP.ligand.torsion>
1.0276

> <Gold.PLP.Chemscore.Hbond>
1.2288

> <Gold.PLP.Chemscore.CHOScore>
0.0000

> <Gold.PLP.Chemscore.Metal>
0.0000

> <Gold.Chemscore.Hbonds>
donor molecule, donor type, donor heavy atom, donor atom, acceptor molecule, acceptor atom, score
      L1  H    10    23       P1  2555  1.00

> <Gold.PLP.Chemscore.Internal.Correction>
   9.000000E+99

