#       Name:                CT1002167954
#       Creating user name   hitesit
#       Creation time:       Sun Apr 16 22:50:37 2023


#       File generated by GOLD software.
#

@<TRIPOS>MOLECULE
CT1002167954|ligand_prepared|mol2|1|dock10
    29    30     1
SMALL
NO_CHARGES


@<TRIPOS>ATOM
      1 C1          25.8285   9.2124  -3.6347 C.3            1 RES1               0.0000
      2 C2          24.5565   8.5416  -4.1922 C.ar           1 RES1               0.0000
      3 C3          25.4195  10.6195  -3.2094 C.2            1 RES1               0.0000
      4 C4          26.3080   8.3303  -2.4872 C.2            1 RES1               0.0000
      5 C5          26.9777   9.3246  -4.6634 C.3            1 RES1               0.0000
      6 C6          23.8199   7.6581  -3.4089 C.ar           1 RES1               0.0000
      7 C7          24.1065   8.7980  -5.4847 C.ar           1 RES1               0.0000
      8 N8          25.3105  10.8691  -1.8731 N.am           1 RES1               0.0000
      9 O9          25.1582  11.4860  -4.0348 O.2            1 RES1               0.0000
     10 N10         26.2757   8.8512  -1.2202 N.am           1 RES1               0.0000
     11 O11         26.6977   7.1831  -2.6668 O.2            1 RES1               0.0000
     12 C12         28.2967   9.7833  -4.0616 C.3            1 RES1               0.0000
     13 C13         22.6733   7.0550  -3.8988 C.ar           1 RES1               0.0000
     14 C14         22.9597   8.1936  -5.9727 C.ar           1 RES1               0.0000
     15 C15         25.7699  10.0697  -0.8574 C.2            1 RES1               0.0000
     16 C16         22.2422   7.3226  -5.1806 C.ar           1 RES1               0.0000
     17 O17         25.7258  10.4459   0.3103 O.2            1 RES1               0.0000
     18 H18         27.1264   8.3455  -5.1351 H              1 RES1               0.0000
     19 H19         26.6821  10.0329  -5.4472 H              1 RES1               0.0000
     20 H20         24.1450   7.4334  -2.3986 H              1 RES1               0.0000
     21 H21         24.6556   9.4789  -6.1261 H              1 RES1               0.0000
     22 H22         24.8442  11.7296  -1.6041 H              1 RES1               0.0000
     23 H23         26.6650   8.2775  -0.4788 H              1 RES1               0.0000
     24 H24         29.0685   9.8452  -4.8258 H              1 RES1               0.0000
     25 H25         28.1917  10.7656  -3.6056 H              1 RES1               0.0000
     26 H26         28.6334   9.0882  -3.2953 H              1 RES1               0.0000
     27 H27         22.1129   6.3693  -3.2719 H              1 RES1               0.0000
     28 H28         22.6245   8.4066  -6.9824 H              1 RES1               0.0000
     29 H29         21.3438   6.8504  -5.5640 H              1 RES1               0.0000
@<TRIPOS>BOND
    1    1    2 1     
    2    1    3 1     
    3    1    4 1     
    4    1    5 1     
    5    2    6 ar    
    6    2    7 ar    
    7    3    8 1     
    8    3    9 2     
    9    4   10 1     
   10    4   11 2     
   11    5   12 1     
   12    5   18 1     
   13    5   19 1     
   14    6   13 ar    
   15    6   20 1     
   16    7   14 ar    
   17    7   21 1     
   18    8   15 1     
   19    8   22 1     
   20   10   15 1     
   21   10   23 1     
   22   12   24 1     
   23   12   25 1     
   24   12   26 1     
   25   13   16 ar    
   26   13   27 1     
   27   14   16 ar    
   28   14   28 1     
   29   15   17 2     
   30   16   29 1     
@<TRIPOS>SUBSTRUCTURE
      1 RES1           1
@<TRIPOS>SET
DONOR_HYDROGENS      STATIC     ATOMS    <user>   **** ""
2 22 23
ATOM$RED        STATIC     ATOMS    COLORGROUP SYSTEM
2 22 23
@<TRIPOS>COMMENT
> <Gold.Version>
2022.3.0

> <Gold.Id.Protein>
unknown|3nx8_clean|pdb

> <Gold.Protein.RotatedTorsions>
[  549  544  542  539 ] final -168.70 input   60.01 | X-H torsion
[ 2770 2763 2761 2758 ] final -142.12 input   60.01 | X-H torsion
[ 5056 5047 5046 5044 ] final -169.48 input   59.99 | X-H torsion
[ 1860 1855 1854 1851 ] final  -79.58 input   60.02 | X-H torsion
[  567  564  563  560 ] final -169.63 input   60.03 | X-H torsion
[ 2456 2451 2450 2448 ] final   26.43 input   59.99 | X-H torsion
[ 2535 2524 2523 2522 ] final  171.02 input   60.02 | X-H torsion

> <Gold.Protein.ActiveResidues>
 THR48   LEU49   GLY50   THR51   GLY52   SER53   PHE54   GLY55   ARG56   VAL57  
 MET58   ALA70   LYS72   GLU91   VAL104  MET120  TYR122  VAL123  GLY126  GLU127 
 MET128  PHE129  SER130  TYR164  ASP166  LYS168  PRO169  GLU170  ASN171  LEU172 
 LEU173  GLN181  VAL182  THR183  ASP184  PHE185  GLY186  ASN326  PHE327  ASP328 
 TYR330 

> <Gold.Protein.RotatedAtoms>
   19.3849   12.0854   -5.6976 H   0  0  0  0  0  0  0  0  0  0  0  0  # atno 549  bound_to 544 
   22.1365    8.8761    4.2738 H   0  0  0  0  0  0  0  0  0  0  0  0  # atno 567  bound_to 564 
   25.3128    4.9777  -12.6338 H   0  0  0  0  0  0  0  0  0  0  0  0  # atno 1860 bound_to 1855
   27.1050    3.3431    2.9952 H   0  0  0  0  0  0  0  0  0  0  0  0  # atno 2456 bound_to 2451
   19.3754    4.9868   -0.9124 H   0  0  0  0  0  0  0  0  0  0  0  0  # atno 2535 bound_to 2524
   18.7070    3.8850   -1.9547 H   0  0  0  0  0  0  0  0  0  0  0  0  # atno 2536 bound_to 2524
   18.8029    3.5423   -0.3354 H   0  0  0  0  0  0  0  0  0  0  0  0  # atno 2537 bound_to 2524
   29.1365    8.6600   -0.1869 H   0  0  0  0  0  0  0  0  0  0  0  0  # atno 2770 bound_to 2763
   21.9731    9.9225   -9.1767 H   0  0  0  0  0  0  0  0  0  0  0  0  # atno 5056 bound_to 5047
   19.9420   10.8894   -4.7450 LP  0  0  0  0  0  0  0  0  0  0  0  0  # atno 5356 bound_to 544 
   20.8010   11.3650   -6.0498 LP  0  0  0  0  0  0  0  0  0  0  0  0  # atno 5357 bound_to 544 
   30.5673    8.5257    0.5775 LP  0  0  0  0  0  0  0  0  0  0  0  0  # atno 5378 bound_to 2763
   29.1868    8.1090    1.3439 LP  0  0  0  0  0  0  0  0  0  0  0  0  # atno 5379 bound_to 2763
   23.5236   10.1288   -8.7274 LP  0  0  0  0  0  0  0  0  0  0  0  0  # atno 5382 bound_to 5047
   23.1583    9.8030  -10.2853 LP  0  0  0  0  0  0  0  0  0  0  0  0  # atno 5383 bound_to 5047
   26.8723    5.1991  -12.2248 LP  0  0  0  0  0  0  0  0  0  0  0  0  # atno 5388 bound_to 1855
   25.9190    4.2270  -11.3232 LP  0  0  0  0  0  0  0  0  0  0  0  0  # atno 5389 bound_to 1855
   21.7037   10.3097    3.6359 LP  0  0  0  0  0  0  0  0  0  0  0  0  # atno 5398 bound_to 564 
   22.3543    9.1527    2.6846 LP  0  0  0  0  0  0  0  0  0  0  0  0  # atno 5399 bound_to 564 
   25.4974    3.1745    2.8062 LP  0  0  0  0  0  0  0  0  0  0  0  0  # atno 5400 bound_to 2451
   26.5209    2.1188    2.0960 LP  0  0  0  0  0  0  0  0  0  0  0  0  # atno 5401 bound_to 2451

> <Gold.Score>
     Fitness  S(hb_ext) S(vdw_ext)  S(hb_int)    S(int)      intcor
     37.26       0.00      27.91       0.00      -1.11      -0.77

> <Gold.Goldscore.Fitness>
37.2639

> <Gold.Goldscore.Internal.Vdw>
-1.3858

> <Gold.Goldscore.Internal.Torsion>
-0.4938

> <Gold.Goldscore.External.Vdw>
27.9090

> <Gold.Goldscore.Internal.HBond>
0.0000

> <Gold.Goldscore.External.HBond>
0.0000

> <Gold.Goldscore.Internal.Correction>
-0.7686

> <Gold.Goldscore.Internal.Vdw.Weighted>
-1.3858

> <Gold.Goldscore.Internal.Torsion.Weighted>
-0.4938

> <Gold.Goldscore.External.Vdw.Weighted>
38.3749

> <Gold.Goldscore.Internal.HBond.Weighted>
0.0000

> <Gold.Goldscore.External.HBond.Weighted>
0.0000

> <Gold.Goldscore.Internal.Correction.Weighted>
-0.7686

> <Gold.Rescore>
     Score     S(PLP)   S(hbond)     S(cho)   S(metal)  DE(clash)   DE(tors)     intcor
      8.22     -10.57       0.00       0.00       0.00       1.18       0.58       ----

> <Gold.PLP.Fitness>
8.2241

> <Gold.PLP.PLP>
-10.5681

> <Gold.PLP.part.hbond>
-1.0000

> <Gold.PLP.part.metal>
0.0000

> <Gold.PLP.part.buried>
16.1871

> <Gold.PLP.part.nonpolar>
-31.9221

> <Gold.PLP.part.repulsive>
4.2557

> <Gold.PLP.ligand.clash>
1.1822

> <Gold.PLP.ligand.torsion>
0.5809

> <Gold.PLP.Chemscore.Hbond>
0.0000

> <Gold.PLP.Chemscore.CHOScore>
0.0000

> <Gold.PLP.Chemscore.Metal>
0.0000

> <Gold.PLP.Chemscore.Internal.Correction>
   9.000000E+99

