#       Name:                CT1002167954
#       Creating user name   hitesit
#       Creation time:       Sun Apr 16 22:50:35 2023


#       File generated by GOLD software.
#

@<TRIPOS>MOLECULE
CT1002167954|ligand_prepared|mol2|1|dock8
    29    30     1
SMALL
NO_CHARGES


@<TRIPOS>ATOM
      1 C1          26.7473   9.3555  -3.4406 C.3            1 RES1               0.0000
      2 C2          26.8689   9.6175  -1.9256 C.ar           1 RES1               0.0000
      3 C3          26.7960   7.8408  -3.6188 C.2            1 RES1               0.0000
      4 C4          25.4330   9.9916  -3.8795 C.2            1 RES1               0.0000
      5 C5          27.8855   9.9852  -4.2769 C.3            1 RES1               0.0000
      6 C6          25.7398   9.6082  -1.1120 C.ar           1 RES1               0.0000
      7 C7          28.1014   9.8669  -1.3277 C.ar           1 RES1               0.0000
      8 N8          25.6303   7.2029  -3.9256 N.am           1 RES1               0.0000
      9 O9          27.8335   7.2110  -3.4536 O.2            1 RES1               0.0000
     10 N10         24.4366   9.1636  -4.3262 N.am           1 RES1               0.0000
     11 O11         25.2453  11.2008  -3.8268 O.2            1 RES1               0.0000
     12 C12         27.6317   9.9591  -5.7759 C.3            1 RES1               0.0000
     13 C13         25.8395   9.8370   0.2503 C.ar           1 RES1               0.0000
     14 C14         28.1988  10.0957   0.0349 C.ar           1 RES1               0.0000
     15 C15         24.4648   7.7957  -4.3402 C.2            1 RES1               0.0000
     16 C16         27.0689  10.0804   0.8247 C.ar           1 RES1               0.0000
     17 O17         23.5082   7.1186  -4.7055 O.2            1 RES1               0.0000
     18 H18         28.0220  11.0265  -3.9600 H              1 RES1               0.0000
     19 H19         28.8176   9.4461  -4.0673 H              1 RES1               0.0000
     20 H20         24.7636   9.4209  -1.5466 H              1 RES1               0.0000
     21 H21         29.0035   9.8847  -1.9297 H              1 RES1               0.0000
     22 H22         25.6247   6.1916  -3.8387 H              1 RES1               0.0000
     23 H23         23.5961   9.6083  -4.6813 H              1 RES1               0.0000
     24 H24         28.4603  10.4129  -6.3155 H              1 RES1               0.0000
     25 H25         27.5162   8.9368  -6.1299 H              1 RES1               0.0000
     26 H26         26.7252  10.5078  -6.0232 H              1 RES1               0.0000
     27 H27         24.9471   9.8253   0.8674 H              1 RES1               0.0000
     28 H28         29.1683  10.2874   0.4826 H              1 RES1               0.0000
     29 H29         27.1468  10.2592   1.8920 H              1 RES1               0.0000
@<TRIPOS>BOND
    1    1    2 1     
    2    1    3 1     
    3    1    4 1     
    4    1    5 1     
    5    2    6 ar    
    6    2    7 ar    
    7    3    8 1     
    8    3    9 2     
    9    4   10 1     
   10    4   11 2     
   11    5   12 1     
   12    5   18 1     
   13    5   19 1     
   14    6   13 ar    
   15    6   20 1     
   16    7   14 ar    
   17    7   21 1     
   18    8   15 1     
   19    8   22 1     
   20   10   15 1     
   21   10   23 1     
   22   12   24 1     
   23   12   25 1     
   24   12   26 1     
   25   13   16 ar    
   26   13   27 1     
   27   14   16 ar    
   28   14   28 1     
   29   15   17 2     
   30   16   29 1     
@<TRIPOS>SUBSTRUCTURE
      1 RES1           1
@<TRIPOS>SET
DONOR_HYDROGENS      STATIC     ATOMS    <user>   **** ""
2 22 23
ATOM$RED        STATIC     ATOMS    COLORGROUP SYSTEM
2 22 23
@<TRIPOS>COMMENT
> <Gold.Version>
2022.3.0

> <Gold.Id.Protein>
unknown|3nx8_clean|pdb

> <Gold.Protein.RotatedTorsions>
[  549  544  542  539 ] final   -5.46 input   60.01 | X-H torsion
[ 2770 2763 2761 2758 ] final   22.29 input   60.01 | X-H torsion
[ 5056 5047 5046 5044 ] final  129.84 input   59.99 | X-H torsion
[ 1860 1855 1854 1851 ] final  116.02 input   60.02 | X-H torsion
[  567  564  563  560 ] final  117.65 input   60.03 | X-H torsion
[ 2456 2451 2450 2448 ] final  138.48 input   59.99 | X-H torsion
[ 2535 2524 2523 2522 ] final -179.48 input   60.02 | X-H torsion

> <Gold.Protein.ActiveResidues>
 THR48   LEU49   GLY50   THR51   GLY52   SER53   PHE54   GLY55   ARG56   VAL57  
 MET58   ALA70   LYS72   GLU91   VAL104  MET120  TYR122  VAL123  GLY126  GLU127 
 MET128  PHE129  SER130  TYR164  ASP166  LYS168  PRO169  GLU170  ASN171  LEU172 
 LEU173  GLN181  VAL182  THR183  ASP184  PHE185  GLY186  ASN326  PHE327  ASP328 
 TYR330 

> <Gold.Protein.RotatedAtoms>
   20.8125   10.9182   -5.5212 H   0  0  0  0  0  0  0  0  0  0  0  0  # atno 549  bound_to 544 
   21.7290    9.9092    4.2738 H   0  0  0  0  0  0  0  0  0  0  0  0  # atno 567  bound_to 564 
   26.8747    4.7794  -11.6520 H   0  0  0  0  0  0  0  0  0  0  0  0  # atno 1860 bound_to 1855
   26.6464    2.1434    2.1218 H   0  0  0  0  0  0  0  0  0  0  0  0  # atno 2456 bound_to 2451
   19.3606    5.0078   -1.0689 H   0  0  0  0  0  0  0  0  0  0  0  0  # atno 2535 bound_to 2524
   18.6558    3.7507   -1.8876 H   0  0  0  0  0  0  0  0  0  0  0  0  # atno 2536 bound_to 2524
   18.8688    3.6555   -0.2462 H   0  0  0  0  0  0  0  0  0  0  0  0  # atno 2537 bound_to 2524
   29.8910    8.1453    1.4289 H   0  0  0  0  0  0  0  0  0  0  0  0  # atno 2770 bound_to 2763
   22.6199   10.1010   -8.5099 H   0  0  0  0  0  0  0  0  0  0  0  0  # atno 5056 bound_to 5047
   19.8986   12.1028   -6.1613 LP  0  0  0  0  0  0  0  0  0  0  0  0  # atno 5356 bound_to 544 
   19.4065   11.3272   -4.8111 LP  0  0  0  0  0  0  0  0  0  0  0  0  # atno 5357 bound_to 544 
   28.7170    8.4295    0.3379 LP  0  0  0  0  0  0  0  0  0  0  0  0  # atno 5378 bound_to 2763
   30.2776    8.7233   -0.0428 LP  0  0  0  0  0  0  0  0  0  0  0  0  # atno 5379 bound_to 2763
   23.7964    9.9790   -9.6276 LP  0  0  0  0  0  0  0  0  0  0  0  0  # atno 5382 bound_to 5047
   22.2343    9.7730  -10.0565 LP  0  0  0  0  0  0  0  0  0  0  0  0  # atno 5383 bound_to 5047
   25.3193    4.3031  -11.7002 LP  0  0  0  0  0  0  0  0  0  0  0  0  # atno 5388 bound_to 1855
   25.8995    5.3226  -12.8363 LP  0  0  0  0  0  0  0  0  0  0  0  0  # atno 5389 bound_to 1855
   22.0768    9.8561    2.6847 LP  0  0  0  0  0  0  0  0  0  0  0  0  # atno 5398 bound_to 564 
   22.3914    8.5664    3.6357 LP  0  0  0  0  0  0  0  0  0  0  0  0  # atno 5399 bound_to 564 
   27.0213    3.4275    3.0488 LP  0  0  0  0  0  0  0  0  0  0  0  0  # atno 5400 bound_to 2451
   25.4588    3.0736    2.7327 LP  0  0  0  0  0  0  0  0  0  0  0  0  # atno 5401 bound_to 2451

> <Gold.Score>
     Fitness  S(hb_ext) S(vdw_ext)  S(hb_int)    S(int)      intcor
     41.34       1.02      29.51       0.00      -0.26      -0.77

> <Gold.Goldscore.Fitness>
41.3399

> <Gold.Goldscore.Internal.Vdw>
-0.4706

> <Gold.Goldscore.Internal.Torsion>
-0.5560

> <Gold.Goldscore.External.Vdw>
29.5140

> <Gold.Goldscore.Internal.HBond>
0.0000

> <Gold.Goldscore.External.HBond>
1.0160

> <Gold.Goldscore.Internal.Correction>
-0.7686

> <Gold.Goldscore.Hbonds>
donor molecule, donor type, donor heavy atom, donor atom, acceptor molecule, acceptor atom, score
      L1  H     8    22       P1  2555  0.50
      L1  H    10    23       P1   541  0.01

> <Gold.Goldscore.Internal.Vdw.Weighted>
-0.4706

> <Gold.Goldscore.Internal.Torsion.Weighted>
-0.5560

> <Gold.Goldscore.External.Vdw.Weighted>
40.5818

> <Gold.Goldscore.Internal.HBond.Weighted>
0.0000

> <Gold.Goldscore.External.HBond.Weighted>
1.0160

> <Gold.Goldscore.Internal.Correction.Weighted>
-0.7686

> <Gold.Rescore>
     Score     S(PLP)   S(hbond)     S(cho)   S(metal)  DE(clash)   DE(tors)     intcor
     21.51     -19.73       1.40       0.00       0.00       0.00       1.21       ----

> <Gold.PLP.Fitness>
21.5067

> <Gold.PLP.PLP>
-19.7313

> <Gold.PLP.part.hbond>
-3.0000

> <Gold.PLP.part.metal>
0.0000

> <Gold.PLP.part.buried>
16.3070

> <Gold.PLP.part.nonpolar>
-38.3492

> <Gold.PLP.part.repulsive>
3.2461

> <Gold.PLP.ligand.clash>
0.0000

> <Gold.PLP.ligand.torsion>
1.2087

> <Gold.PLP.Chemscore.Hbond>
1.3976

> <Gold.PLP.Chemscore.CHOScore>
0.0000

> <Gold.PLP.Chemscore.Metal>
0.0000

> <Gold.Chemscore.Hbonds>
donor molecule, donor type, donor heavy atom, donor atom, acceptor molecule, acceptor atom, score
      L1  H     8    22       P1  2555  1.00
      L1  H    10    23       P1   541  0.49

> <Gold.PLP.Chemscore.Internal.Correction>
   9.000000E+99

