#       Name:                CT1002167954
#       Creating user name   hitesit
#       Creation time:       Sun Apr 16 22:50:33 2023


#       File generated by GOLD software.
#

@<TRIPOS>MOLECULE
CT1002167954|ligand_prepared|mol2|1|dock6
    29    30     1
SMALL
NO_CHARGES


@<TRIPOS>ATOM
      1 C1          27.9935   9.5051  -3.5020 C.3            1 RES1               0.0000
      2 C2          29.5057   9.5272  -3.1991 C.ar           1 RES1               0.0000
      3 C3          27.7445   8.2608  -4.3493 C.2            1 RES1               0.0000
      4 C4          27.2879   9.4890  -2.1505 C.2            1 RES1               0.0000
      5 C5          27.4953  10.7412  -4.2864 C.3            1 RES1               0.0000
      6 C6          30.4324   9.6684  -4.2277 C.ar           1 RES1               0.0000
      7 C7          29.9881   9.4104  -1.8983 C.ar           1 RES1               0.0000
      8 N8          27.1283   7.2016  -3.7505 N.am           1 RES1               0.0000
      9 O9          28.1185   8.1952  -5.5138 O.2            1 RES1               0.0000
     10 N10         26.5662   8.3731  -1.8163 N.am           1 RES1               0.0000
     11 O11         27.3641  10.4257  -1.3650 O.2            1 RES1               0.0000
     12 C12         25.9896  10.9432  -4.2205 C.3            1 RES1               0.0000
     13 C13         31.7920   9.6949  -3.9651 C.ar           1 RES1               0.0000
     14 C14         31.3482   9.4369  -1.6379 C.ar           1 RES1               0.0000
     15 C15         26.4797   7.2163  -2.5419 C.2            1 RES1               0.0000
     16 C16         32.2509   9.5796  -2.6702 C.ar           1 RES1               0.0000
     17 O17         25.8551   6.2350  -2.1494 O.2            1 RES1               0.0000
     18 H18         27.9893  11.6355  -3.8870 H              1 RES1               0.0000
     19 H19         27.7916  10.6356  -5.3373 H              1 RES1               0.0000
     20 H20         30.0902   9.7580  -5.2533 H              1 RES1               0.0000
     21 H21         29.2964   9.2962  -1.0705 H              1 RES1               0.0000
     22 H22         27.1521   6.3168  -4.2473 H              1 RES1               0.0000
     23 H23         26.0450   8.4081  -0.9459 H              1 RES1               0.0000
     24 H24         25.6934  11.8235  -4.7870 H              1 RES1               0.0000
     25 H25         25.4666  10.0829  -4.6329 H              1 RES1               0.0000
     26 H26         25.6631  11.0769  -3.1912 H              1 RES1               0.0000
     27 H27         32.4983   9.8060  -4.7812 H              1 RES1               0.0000
     28 H28         31.7049   9.3452  -0.6173 H              1 RES1               0.0000
     29 H29         33.3160   9.6008  -2.4647 H              1 RES1               0.0000
@<TRIPOS>BOND
    1    1    2 1     
    2    1    3 1     
    3    1    4 1     
    4    1    5 1     
    5    2    6 ar    
    6    2    7 ar    
    7    3    8 1     
    8    3    9 2     
    9    4   10 1     
   10    4   11 2     
   11    5   12 1     
   12    5   18 1     
   13    5   19 1     
   14    6   13 ar    
   15    6   20 1     
   16    7   14 ar    
   17    7   21 1     
   18    8   15 1     
   19    8   22 1     
   20   10   15 1     
   21   10   23 1     
   22   12   24 1     
   23   12   25 1     
   24   12   26 1     
   25   13   16 ar    
   26   13   27 1     
   27   14   16 ar    
   28   14   28 1     
   29   15   17 2     
   30   16   29 1     
@<TRIPOS>SUBSTRUCTURE
      1 RES1           1
@<TRIPOS>SET
DONOR_HYDROGENS      STATIC     ATOMS    <user>   **** ""
2 22 23
ATOM$RED        STATIC     ATOMS    COLORGROUP SYSTEM
2 22 23
@<TRIPOS>COMMENT
> <Gold.Version>
2022.3.0

> <Gold.Id.Protein>
unknown|3nx8_clean|pdb

> <Gold.Protein.RotatedTorsions>
[  549  544  542  539 ] final  -17.51 input   60.01 | X-H torsion
[ 2770 2763 2761 2758 ] final  -82.19 input   60.01 | X-H torsion
[ 5056 5047 5046 5044 ] final  127.47 input   59.99 | X-H torsion
[ 1860 1855 1854 1851 ] final  -74.19 input   60.02 | X-H torsion
[  567  564  563  560 ] final   -6.78 input   60.03 | X-H torsion
[ 2456 2451 2450 2448 ] final  146.62 input   59.99 | X-H torsion
[ 2535 2524 2523 2522 ] final  -77.34 input   60.02 | X-H torsion

> <Gold.Protein.ActiveResidues>
 THR48   LEU49   GLY50   THR51   GLY52   SER53   PHE54   GLY55   ARG56   VAL57  
 MET58   ALA70   LYS72   GLU91   VAL104  MET120  TYR122  VAL123  GLY126  GLU127 
 MET128  PHE129  SER130  TYR164  ASP166  LYS168  PRO169  GLU170  ASN171  LEU172 
 LEU173  GLN181  VAL182  THR183  ASP184  PHE185  GLY186  ASN326  PHE327  ASP328 
 TYR330 

> <Gold.Protein.RotatedAtoms>
   20.8544   11.0227   -5.6823 H   0  0  0  0  0  0  0  0  0  0  0  0  # atno 549  bound_to 544 
   22.1040    9.7917    2.6639 H   0  0  0  0  0  0  0  0  0  0  0  0  # atno 567  bound_to 564 
   25.2646    4.9246  -12.5827 H   0  0  0  0  0  0  0  0  0  0  0  0  # atno 1860 bound_to 1855
   26.5169    2.1221    2.1014 H   0  0  0  0  0  0  0  0  0  0  0  0  # atno 2456 bound_to 2451
   18.7572    4.0084   -1.9935 H   0  0  0  0  0  0  0  0  0  0  0  0  # atno 2535 bound_to 2524
   18.7482    3.4554   -0.4310 H   0  0  0  0  0  0  0  0  0  0  0  0  # atno 2536 bound_to 2524
   19.3791    4.9487   -0.7784 H   0  0  0  0  0  0  0  0  0  0  0  0  # atno 2537 bound_to 2524
   28.6971    8.3387    0.5742 H   0  0  0  0  0  0  0  0  0  0  0  0  # atno 2770 bound_to 2763
   22.6571   10.1058   -8.5005 H   0  0  0  0  0  0  0  0  0  0  0  0  # atno 5056 bound_to 5047
   19.7317   12.1383   -6.0609 LP  0  0  0  0  0  0  0  0  0  0  0  0  # atno 5356 bound_to 544 
   19.5312   11.1865   -4.7493 LP  0  0  0  0  0  0  0  0  0  0  0  0  # atno 5357 bound_to 544 
   30.0723    8.7566   -0.1898 LP  0  0  0  0  0  0  0  0  0  0  0  0  # atno 5378 bound_to 2763
   30.1240    8.2016    1.3451 LP  0  0  0  0  0  0  0  0  0  0  0  0  # atno 5379 bound_to 2763
   23.7865    9.9712   -9.6644 LP  0  0  0  0  0  0  0  0  0  0  0  0  # atno 5382 bound_to 5047
   22.2068    9.7760  -10.0291 LP  0  0  0  0  0  0  0  0  0  0  0  0  # atno 5383 bound_to 5047
   26.8355    5.2382  -12.2952 LP  0  0  0  0  0  0  0  0  0  0  0  0  # atno 5388 bound_to 1855
   26.0043    4.2414  -11.3042 LP  0  0  0  0  0  0  0  0  0  0  0  0  # atno 5389 bound_to 1855
   22.3749    8.5716    3.7065 LP  0  0  0  0  0  0  0  0  0  0  0  0  # atno 5398 bound_to 564 
   21.7158    9.9692    4.2345 LP  0  0  0  0  0  0  0  0  0  0  0  0  # atno 5399 bound_to 564 
   27.1119    3.3457    2.9943 LP  0  0  0  0  0  0  0  0  0  0  0  0  # atno 5400 bound_to 2451
   25.4985    3.1768    2.8078 LP  0  0  0  0  0  0  0  0  0  0  0  0  # atno 5401 bound_to 2451

> <Gold.Score>
     Fitness  S(hb_ext) S(vdw_ext)  S(hb_int)    S(int)      intcor
     29.66       0.17      24.29       0.00      -3.91      -0.77

> <Gold.Goldscore.Fitness>
29.6558

> <Gold.Goldscore.Internal.Vdw>
-3.8449

> <Gold.Goldscore.Internal.Torsion>
-0.8311

> <Gold.Goldscore.External.Vdw>
24.2878

> <Gold.Goldscore.Internal.HBond>
0.0000

> <Gold.Goldscore.External.HBond>
0.1674

> <Gold.Goldscore.Internal.Correction>
-0.7686

> <Gold.Goldscore.Hbonds>
donor molecule, donor type, donor heavy atom, donor atom, acceptor molecule, acceptor atom, score
      L1  H     8    22       P1  2555  0.02
      L1  H    10    23       P1  2777  0.02

> <Gold.Goldscore.Internal.Vdw.Weighted>
-3.8449

> <Gold.Goldscore.Internal.Torsion.Weighted>
-0.8311

> <Gold.Goldscore.External.Vdw.Weighted>
33.3957

> <Gold.Goldscore.Internal.HBond.Weighted>
0.0000

> <Gold.Goldscore.External.HBond.Weighted>
0.1674

> <Gold.Goldscore.Internal.Correction.Weighted>
-0.7686

> <Gold.Rescore>
     Score     S(PLP)   S(hbond)     S(cho)   S(metal)  DE(clash)   DE(tors)     intcor
     19.46     -16.08       1.78       0.00       0.00       1.09       0.44       ----

> <Gold.PLP.Fitness>
19.4635

> <Gold.PLP.PLP>
-16.0752

> <Gold.PLP.part.hbond>
-2.0000

> <Gold.PLP.part.metal>
0.0000

> <Gold.PLP.part.buried>
0.1023

> <Gold.PLP.part.nonpolar>
-22.4432

> <Gold.PLP.part.repulsive>
7.0255

> <Gold.PLP.ligand.clash>
1.0858

> <Gold.PLP.ligand.torsion>
0.4389

> <Gold.PLP.Chemscore.Hbond>
1.7840

> <Gold.PLP.Chemscore.CHOScore>
0.0000

> <Gold.PLP.Chemscore.Metal>
0.0000

> <Gold.Chemscore.Hbonds>
donor molecule, donor type, donor heavy atom, donor atom, acceptor molecule, acceptor atom, score
      L1  H     8    22       P1  2555  0.17

> <Gold.PLP.Chemscore.Internal.Correction>
   9.000000E+99

