#       Name:                CT1002167954
#       Creating user name   hitesit
#       Creation time:       Sun Apr 16 22:50:34 2023


#       File generated by GOLD software.
#

@<TRIPOS>MOLECULE
CT1002167954|ligand_prepared|mol2|1|dock7
    29    30     1
SMALL
NO_CHARGES


@<TRIPOS>ATOM
      1 C1          26.1071  10.0140  -2.5771 C.3            1 RES1               0.0000
      2 C2          25.2943   8.9392  -3.3275 C.ar           1 RES1               0.0000
      3 C3          25.9165  11.3143  -3.3524 C.2            1 RES1               0.0000
      4 C4          25.5562  10.0505  -1.1559 C.2            1 RES1               0.0000
      5 C5          27.6209   9.7084  -2.4949 C.3            1 RES1               0.0000
      6 C6          24.5877   9.2628  -4.4820 C.ar           1 RES1               0.0000
      7 C7          25.2438   7.6218  -2.8797 C.ar           1 RES1               0.0000
      8 N8          25.1061  12.2640  -2.8037 N.am           1 RES1               0.0000
      9 O9          26.4378  11.4878  -4.4471 O.2            1 RES1               0.0000
     10 N10         24.9171  11.1906  -0.7442 N.am           1 RES1               0.0000
     11 O11         25.6551   9.0962  -0.3945 O.2            1 RES1               0.0000
     12 C12         28.1818   9.0481  -3.7445 C.3            1 RES1               0.0000
     13 C13         23.8594   8.3034  -5.1658 C.ar           1 RES1               0.0000
     14 C14         24.5147   6.6641  -3.5650 C.ar           1 RES1               0.0000
     15 C15         24.6401  12.2875  -1.5138 C.2            1 RES1               0.0000
     16 C16         23.8228   7.0035  -4.7081 C.ar           1 RES1               0.0000
     17 O17         24.0125  13.2527  -1.0874 O.2            1 RES1               0.0000
     18 H18         28.1614  10.6466  -2.3183 H              1 RES1               0.0000
     19 H19         27.8022   9.0503  -1.6362 H              1 RES1               0.0000
     20 H20         24.6029  10.2811  -4.8558 H              1 RES1               0.0000
     21 H21         25.7795   7.3322  -1.9821 H              1 RES1               0.0000
     22 H22         24.8200  13.0274  -3.4085 H              1 RES1               0.0000
     23 H23         24.6205  11.2248   0.2260 H              1 RES1               0.0000
     24 H24         29.2469   8.8557  -3.6340 H              1 RES1               0.0000
     25 H25         27.6842   8.0998  -3.9362 H              1 RES1               0.0000
     26 H26         28.0412   9.6866  -4.6143 H              1 RES1               0.0000
     27 H27         23.3155   8.5760  -6.0642 H              1 RES1               0.0000
     28 H28         24.4881   5.6423  -3.2008 H              1 RES1               0.0000
     29 H29         23.2525   6.2521  -5.2442 H              1 RES1               0.0000
@<TRIPOS>BOND
    1    1    2 1     
    2    1    3 1     
    3    1    4 1     
    4    1    5 1     
    5    2    6 ar    
    6    2    7 ar    
    7    3    8 1     
    8    3    9 2     
    9    4   10 1     
   10    4   11 2     
   11    5   12 1     
   12    5   18 1     
   13    5   19 1     
   14    6   13 ar    
   15    6   20 1     
   16    7   14 ar    
   17    7   21 1     
   18    8   15 1     
   19    8   22 1     
   20   10   15 1     
   21   10   23 1     
   22   12   24 1     
   23   12   25 1     
   24   12   26 1     
   25   13   16 ar    
   26   13   27 1     
   27   14   16 ar    
   28   14   28 1     
   29   15   17 2     
   30   16   29 1     
@<TRIPOS>SUBSTRUCTURE
      1 RES1           1
@<TRIPOS>SET
DONOR_HYDROGENS      STATIC     ATOMS    <user>   **** ""
2 22 23
ATOM$RED        STATIC     ATOMS    COLORGROUP SYSTEM
2 22 23
@<TRIPOS>COMMENT
> <Gold.Version>
2022.3.0

> <Gold.Id.Protein>
unknown|3nx8_clean|pdb

> <Gold.Protein.RotatedTorsions>
[  549  544  542  539 ] final   64.48 input   60.01 | X-H torsion
[ 2770 2763 2761 2758 ] final   96.98 input   60.01 | X-H torsion
[ 5056 5047 5046 5044 ] final   95.69 input   59.99 | X-H torsion
[ 1860 1855 1854 1851 ] final   18.96 input   60.02 | X-H torsion
[  567  564  563  560 ] final  -60.75 input   60.03 | X-H torsion
[ 2456 2451 2450 2448 ] final -178.30 input   59.99 | X-H torsion
[ 2535 2524 2523 2522 ] final  -42.50 input   60.02 | X-H torsion

> <Gold.Protein.ActiveResidues>
 THR48   LEU49   GLY50   THR51   GLY52   SER53   PHE54   GLY55   ARG56   VAL57  
 MET58   ALA70   LYS72   GLU91   VAL104  MET120  TYR122  VAL123  GLY126  GLU127 
 MET128  PHE129  SER130  TYR164  ASP166  LYS168  PRO169  GLU170  ASN171  LEU172 
 LEU173  GLN181  VAL182  THR183  ASP184  PHE185  GLY186  ASN326  PHE327  ASP328 
 TYR330 

> <Gold.Protein.RotatedAtoms>
   20.0410   10.8492   -4.7784 H   0  0  0  0  0  0  0  0  0  0  0  0  # atno 549  bound_to 544 
   22.3931    9.0004    2.7767 H   0  0  0  0  0  0  0  0  0  0  0  0  # atno 567  bound_to 564 
   25.5998    4.2228  -11.4669 H   0  0  0  0  0  0  0  0  0  0  0  0  # atno 1860 bound_to 1855
   25.9595    2.2039    2.1368 H   0  0  0  0  0  0  0  0  0  0  0  0  # atno 2456 bound_to 2451
   18.5857    3.5391   -1.7128 H   0  0  0  0  0  0  0  0  0  0  0  0  # atno 2535 bound_to 2524
   18.9915    3.8876   -0.1440 H   0  0  0  0  0  0  0  0  0  0  0  0  # atno 2536 bound_to 2524
   19.3072    4.9854   -1.3456 H   0  0  0  0  0  0  0  0  0  0  0  0  # atno 2537 bound_to 2524
   30.5618    8.5178    0.5905 H   0  0  0  0  0  0  0  0  0  0  0  0  # atno 2770 bound_to 2763
   23.1680   10.1418   -8.5247 H   0  0  0  0  0  0  0  0  0  0  0  0  # atno 5056 bound_to 5047
   20.7570   11.4480   -6.1114 LP  0  0  0  0  0  0  0  0  0  0  0  0  # atno 5356 bound_to 544 
   19.3252   12.0515   -5.6092 LP  0  0  0  0  0  0  0  0  0  0  0  0  # atno 5357 bound_to 544 
   29.1738    8.1103    1.3368 LP  0  0  0  0  0  0  0  0  0  0  0  0  # atno 5378 bound_to 2763
   29.1457    8.6676   -0.1979 LP  0  0  0  0  0  0  0  0  0  0  0  0  # atno 5379 bound_to 2763
   23.5145    9.8683  -10.0910 LP  0  0  0  0  0  0  0  0  0  0  0  0  # atno 5382 bound_to 5047
   21.9643    9.8426   -9.5782 LP  0  0  0  0  0  0  0  0  0  0  0  0  # atno 5383 bound_to 5047
   25.5590    5.1739  -12.7868 LP  0  0  0  0  0  0  0  0  0  0  0  0  # atno 5388 bound_to 1855
   26.9434    5.0123  -11.9359 LP  0  0  0  0  0  0  0  0  0  0  0  0  # atno 5389 bound_to 1855
   22.0652    9.0127    4.3710 LP  0  0  0  0  0  0  0  0  0  0  0  0  # atno 5398 bound_to 564 
   21.7344   10.3245    3.4564 LP  0  0  0  0  0  0  0  0  0  0  0  0  # atno 5399 bound_to 564 
   27.3165    2.9100    2.6923 LP  0  0  0  0  0  0  0  0  0  0  0  0  # atno 5400 bound_to 2451
   25.8550    3.5302    3.0742 LP  0  0  0  0  0  0  0  0  0  0  0  0  # atno 5401 bound_to 2451

> <Gold.Score>
     Fitness  S(hb_ext) S(vdw_ext)  S(hb_int)    S(int)      intcor
     31.98       0.36      27.35       0.00      -5.98      -0.77

> <Gold.Goldscore.Fitness>
31.9836

> <Gold.Goldscore.Internal.Vdw>
-5.6031

> <Gold.Goldscore.Internal.Torsion>
-1.1473

> <Gold.Goldscore.External.Vdw>
27.3463

> <Gold.Goldscore.Internal.HBond>
0.0000

> <Gold.Goldscore.External.HBond>
0.3642

> <Gold.Goldscore.Internal.Correction>
-0.7686

> <Gold.Goldscore.Hbonds>
donor molecule, donor type, donor heavy atom, donor atom, acceptor molecule, acceptor atom, score
      P1  H   552   556       L1    17  0.13
      L1  H     8    22       P1   534  0.06

> <Gold.Goldscore.Internal.Vdw.Weighted>
-5.6031

> <Gold.Goldscore.Internal.Torsion.Weighted>
-1.1473

> <Gold.Goldscore.External.Vdw.Weighted>
37.6011

> <Gold.Goldscore.Internal.HBond.Weighted>
0.0000

> <Gold.Goldscore.External.HBond.Weighted>
0.3642

> <Gold.Goldscore.Internal.Correction.Weighted>
-0.7686

> <Gold.Rescore>
     Score     S(PLP)   S(hbond)     S(cho)   S(metal)  DE(clash)   DE(tors)     intcor
      2.28      -1.36       0.95       0.00       0.00       0.77       0.58       ----

> <Gold.PLP.Fitness>
2.2752

> <Gold.PLP.PLP>
-1.3585

> <Gold.PLP.part.hbond>
-1.5873

> <Gold.PLP.part.metal>
0.0000

> <Gold.PLP.part.buried>
27.6102

> <Gold.PLP.part.nonpolar>
-31.1039

> <Gold.PLP.part.repulsive>
2.6507

> <Gold.PLP.ligand.clash>
0.7718

> <Gold.PLP.ligand.torsion>
0.5831

> <Gold.PLP.Chemscore.Hbond>
0.9516

> <Gold.PLP.Chemscore.CHOScore>
0.0000

> <Gold.PLP.Chemscore.Metal>
0.0000

> <Gold.Chemscore.Hbonds>
donor molecule, donor type, donor heavy atom, donor atom, acceptor molecule, acceptor atom, score
      L1  H     8    22       P1   534  1.00

> <Gold.PLP.Chemscore.Internal.Correction>
   9.000000E+99

