#       Name:                CT1002167954
#       Creating user name   hitesit
#       Creation time:       Sun Apr 16 22:50:32 2023


#       File generated by GOLD software.
#

@<TRIPOS>MOLECULE
CT1002167954|ligand_prepared|mol2|1|dock5
    29    30     1
SMALL
NO_CHARGES


@<TRIPOS>ATOM
      1 C1          26.9397   9.2933  -3.1068 C.3            1 RES1               0.0000
      2 C2          28.2783   9.7252  -3.7396 C.ar           1 RES1               0.0000
      3 C3          25.8729  10.2151  -3.6902 C.2            1 RES1               0.0000
      4 C4          26.7540   7.8227  -3.4637 C.2            1 RES1               0.0000
      5 C5          26.9078   9.4186  -1.5658 C.3            1 RES1               0.0000
      6 C6          29.4240   9.8482  -2.9592 C.ar           1 RES1               0.0000
      7 C7          28.3835  10.0010  -5.1002 C.ar           1 RES1               0.0000
      8 N8          25.0245   9.6906  -4.6202 N.am           1 RES1               0.0000
      9 O9          25.8023  11.3948  -3.3683 O.2            1 RES1               0.0000
     10 N10         25.7129   7.4890  -4.2900 N.am           1 RES1               0.0000
     11 O11         27.5096   6.9519  -3.0503 O.2            1 RES1               0.0000
     12 C12         25.5273   9.2131  -0.9623 C.3            1 RES1               0.0000
     13 C13         30.6318  10.2301  -3.5192 C.ar           1 RES1               0.0000
     14 C14         29.5923  10.3830  -5.6582 C.ar           1 RES1               0.0000
     15 C15         24.8582   8.3599  -4.9091 C.2            1 RES1               0.0000
     16 C16         30.7169  10.4973  -4.8690 C.ar           1 RES1               0.0000
     17 O17         23.9802   7.9873  -5.6820 O.2            1 RES1               0.0000
     18 H18         27.5944   8.6783  -1.1370 H              1 RES1               0.0000
     19 H19         27.2711  10.4149  -1.2849 H              1 RES1               0.0000
     20 H20         29.3758   9.6444  -1.8947 H              1 RES1               0.0000
     21 H21         27.5116   9.9187  -5.7403 H              1 RES1               0.0000
     22 H22         24.4616  10.3485  -5.1500 H              1 RES1               0.0000
     23 H23         25.5610   6.4997  -4.4591 H              1 RES1               0.0000
     24 H24         25.5612   9.3116   0.1207 H              1 RES1               0.0000
     25 H25         24.8244   9.9487  -1.3477 H              1 RES1               0.0000
     26 H26         25.1459   8.2224  -1.2007 H              1 RES1               0.0000
     27 H27         31.5137  10.3199  -2.8935 H              1 RES1               0.0000
     28 H28         29.6545  10.5930  -6.7209 H              1 RES1               0.0000
     29 H29         31.6633  10.7961  -5.3075 H              1 RES1               0.0000
@<TRIPOS>BOND
    1    1    2 1     
    2    1    3 1     
    3    1    4 1     
    4    1    5 1     
    5    2    6 ar    
    6    2    7 ar    
    7    3    8 1     
    8    3    9 2     
    9    4   10 1     
   10    4   11 2     
   11    5   12 1     
   12    5   18 1     
   13    5   19 1     
   14    6   13 ar    
   15    6   20 1     
   16    7   14 ar    
   17    7   21 1     
   18    8   15 1     
   19    8   22 1     
   20   10   15 1     
   21   10   23 1     
   22   12   24 1     
   23   12   25 1     
   24   12   26 1     
   25   13   16 ar    
   26   13   27 1     
   27   14   16 ar    
   28   14   28 1     
   29   15   17 2     
   30   16   29 1     
@<TRIPOS>SUBSTRUCTURE
      1 RES1           1
@<TRIPOS>SET
DONOR_HYDROGENS      STATIC     ATOMS    <user>   **** ""
2 22 23
ATOM$RED        STATIC     ATOMS    COLORGROUP SYSTEM
2 22 23
@<TRIPOS>COMMENT
> <Gold.Version>
2022.3.0

> <Gold.Id.Protein>
unknown|3nx8_clean|pdb

> <Gold.Protein.RotatedTorsions>
[  549  544  542  539 ] final  -89.50 input   60.01 | X-H torsion
[ 2770 2763 2761 2758 ] final  129.39 input   60.01 | X-H torsion
[ 5056 5047 5046 5044 ] final   81.84 input   59.99 | X-H torsion
[ 1860 1855 1854 1851 ] final  -66.17 input   60.02 | X-H torsion
[  567  564  563  560 ] final  103.81 input   60.03 | X-H torsion
[ 2456 2451 2450 2448 ] final  116.90 input   59.99 | X-H torsion
[ 2535 2524 2523 2522 ] final  -99.90 input   60.02 | X-H torsion

> <Gold.Protein.ActiveResidues>
 THR48   LEU49   GLY50   THR51   GLY52   SER53   PHE54   GLY55   ARG56   VAL57  
 MET58   ALA70   LYS72   GLU91   VAL104  MET120  TYR122  VAL123  GLY126  GLU127 
 MET128  PHE129  SER130  TYR164  ASP166  LYS168  PRO169  GLU170  ASN171  LEU172 
 LEU173  GLN181  VAL182  THR183  ASP184  PHE185  GLY186  ASN326  PHE327  ASP328 
 TYR330 

> <Gold.Protein.RotatedAtoms>
   20.4022   11.8361   -6.2696 H   0  0  0  0  0  0  0  0  0  0  0  0  # atno 549  bound_to 544 
   21.6955   10.0726    4.1219 H   0  0  0  0  0  0  0  0  0  0  0  0  # atno 567  bound_to 564 
   25.2057    4.8436  -12.4983 H   0  0  0  0  0  0  0  0  0  0  0  0  # atno 1860 bound_to 1855
   26.9570    2.2696    2.2245 H   0  0  0  0  0  0  0  0  0  0  0  0  # atno 2456 bound_to 2451
   18.9125    4.3491   -1.9997 H   0  0  0  0  0  0  0  0  0  0  0  0  # atno 2535 bound_to 2524
   18.6269    3.2995   -0.7491 H   0  0  0  0  0  0  0  0  0  0  0  0  # atno 2536 bound_to 2524
   19.3452    4.7644   -0.4544 H   0  0  0  0  0  0  0  0  0  0  0  0  # atno 2537 bound_to 2524
   30.4079    8.6755    0.1165 H   0  0  0  0  0  0  0  0  0  0  0  0  # atno 2770 bound_to 2763
   23.3725   10.1399   -8.6205 H   0  0  0  0  0  0  0  0  0  0  0  0  # atno 5056 bound_to 5047
   19.2160   11.7533   -5.1586 LP  0  0  0  0  0  0  0  0  0  0  0  0  # atno 5356 bound_to 544 
   20.5023   10.7521   -5.0600 LP  0  0  0  0  0  0  0  0  0  0  0  0  # atno 5357 bound_to 544 
   29.6848    8.1151    1.4627 LP  0  0  0  0  0  0  0  0  0  0  0  0  # atno 5378 bound_to 2763
   28.7897    8.5040    0.1534 LP  0  0  0  0  0  0  0  0  0  0  0  0  # atno 5379 bound_to 2763
   23.3294    9.8295  -10.2173 LP  0  0  0  0  0  0  0  0  0  0  0  0  # atno 5382 bound_to 5047
   21.9435    9.8834   -9.3555 LP  0  0  0  0  0  0  0  0  0  0  0  0  # atno 5383 bound_to 5047
   26.7676    5.2892  -12.3961 LP  0  0  0  0  0  0  0  0  0  0  0  0  # atno 5388 bound_to 1855
   26.1316    4.2719  -11.2883 LP  0  0  0  0  0  0  0  0  0  0  0  0  # atno 5389 bound_to 1855
   22.1679    9.6582    2.6205 LP  0  0  0  0  0  0  0  0  0  0  0  0  # atno 5398 bound_to 564 
   22.3339    8.5997    3.8528 LP  0  0  0  0  0  0  0  0  0  0  0  0  # atno 5399 bound_to 564 
   26.7234    3.5874    3.1505 LP  0  0  0  0  0  0  0  0  0  0  0  0  # atno 5400 bound_to 2451
   25.4439    2.7866    2.5276 LP  0  0  0  0  0  0  0  0  0  0  0  0  # atno 5401 bound_to 2451

> <Gold.Score>
     Fitness  S(hb_ext) S(vdw_ext)  S(hb_int)    S(int)      intcor
     35.36       1.73      24.91       0.00      -0.63      -0.77

> <Gold.Goldscore.Fitness>
35.3553

> <Gold.Goldscore.Internal.Vdw>
-0.8867

> <Gold.Goldscore.Internal.Torsion>
-0.5137

> <Gold.Goldscore.External.Vdw>
24.9115

> <Gold.Goldscore.Internal.HBond>
0.0000

> <Gold.Goldscore.External.HBond>
1.7338

> <Gold.Goldscore.Internal.Correction>
-0.7686

> <Gold.Goldscore.Hbonds>
donor molecule, donor type, donor heavy atom, donor atom, acceptor molecule, acceptor atom, score
      L1  H    10    23       P1  2555  0.87

> <Gold.Goldscore.Internal.Vdw.Weighted>
-0.8867

> <Gold.Goldscore.Internal.Torsion.Weighted>
-0.5137

> <Gold.Goldscore.External.Vdw.Weighted>
34.2533

> <Gold.Goldscore.Internal.HBond.Weighted>
0.0000

> <Gold.Goldscore.External.HBond.Weighted>
1.7338

> <Gold.Goldscore.Internal.Correction.Weighted>
-0.7686

> <Gold.Rescore>
     Score     S(PLP)   S(hbond)     S(cho)   S(metal)  DE(clash)   DE(tors)     intcor
     28.06     -25.05       1.21       0.00       0.00       0.00       0.31       ----

> <Gold.PLP.Fitness>
28.0564

> <Gold.PLP.PLP>
-25.0459

> <Gold.PLP.part.hbond>
-3.5093

> <Gold.PLP.part.metal>
0.0000

> <Gold.PLP.part.buried>
8.6202

> <Gold.PLP.part.nonpolar>
-34.5825

> <Gold.PLP.part.repulsive>
3.1742

> <Gold.PLP.ligand.clash>
0.0000

> <Gold.PLP.ligand.torsion>
0.3067

> <Gold.PLP.Chemscore.Hbond>
1.2080

> <Gold.PLP.Chemscore.CHOScore>
0.0000

> <Gold.PLP.Chemscore.Metal>
0.0000

> <Gold.Chemscore.Hbonds>
donor molecule, donor type, donor heavy atom, donor atom, acceptor molecule, acceptor atom, score
      L1  H    10    23       P1  2555  1.00

> <Gold.PLP.Chemscore.Internal.Correction>
   9.000000E+99

