#       Name:                CT1002167954
#       Creating user name   hitesit
#       Creation time:       Sun Apr 16 22:50:26 2023


#       File generated by GOLD software.
#

@<TRIPOS>MOLECULE
CT1002167954|ligand_prepared|mol2|1|dock1
    29    30     1
SMALL
NO_CHARGES


@<TRIPOS>ATOM
      1 C1          26.6467   9.4817  -3.3816 C.3            1 RES1               0.0000
      2 C2          28.1811   9.6379  -3.3851 C.ar           1 RES1               0.0000
      3 C3          26.2908   8.7776  -2.0755 C.2            1 RES1               0.0000
      4 C4          26.0743  10.8894  -3.5055 C.2            1 RES1               0.0000
      5 C5          26.1018   8.6391  -4.5582 C.3            1 RES1               0.0000
      6 C6          28.8810   9.7868  -2.1915 C.ar           1 RES1               0.0000
      7 C7          28.9095   9.6324  -4.5717 C.ar           1 RES1               0.0000
      8 N8          25.7127   9.5249  -1.0920 N.am           1 RES1               0.0000
      9 O9          26.5495   7.5938  -1.8967 O.2            1 RES1               0.0000
     10 N10         25.3645  11.3895  -2.4454 N.am           1 RES1               0.0000
     11 O11         26.2457  11.5763  -4.5050 O.2            1 RES1               0.0000
     12 C12         24.6406   8.2466  -4.4063 C.3            1 RES1               0.0000
     13 C13         30.2594   9.9223  -2.1840 C.ar           1 RES1               0.0000
     14 C14         30.2879   9.7683  -4.5620 C.ar           1 RES1               0.0000
     15 C15         25.1838  10.7828  -1.2324 C.2            1 RES1               0.0000
     16 C16         30.9637   9.9127  -3.3691 C.ar           1 RES1               0.0000
     17 O17         24.5792  11.3194  -0.3085 O.2            1 RES1               0.0000
     18 H18         26.2189   9.2116  -5.4866 H              1 RES1               0.0000
     19 H19         26.7047   7.7271  -4.6484 H              1 RES1               0.0000
     20 H20         28.3435   9.7992  -1.2491 H              1 RES1               0.0000
     21 H21         28.3988   9.5212  -5.5222 H              1 RES1               0.0000
     22 H22         25.6697   9.1102  -0.1666 H              1 RES1               0.0000
     23 H23         24.9304  12.2983  -2.5724 H              1 RES1               0.0000
     24 H24         24.3090   7.6570  -5.2584 H              1 RES1               0.0000
     25 H25         24.4919   7.6542  -3.5058 H              1 RES1               0.0000
     26 H26         24.0090   9.1300  -4.3390 H              1 RES1               0.0000
     27 H27         30.7864  10.0370  -1.2426 H              1 RES1               0.0000
     28 H28         30.8381   9.7608  -5.4971 H              1 RES1               0.0000
     29 H29         32.0435  10.0184  -3.3630 H              1 RES1               0.0000
@<TRIPOS>BOND
    1    1    2 1     
    2    1    3 1     
    3    1    4 1     
    4    1    5 1     
    5    2    6 ar    
    6    2    7 ar    
    7    3    8 1     
    8    3    9 2     
    9    4   10 1     
   10    4   11 2     
   11    5   12 1     
   12    5   18 1     
   13    5   19 1     
   14    6   13 ar    
   15    6   20 1     
   16    7   14 ar    
   17    7   21 1     
   18    8   15 1     
   19    8   22 1     
   20   10   15 1     
   21   10   23 1     
   22   12   24 1     
   23   12   25 1     
   24   12   26 1     
   25   13   16 ar    
   26   13   27 1     
   27   14   16 ar    
   28   14   28 1     
   29   15   17 2     
   30   16   29 1     
@<TRIPOS>SUBSTRUCTURE
      1 RES1           1
@<TRIPOS>SET
DONOR_HYDROGENS      STATIC     ATOMS    <user>   **** ""
2 22 23
ATOM$RED        STATIC     ATOMS    COLORGROUP SYSTEM
2 22 23
@<TRIPOS>COMMENT
> <Gold.Version>
2022.3.0

> <Gold.Id.Protein>
unknown|3nx8_clean|pdb

> <Gold.Protein.RotatedTorsions>
[  549  544  542  539 ] final    2.27 input   60.01 | X-H torsion
[ 2770 2763 2761 2758 ] final  101.31 input   60.01 | X-H torsion
[ 5056 5047 5046 5044 ] final -123.35 input   59.99 | X-H torsion
[ 1860 1855 1854 1851 ] final   62.87 input   60.02 | X-H torsion
[  567  564  563  560 ] final  -46.38 input   60.03 | X-H torsion
[ 2456 2451 2450 2448 ] final  157.58 input   59.99 | X-H torsion
[ 2535 2524 2523 2522 ] final  -53.71 input   60.02 | X-H torsion

> <Gold.Protein.ActiveResidues>
 THR48   LEU49   GLY50   THR51   GLY52   SER53   PHE54   GLY55   ARG56   VAL57  
 MET58   ALA70   LYS72   GLU91   VAL104  MET120  TYR122  VAL123  GLY126  GLU127 
 MET128  PHE129  SER130  TYR164  ASP166  LYS168  PRO169  GLU170  ASN171  LEU172 
 LEU173  GLN181  VAL182  THR183  ASP184  PHE185  GLY186  ASN326  PHE327  ASP328 
 TYR330 

> <Gold.Protein.RotatedAtoms>
   20.7675   10.8632   -5.4169 H   0  0  0  0  0  0  0  0  0  0  0  0  # atno 549  bound_to 544 
   22.3357    9.2010    2.6702 H   0  0  0  0  0  0  0  0  0  0  0  0  # atno 567  bound_to 564 
   26.2717    4.3200  -11.2951 H   0  0  0  0  0  0  0  0  0  0  0  0  # atno 1860 bound_to 1855
   26.3383    2.1175    2.0908 H   0  0  0  0  0  0  0  0  0  0  0  0  # atno 2456 bound_to 2451
   18.6282    3.6736   -1.8353 H   0  0  0  0  0  0  0  0  0  0  0  0  # atno 2535 bound_to 2524
   18.9100    3.7302   -0.2029 H   0  0  0  0  0  0  0  0  0  0  0  0  # atno 2536 bound_to 2524
   19.3461    5.0085   -1.1644 H   0  0  0  0  0  0  0  0  0  0  0  0  # atno 2537 bound_to 2524
   30.5579    8.5417    0.5240 H   0  0  0  0  0  0  0  0  0  0  0  0  # atno 2770 bound_to 2763
   22.1015    9.7972   -9.8882 H   0  0  0  0  0  0  0  0  0  0  0  0  # atno 5056 bound_to 5047
   20.0094   12.0647   -6.2105 LP  0  0  0  0  0  0  0  0  0  0  0  0  # atno 5356 bound_to 544 
   19.3409   11.4207   -4.8670 LP  0  0  0  0  0  0  0  0  0  0  0  0  # atno 5357 bound_to 544 
   29.2372    8.1048    1.3691 LP  0  0  0  0  0  0  0  0  0  0  0  0  # atno 5378 bound_to 2763
   29.0863    8.6490   -0.1632 LP  0  0  0  0  0  0  0  0  0  0  0  0  # atno 5379 bound_to 2763
   22.8309   10.1226   -8.4703 LP  0  0  0  0  0  0  0  0  0  0  0  0  # atno 5382 bound_to 5047
   23.7217    9.9353   -9.8260 LP  0  0  0  0  0  0  0  0  0  0  0  0  # atno 5383 bound_to 5047
   25.1520    4.7531  -12.3939 LP  0  0  0  0  0  0  0  0  0  0  0  0  # atno 5388 bound_to 1855
   26.6739    5.3352  -12.5018 LP  0  0  0  0  0  0  0  0  0  0  0  0  # atno 5389 bound_to 1855
   22.1602    8.8362    4.2467 LP  0  0  0  0  0  0  0  0  0  0  0  0  # atno 5398 bound_to 564 
   21.6972   10.2991    3.6879 LP  0  0  0  0  0  0  0  0  0  0  0  0  # atno 5399 bound_to 564 
   27.2105    3.2210    2.9095 LP  0  0  0  0  0  0  0  0  0  0  0  0  # atno 5400 bound_to 2451
   25.5797    3.3061    2.9033 LP  0  0  0  0  0  0  0  0  0  0  0  0  # atno 5401 bound_to 2451

> <Gold.Score>
     Fitness  S(hb_ext) S(vdw_ext)  S(hb_int)    S(int)      intcor
     42.60       0.00      31.33       0.00      -0.48      -0.85

> <Gold.Goldscore.Fitness>
42.5989

> <Gold.Goldscore.Internal.Vdw>
-0.7378

> <Gold.Goldscore.Internal.Torsion>
-0.5881

> <Gold.Goldscore.External.Vdw>
31.3282

> <Gold.Goldscore.Internal.HBond>
0.0000

> <Gold.Goldscore.External.HBond>
0.0000

> <Gold.Goldscore.Internal.Correction>
-0.8485

> <Gold.Goldscore.Internal.Vdw.Weighted>
-0.7378

> <Gold.Goldscore.Internal.Torsion.Weighted>
-0.5881

> <Gold.Goldscore.External.Vdw.Weighted>
43.0763

> <Gold.Goldscore.Internal.HBond.Weighted>
0.0000

> <Gold.Goldscore.External.HBond.Weighted>
0.0000

> <Gold.Goldscore.Internal.Correction.Weighted>
-0.8485

> <Gold.Rescore>
     Score     S(PLP)   S(hbond)     S(cho)   S(metal)  DE(clash)   DE(tors)     intcor
     21.61     -23.39       0.31       0.00       0.00       0.00       1.36       ----

> <Gold.PLP.Fitness>
21.6149

> <Gold.PLP.PLP>
-23.3944

> <Gold.PLP.part.hbond>
-2.2424

> <Gold.PLP.part.metal>
0.0000

> <Gold.PLP.part.buried>
12.8059

> <Gold.PLP.part.nonpolar>
-37.0802

> <Gold.PLP.part.repulsive>
2.8714

> <Gold.PLP.ligand.clash>
0.0000

> <Gold.PLP.ligand.torsion>
1.3578

> <Gold.PLP.Chemscore.Hbond>
0.3120

> <Gold.PLP.Chemscore.CHOScore>
0.0000

> <Gold.PLP.Chemscore.Metal>
0.0000

> <Gold.PLP.Chemscore.Internal.Correction>
   9.000000E+99

