#       Name:                CT1002167954
#       Creating user name   hitesit
#       Creation time:       Sun Apr 16 22:50:28 2023


#       File generated by GOLD software.
#

@<TRIPOS>MOLECULE
CT1002167954|ligand_prepared|mol2|1|dock3
    29    30     1
SMALL
NO_CHARGES


@<TRIPOS>ATOM
      1 C1          25.5414   8.8149  -3.4797 C.3            1 RES1               0.0000
      2 C2          24.2187   8.3011  -4.0840 C.ar           1 RES1               0.0000
      3 C3          26.6592   8.0507  -4.1831 C.2            1 RES1               0.0000
      4 C4          25.5665  10.3195  -3.7250 C.2            1 RES1               0.0000
      5 C5          25.6667   8.5769  -1.9568 C.3            1 RES1               0.0000
      6 C6          23.7344   8.8257  -5.2785 C.ar           1 RES1               0.0000
      7 C7          23.4744   7.3028  -3.4610 C.ar           1 RES1               0.0000
      8 N8          27.4031   8.7261  -5.1053 N.am           1 RES1               0.0000
      9 O9          26.8593   6.8629  -3.9609 O.2            1 RES1               0.0000
     10 N10         26.5256  10.8168  -4.5679 N.am           1 RES1               0.0000
     11 O11         24.7539  11.0769  -3.2089 O.2            1 RES1               0.0000
     12 C12         26.7499   9.4123  -1.2927 C.3            1 RES1               0.0000
     13 C13         22.5504   8.3670  -5.8318 C.ar           1 RES1               0.0000
     14 C14         22.2905   6.8457  -4.0159 C.ar           1 RES1               0.0000
     15 C15         27.4258  10.0847  -5.2932 C.2            1 RES1               0.0000
     16 C16         21.8280   7.3765  -5.2012 C.ar           1 RES1               0.0000
     17 O17         28.2220  10.6003  -6.0725 O.2            1 RES1               0.0000
     18 H18         24.7040   8.8060  -1.4833 H              1 RES1               0.0000
     19 H19         25.8823   7.5157  -1.7817 H              1 RES1               0.0000
     20 H20         24.2880   9.6075  -5.7878 H              1 RES1               0.0000
     21 H21         23.8185   6.8713  -2.5271 H              1 RES1               0.0000
     22 H22         27.9975   8.1695  -5.7113 H              1 RES1               0.0000
     23 H23         26.5731  11.8262  -4.6634 H              1 RES1               0.0000
     24 H24         26.7953   9.2069  -0.2252 H              1 RES1               0.0000
     25 H25         27.7249   9.1916  -1.7221 H              1 RES1               0.0000
     26 H26         26.5536  10.4743  -1.4254 H              1 RES1               0.0000
     27 H27         22.1900   8.7891  -6.7641 H              1 RES1               0.0000
     28 H28         21.7249   6.0664  -3.5159 H              1 RES1               0.0000
     29 H29         20.9007   7.0171  -5.6351 H              1 RES1               0.0000
@<TRIPOS>BOND
    1    1    2 1     
    2    1    3 1     
    3    1    4 1     
    4    1    5 1     
    5    2    6 ar    
    6    2    7 ar    
    7    3    8 1     
    8    3    9 2     
    9    4   10 1     
   10    4   11 2     
   11    5   12 1     
   12    5   18 1     
   13    5   19 1     
   14    6   13 ar    
   15    6   20 1     
   16    7   14 ar    
   17    7   21 1     
   18    8   15 1     
   19    8   22 1     
   20   10   15 1     
   21   10   23 1     
   22   12   24 1     
   23   12   25 1     
   24   12   26 1     
   25   13   16 ar    
   26   13   27 1     
   27   14   16 ar    
   28   14   28 1     
   29   15   17 2     
   30   16   29 1     
@<TRIPOS>SUBSTRUCTURE
      1 RES1           1
@<TRIPOS>SET
DONOR_HYDROGENS      STATIC     ATOMS    <user>   **** ""
2 22 23
ATOM$RED        STATIC     ATOMS    COLORGROUP SYSTEM
2 22 23
@<TRIPOS>COMMENT
> <Gold.Version>
2022.3.0

> <Gold.Id.Protein>
unknown|3nx8_clean|pdb

> <Gold.Protein.RotatedTorsions>
[  549  544  542  539 ] final  -30.68 input   60.01 | X-H torsion
[ 2770 2763 2761 2758 ] final  134.40 input   60.01 | X-H torsion
[ 5056 5047 5046 5044 ] final -106.18 input   59.99 | X-H torsion
[ 1860 1855 1854 1851 ] final -142.98 input   60.02 | X-H torsion
[  567  564  563  560 ] final   53.32 input   60.03 | X-H torsion
[ 2456 2451 2450 2448 ] final  -64.44 input   59.99 | X-H torsion
[ 2535 2524 2523 2522 ] final  170.80 input   60.02 | X-H torsion

> <Gold.Protein.ActiveResidues>
 THR48   LEU49   GLY50   THR51   GLY52   SER53   PHE54   GLY55   ARG56   VAL57  
 MET58   ALA70   LYS72   GLU91   VAL104  MET120  TYR122  VAL123  GLY126  GLU127 
 MET128  PHE129  SER130  TYR164  ASP166  LYS168  PRO169  GLU170  ASN171  LEU172 
 LEU173  GLN181  VAL182  THR183  ASP184  PHE185  GLY186  ASN326  PHE327  ASP328 
 TYR330 

> <Gold.Protein.RotatedAtoms>
   20.8592   11.1582   -5.8487 H   0  0  0  0  0  0  0  0  0  0  0  0  # atno 549  bound_to 544 
   21.7560   10.3124    3.3622 H   0  0  0  0  0  0  0  0  0  0  0  0  # atno 567  bound_to 564 
   26.1997    5.3782  -12.7807 H   0  0  0  0  0  0  0  0  0  0  0  0  # atno 1860 bound_to 1855
   25.7781    3.4772    3.0364 H   0  0  0  0  0  0  0  0  0  0  0  0  # atno 2456 bound_to 2451
   19.3756    4.9861   -0.9090 H   0  0  0  0  0  0  0  0  0  0  0  0  # atno 2535 bound_to 2524
   18.7082    3.8880   -1.9559 H   0  0  0  0  0  0  0  0  0  0  0  0  # atno 2536 bound_to 2524
   18.8015    3.5400   -0.3376 H   0  0  0  0  0  0  0  0  0  0  0  0  # atno 2537 bound_to 2524
   30.3600    8.6941    0.0526 H   0  0  0  0  0  0  0  0  0  0  0  0  # atno 2770 bound_to 2763
   22.2871    9.7725  -10.0957 H   0  0  0  0  0  0  0  0  0  0  0  0  # atno 5056 bound_to 5047
   19.5652   12.1422   -5.9231 LP  0  0  0  0  0  0  0  0  0  0  0  0  # atno 5356 bound_to 544 
   19.6928   11.0461   -4.7194 LP  0  0  0  0  0  0  0  0  0  0  0  0  # atno 5357 bound_to 544 
   29.7664    8.1252    1.4573 LP  0  0  0  0  0  0  0  0  0  0  0  0  # atno 5378 bound_to 2763
   28.7562    8.4753    0.2231 LP  0  0  0  0  0  0  0  0  0  0  0  0  # atno 5379 bound_to 2763
   22.5562   10.0908   -8.5227 LP  0  0  0  0  0  0  0  0  0  0  0  0  # atno 5382 bound_to 5047
   23.8096    9.9921   -9.5648 LP  0  0  0  0  0  0  0  0  0  0  0  0  # atno 5383 bound_to 5047
   26.7245    4.5908  -11.4567 LP  0  0  0  0  0  0  0  0  0  0  0  0  # atno 5388 bound_to 1855
   25.1739    4.4321  -11.9434 LP  0  0  0  0  0  0  0  0  0  0  0  0  # atno 5389 bound_to 1855
   22.4153    8.9224    2.8308 LP  0  0  0  0  0  0  0  0  0  0  0  0  # atno 5398 bound_to 564 
   22.0257    9.0941    4.4073 LP  0  0  0  0  0  0  0  0  0  0  0  0  # atno 5399 bound_to 564 
   26.0493    2.1664    2.1107 LP  0  0  0  0  0  0  0  0  0  0  0  0  # atno 5400 bound_to 2451
   27.3049    2.9918    2.7501 LP  0  0  0  0  0  0  0  0  0  0  0  0  # atno 5401 bound_to 2451

> <Gold.Score>
     Fitness  S(hb_ext) S(vdw_ext)  S(hb_int)    S(int)      intcor
     41.62       0.00      30.68       0.00      -0.57      -0.77

> <Gold.Goldscore.Fitness>
41.6169

> <Gold.Goldscore.Internal.Vdw>
-0.5611

> <Gold.Goldscore.Internal.Torsion>
-0.7805

> <Gold.Goldscore.External.Vdw>
30.6836

> <Gold.Goldscore.Internal.HBond>
0.0000

> <Gold.Goldscore.External.HBond>
0.0000

> <Gold.Goldscore.Internal.Correction>
-0.7686

> <Gold.Goldscore.Internal.Vdw.Weighted>
-0.5611

> <Gold.Goldscore.Internal.Torsion.Weighted>
-0.7805

> <Gold.Goldscore.External.Vdw.Weighted>
42.1899

> <Gold.Goldscore.Internal.HBond.Weighted>
0.0000

> <Gold.Goldscore.External.HBond.Weighted>
0.0000

> <Gold.Goldscore.Internal.Correction.Weighted>
-0.7686

> <Gold.Rescore>
     Score     S(PLP)   S(hbond)     S(cho)   S(metal)  DE(clash)   DE(tors)     intcor
     15.84     -17.58       0.00       0.00       0.00       0.00       0.87       ----

> <Gold.PLP.Fitness>
15.8393

> <Gold.PLP.PLP>
-17.5767

> <Gold.PLP.part.hbond>
-1.8367

> <Gold.PLP.part.metal>
0.0000

> <Gold.PLP.part.buried>
19.6277

> <Gold.PLP.part.nonpolar>
-37.0822

> <Gold.PLP.part.repulsive>
0.5350

> <Gold.PLP.ligand.clash>
0.0000

> <Gold.PLP.ligand.torsion>
0.8687

> <Gold.PLP.Chemscore.Hbond>
0.0000

> <Gold.PLP.Chemscore.CHOScore>
0.0000

> <Gold.PLP.Chemscore.Metal>
0.0000

> <Gold.PLP.Chemscore.Internal.Correction>
   9.000000E+99

