#       Name:                CT1002167954
#       Creating user name   hitesit
#       Creation time:       Sun Apr 16 22:50:36 2023


#       File generated by GOLD software.
#

@<TRIPOS>MOLECULE
CT1002167954|ligand_prepared|mol2|1|dock9
    29    30     1
SMALL
NO_CHARGES


@<TRIPOS>ATOM
      1 C1          26.0854  10.0234  -2.5661 C.3            1 RES1               0.0000
      2 C2          25.2880   8.9514  -3.3365 C.ar           1 RES1               0.0000
      3 C3          25.9557  11.3139  -3.3698 C.2            1 RES1               0.0000
      4 C4          25.4700  10.0937  -1.1729 C.2            1 RES1               0.0000
      5 C5          27.5877   9.6918  -2.4086 C.3            1 RES1               0.0000
      6 C6          25.2320   7.6404  -2.8729 C.ar           1 RES1               0.0000
      7 C7          24.6024   9.2583  -4.5088 C.ar           1 RES1               0.0000
      8 N8          25.1389  12.2873  -2.8746 N.am           1 RES1               0.0000
      9 O9          26.5303  11.4597  -4.4417 O.2            1 RES1               0.0000
     10 N10         24.8343  11.2519  -0.8094 N.am           1 RES1               0.0000
     11 O11         25.5154   9.1505  -0.3927 O.2            1 RES1               0.0000
     12 C12         28.2113   9.0694  -3.6479 C.3            1 RES1               0.0000
     13 C13         24.5141   6.6719  -3.5548 C.ar           1 RES1               0.0000
     14 C14         23.8852   8.2882  -5.1894 C.ar           1 RES1               0.0000
     15 C15         24.6141  12.3407  -1.6083 C.2            1 RES1               0.0000
     16 C16         23.8399   6.9952  -4.7131 C.ar           1 RES1               0.0000
     17 O17         23.9860  13.3242  -1.2269 O.2            1 RES1               0.0000
     18 H18         28.1294  10.6143  -2.1660 H              1 RES1               0.0000
     19 H19         27.7101   8.9997  -1.5663 H              1 RES1               0.0000
     20 H20         25.7582   7.3668  -1.9644 H              1 RES1               0.0000
     21 H21         24.6248  10.2687  -4.9027 H              1 RES1               0.0000
     22 H22         24.8956  13.0456  -3.5040 H              1 RES1               0.0000
     23 H23         24.4938  11.3077   0.1452 H              1 RES1               0.0000
     24 H24         29.2656   8.8566  -3.4837 H              1 RES1               0.0000
     25 H25         27.7131   8.1366  -3.9035 H              1 RES1               0.0000
     26 H26         28.1299   9.7416  -4.4996 H              1 RES1               0.0000
     27 H27         24.4827   5.6555  -3.1765 H              1 RES1               0.0000
     28 H28         23.3567   8.5469  -6.1009 H              1 RES1               0.0000
     29 H29         23.2773   6.2364  -5.2469 H              1 RES1               0.0000
@<TRIPOS>BOND
    1    1    2 1     
    2    1    3 1     
    3    1    4 1     
    4    1    5 1     
    5    2    6 ar    
    6    2    7 ar    
    7    3    8 1     
    8    3    9 2     
    9    4   10 1     
   10    4   11 2     
   11    5   12 1     
   12    5   18 1     
   13    5   19 1     
   14    6   13 ar    
   15    6   20 1     
   16    7   14 ar    
   17    7   21 1     
   18    8   15 1     
   19    8   22 1     
   20   10   15 1     
   21   10   23 1     
   22   12   24 1     
   23   12   25 1     
   24   12   26 1     
   25   13   16 ar    
   26   13   27 1     
   27   14   16 ar    
   28   14   28 1     
   29   15   17 2     
   30   16   29 1     
@<TRIPOS>SUBSTRUCTURE
      1 RES1           1
@<TRIPOS>SET
DONOR_HYDROGENS      STATIC     ATOMS    <user>   **** ""
2 22 23
ATOM$RED        STATIC     ATOMS    COLORGROUP SYSTEM
2 22 23
@<TRIPOS>COMMENT
> <Gold.Version>
2022.3.0

> <Gold.Id.Protein>
unknown|3nx8_clean|pdb

> <Gold.Protein.RotatedTorsions>
[  549  544  542  539 ] final  113.81 input   60.01 | X-H torsion
[ 2770 2763 2761 2758 ] final  -76.80 input   60.01 | X-H torsion
[ 5056 5047 5046 5044 ] final   69.77 input   59.99 | X-H torsion
[ 1860 1855 1854 1851 ] final -154.64 input   60.02 | X-H torsion
[  567  564  563  560 ] final  170.67 input   60.03 | X-H torsion
[ 2456 2451 2450 2448 ] final   99.93 input   59.99 | X-H torsion
[ 2535 2524 2523 2522 ] final -121.12 input   60.02 | X-H torsion

> <Gold.Protein.ActiveResidues>
 THR48   LEU49   GLY50   THR51   GLY52   SER53   PHE54   GLY55   ARG56   VAL57  
 MET58   ALA70   LYS72   GLU91   VAL104  MET120  TYR122  VAL123  GLY126  GLU127 
 MET128  PHE129  SER130  TYR164  ASP166  LYS168  PRO169  GLU170  ASN171  LEU172 
 LEU173  GLN181  VAL182  THR183  ASP184  PHE185  GLY186  ASN326  PHE327  ASP328 
 TYR330 

> <Gold.Protein.RotatedAtoms>
   19.4186   11.3205   -4.8103 H   0  0  0  0  0  0  0  0  0  0  0  0  # atno 549  bound_to 544 
   22.0064    9.1331    4.4143 H   0  0  0  0  0  0  0  0  0  0  0  0  # atno 567  bound_to 564 
   26.3760    5.3846  -12.7094 H   0  0  0  0  0  0  0  0  0  0  0  0  # atno 1860 bound_to 1855
   27.1459    2.4302    2.3466 H   0  0  0  0  0  0  0  0  0  0  0  0  # atno 2456 bound_to 2451
   19.0660    4.6408   -1.8750 H   0  0  0  0  0  0  0  0  0  0  0  0  # atno 2535 bound_to 2524
   18.5593    3.2697   -1.0936 H   0  0  0  0  0  0  0  0  0  0  0  0  # atno 2536 bound_to 2524
   19.2595    4.5028   -0.2346 H   0  0  0  0  0  0  0  0  0  0  0  0  # atno 2537 bound_to 2524
   28.7040    8.3092    0.6569 H   0  0  0  0  0  0  0  0  0  0  0  0  # atno 2770 bound_to 2763
   23.5278   10.1293   -8.7409 H   0  0  0  0  0  0  0  0  0  0  0  0  # atno 5056 bound_to 5047
   20.8207   10.9190   -5.5324 LP  0  0  0  0  0  0  0  0  0  0  0  0  # atno 5356 bound_to 544 
   19.8884   12.1058   -6.1560 LP  0  0  0  0  0  0  0  0  0  0  0  0  # atno 5357 bound_to 544 
   29.9925    8.7627   -0.2282 LP  0  0  0  0  0  0  0  0  0  0  0  0  # atno 5378 bound_to 2763
   30.1968    8.2252    1.3003 LP  0  0  0  0  0  0  0  0  0  0  0  0  # atno 5379 bound_to 2763
   23.1467    9.8014  -10.2886 LP  0  0  0  0  0  0  0  0  0  0  0  0  # atno 5382 bound_to 5047
   21.9699    9.9221   -9.1629 LP  0  0  0  0  0  0  0  0  0  0  0  0  # atno 5383 bound_to 5047
   26.5905    4.4840  -11.3710 LP  0  0  0  0  0  0  0  0  0  0  0  0  # atno 5388 bound_to 1855
   25.1304    4.5324  -12.1007 LP  0  0  0  0  0  0  0  0  0  0  0  0  # atno 5389 bound_to 1855
   21.7667   10.3134    3.3196 LP  0  0  0  0  0  0  0  0  0  0  0  0  # atno 5398 bound_to 564 
   22.4221    8.8903    2.8595 LP  0  0  0  0  0  0  0  0  0  0  0  0  # atno 5399 bound_to 564 
   26.4527    3.6442    3.1799 LP  0  0  0  0  0  0  0  0  0  0  0  0  # atno 5400 bound_to 2451
   25.5245    2.5681    2.3753 LP  0  0  0  0  0  0  0  0  0  0  0  0  # atno 5401 bound_to 2451

> <Gold.Score>
     Fitness  S(hb_ext) S(vdw_ext)  S(hb_int)    S(int)      intcor
     33.13       0.40      27.09       0.00      -4.52      -0.77

> <Gold.Goldscore.Fitness>
33.1330

> <Gold.Goldscore.Internal.Vdw>
-4.3218

> <Gold.Goldscore.Internal.Torsion>
-0.9709

> <Gold.Goldscore.External.Vdw>
27.0927

> <Gold.Goldscore.Internal.HBond>
0.0000

> <Gold.Goldscore.External.HBond>
0.4046

> <Gold.Goldscore.Internal.Correction>
-0.7686

> <Gold.Goldscore.Hbonds>
donor molecule, donor type, donor heavy atom, donor atom, acceptor molecule, acceptor atom, score
      P1  H   552   556       L1    17  0.12
      L1  H     8    22       P1   534  0.08

> <Gold.Goldscore.Internal.Vdw.Weighted>
-4.3218

> <Gold.Goldscore.Internal.Torsion.Weighted>
-0.9709

> <Gold.Goldscore.External.Vdw.Weighted>
37.2525

> <Gold.Goldscore.Internal.HBond.Weighted>
0.0000

> <Gold.Goldscore.External.HBond.Weighted>
0.4046

> <Gold.Goldscore.Internal.Correction.Weighted>
-0.7686

> <Gold.Rescore>
     Score     S(PLP)   S(hbond)     S(cho)   S(metal)  DE(clash)   DE(tors)     intcor
     -1.49       2.14       0.99       0.00       0.00       0.01       1.16       ----

> <Gold.PLP.Fitness>
-1.4916

> <Gold.PLP.PLP>
2.1375

> <Gold.PLP.part.hbond>
-1.4296

> <Gold.PLP.part.metal>
0.0000

> <Gold.PLP.part.buried>
31.3488

> <Gold.PLP.part.nonpolar>
-31.5511

> <Gold.PLP.part.repulsive>
1.8824

> <Gold.PLP.ligand.clash>
0.0132

> <Gold.PLP.ligand.torsion>
1.1573

> <Gold.PLP.Chemscore.Hbond>
0.9913

> <Gold.PLP.Chemscore.CHOScore>
0.0000

> <Gold.PLP.Chemscore.Metal>
0.0000

> <Gold.Chemscore.Hbonds>
donor molecule, donor type, donor heavy atom, donor atom, acceptor molecule, acceptor atom, score
      L1  H     8    22       P1   534  1.00

> <Gold.PLP.Chemscore.Internal.Correction>
   9.000000E+99

