#       Name:                CT1002167954
#       Creating user name   hitesit
#       Creation time:       Sun Apr 16 22:50:27 2023


#       File generated by GOLD software.
#

@<TRIPOS>MOLECULE
CT1002167954|ligand_prepared|mol2|1|dock2
    29    30     1
SMALL
NO_CHARGES


@<TRIPOS>ATOM
      1 C1          26.6560   9.4975  -3.6164 C.3            1 RES1               0.0000
      2 C2          28.1757   9.7238  -3.7511 C.ar           1 RES1               0.0000
      3 C3          26.4578   8.6573  -2.3582 C.2            1 RES1               0.0000
      4 C4          26.0231  10.8828  -3.5455 C.2            1 RES1               0.0000
      5 C5          26.0277   8.7459  -4.8130 C.3            1 RES1               0.0000
      6 C6          28.9965   9.7100  -2.6274 C.ar           1 RES1               0.0000
      7 C7          28.7706   9.9444  -4.9905 C.ar           1 RES1               0.0000
      8 N8          25.9536   9.2808  -1.2551 N.am           1 RES1               0.0000
      9 O9          26.7761   7.4751  -2.3226 O.2            1 RES1               0.0000
     10 N10         25.4045  11.2472  -2.3783 N.am           1 RES1               0.0000
     11 O11         26.0690  11.6684  -4.4841 O.2            1 RES1               0.0000
     12 C12         24.5872   8.3183  -4.5805 C.3            1 RES1               0.0000
     13 C13         30.3630   9.9068  -2.7388 C.ar           1 RES1               0.0000
     14 C14         30.1373  10.1412  -5.0996 C.ar           1 RES1               0.0000
     15 C15         25.3679  10.5207  -1.2194 C.2            1 RES1               0.0000
     16 C16         30.9343  10.1220  -3.9749 C.ar           1 RES1               0.0000
     17 O17         24.8390  10.9390  -0.1935 O.2            1 RES1               0.0000
     18 H18         26.0652   9.3948  -5.6967 H              1 RES1               0.0000
     19 H19         26.6306   7.8544  -5.0259 H              1 RES1               0.0000
     20 H20         28.5645   9.5446  -1.6460 H              1 RES1               0.0000
     21 H21         28.1630   9.9647  -5.8888 H              1 RES1               0.0000
     22 H22         26.0181   8.7788  -0.3752 H              1 RES1               0.0000
     23 H23         24.9271  12.1429  -2.3729 H              1 RES1               0.0000
     24 H24         24.1948   7.7956  -5.4502 H              1 RES1               0.0000
     25 H25         24.5162   7.6514  -3.7237 H              1 RES1               0.0000
     26 H26         23.9542   9.1827  -4.3905 H              1 RES1               0.0000
     27 H27         30.9857   9.8921  -1.8504 H              1 RES1               0.0000
     28 H28         30.5826  10.3108  -6.0744 H              1 RES1               0.0000
     29 H29         32.0048  10.2757  -4.0619 H              1 RES1               0.0000
@<TRIPOS>BOND
    1    1    2 1     
    2    1    3 1     
    3    1    4 1     
    4    1    5 1     
    5    2    6 ar    
    6    2    7 ar    
    7    3    8 1     
    8    3    9 2     
    9    4   10 1     
   10    4   11 2     
   11    5   12 1     
   12    5   18 1     
   13    5   19 1     
   14    6   13 ar    
   15    6   20 1     
   16    7   14 ar    
   17    7   21 1     
   18    8   15 1     
   19    8   22 1     
   20   10   15 1     
   21   10   23 1     
   22   12   24 1     
   23   12   25 1     
   24   12   26 1     
   25   13   16 ar    
   26   13   27 1     
   27   14   16 ar    
   28   14   28 1     
   29   15   17 2     
   30   16   29 1     
@<TRIPOS>SUBSTRUCTURE
      1 RES1           1
@<TRIPOS>SET
DONOR_HYDROGENS      STATIC     ATOMS    <user>   **** ""
2 22 23
ATOM$RED        STATIC     ATOMS    COLORGROUP SYSTEM
2 22 23
@<TRIPOS>COMMENT
> <Gold.Version>
2022.3.0

> <Gold.Id.Protein>
unknown|3nx8_clean|pdb

> <Gold.Protein.RotatedTorsions>
[  549  544  542  539 ] final   19.74 input   60.01 | X-H torsion
[ 2770 2763 2761 2758 ] final  131.86 input   60.01 | X-H torsion
[ 5056 5047 5046 5044 ] final   -1.11 input   59.99 | X-H torsion
[ 1860 1855 1854 1851 ] final -114.24 input   60.02 | X-H torsion
[  567  564  563  560 ] final  -19.88 input   60.03 | X-H torsion
[ 2456 2451 2450 2448 ] final  -14.39 input   59.99 | X-H torsion
[ 2535 2524 2523 2522 ] final  -53.25 input   60.02 | X-H torsion

> <Gold.Protein.ActiveResidues>
 THR48   LEU49   GLY50   THR51   GLY52   SER53   PHE54   GLY55   ARG56   VAL57  
 MET58   ALA70   LYS72   GLU91   VAL104  MET120  TYR122  VAL123  GLY126  GLU127 
 MET128  PHE129  SER130  TYR164  ASP166  LYS168  PRO169  GLU170  ASN171  LEU172 
 LEU173  GLN181  VAL182  THR183  ASP184  PHE185  GLY186  ASN326  PHE327  ASP328 
 TYR330 

> <Gold.Protein.RotatedAtoms>
   20.6190   10.7793   -5.1893 H   0  0  0  0  0  0  0  0  0  0  0  0  # atno 549  bound_to 544 
   22.1886    9.6010    2.6178 H   0  0  0  0  0  0  0  0  0  0  0  0  # atno 567  bound_to 564 
   25.7516    5.2632  -12.8264 H   0  0  0  0  0  0  0  0  0  0  0  0  # atno 1860 bound_to 1855
   26.5440    3.6259    3.1738 H   0  0  0  0  0  0  0  0  0  0  0  0  # atno 2456 bound_to 2451
   18.6262    3.6678   -1.8309 H   0  0  0  0  0  0  0  0  0  0  0  0  # atno 2535 bound_to 2524
   18.9133    3.7363   -0.1999 H   0  0  0  0  0  0  0  0  0  0  0  0  # atno 2536 bound_to 2524
   19.3448    5.0082   -1.1719 H   0  0  0  0  0  0  0  0  0  0  0  0  # atno 2537 bound_to 2524
   30.3849    8.6849    0.0844 H   0  0  0  0  0  0  0  0  0  0  0  0  # atno 2770 bound_to 2763
   23.7316    9.9454   -9.7914 H   0  0  0  0  0  0  0  0  0  0  0  0  # atno 5056 bound_to 5047
   20.2589   11.9387   -6.2730 LP  0  0  0  0  0  0  0  0  0  0  0  0  # atno 5356 bound_to 544 
   19.2411   11.6311   -5.0336 LP  0  0  0  0  0  0  0  0  0  0  0  0  # atno 5357 bound_to 544 
   29.7252    8.1198    1.4609 LP  0  0  0  0  0  0  0  0  0  0  0  0  # atno 5378 bound_to 2763
   28.7723    8.4899    0.1875 LP  0  0  0  0  0  0  0  0  0  0  0  0  # atno 5379 bound_to 2763
   22.1170    9.7894   -9.9213 LP  0  0  0  0  0  0  0  0  0  0  0  0  # atno 5382 bound_to 5047
   22.7943   10.1193   -8.4725 LP  0  0  0  0  0  0  0  0  0  0  0  0  # atno 5383 bound_to 5047
   26.9242    4.8812  -11.7646 LP  0  0  0  0  0  0  0  0  0  0  0  0  # atno 5388 bound_to 1855
   25.4253    4.2575  -11.5893 LP  0  0  0  0  0  0  0  0  0  0  0  0  # atno 5389 bound_to 1855
   22.3157    8.6171    3.9082 LP  0  0  0  0  0  0  0  0  0  0  0  0  # atno 5398 bound_to 564 
   21.6897   10.1156    4.0792 LP  0  0  0  0  0  0  0  0  0  0  0  0  # atno 5399 bound_to 564 
   25.4888    2.6392    2.4245 LP  0  0  0  0  0  0  0  0  0  0  0  0  # atno 5400 bound_to 2451
   27.0943    2.3694    2.2980 LP  0  0  0  0  0  0  0  0  0  0  0  0  # atno 5401 bound_to 2451

> <Gold.Score>
     Fitness  S(hb_ext) S(vdw_ext)  S(hb_int)    S(int)      intcor
     41.45       0.00      30.71       0.00      -0.77      -0.80

> <Gold.Goldscore.Fitness>
41.4542

> <Gold.Goldscore.Internal.Vdw>
-1.0571

> <Gold.Goldscore.Internal.Torsion>
-0.5182

> <Gold.Goldscore.External.Vdw>
30.7096

> <Gold.Goldscore.Internal.HBond>
0.0000

> <Gold.Goldscore.External.HBond>
0.0000

> <Gold.Goldscore.Internal.Correction>
-0.8038

> <Gold.Goldscore.Internal.Vdw.Weighted>
-1.0571

> <Gold.Goldscore.Internal.Torsion.Weighted>
-0.5182

> <Gold.Goldscore.External.Vdw.Weighted>
42.2257

> <Gold.Goldscore.Internal.HBond.Weighted>
0.0000

> <Gold.Goldscore.External.HBond.Weighted>
0.0000

> <Gold.Goldscore.Internal.Correction.Weighted>
-0.8038

> <Gold.Rescore>
     Score     S(PLP)   S(hbond)     S(cho)   S(metal)  DE(clash)   DE(tors)     intcor
     20.11     -22.71       0.01       0.00       0.00       0.41       1.12       ----

> <Gold.PLP.Fitness>
20.1109

> <Gold.PLP.PLP>
-22.7147

> <Gold.PLP.part.hbond>
-2.2819

> <Gold.PLP.part.metal>
0.0000

> <Gold.PLP.part.buried>
12.7159

> <Gold.PLP.part.nonpolar>
-37.8777

> <Gold.PLP.part.repulsive>
3.3107

> <Gold.PLP.ligand.clash>
0.4124

> <Gold.PLP.ligand.torsion>
1.1160

> <Gold.PLP.Chemscore.Hbond>
0.0135

> <Gold.PLP.Chemscore.CHOScore>
0.0000

> <Gold.PLP.Chemscore.Metal>
0.0000

> <Gold.PLP.Chemscore.Internal.Correction>
   9.000000E+99

