#       Name:                CT1002167954
#       Creating user name   hitesit
#       Creation time:       Sun Apr 16 22:50:45 2023


#       File generated by GOLD software.
#

@<TRIPOS>MOLECULE
CT1002167954|ligand_prepared|mol2|1|dock10
    29    30     1
SMALL
NO_CHARGES


@<TRIPOS>ATOM
      1 C1          19.0794   9.4115   2.5338 C.3            1 RES1               0.0000
      2 C2          20.0544  10.6024   2.6330 C.ar           1 RES1               0.0000
      3 C3          18.5127   9.4387   1.1173 C.2            1 RES1               0.0000
      4 C4          19.8957   8.1640   2.8534 C.2            1 RES1               0.0000
      5 C5          17.9029   9.4820   3.5350 C.3            1 RES1               0.0000
      6 C6          20.7397  10.8604   3.8165 C.ar           1 RES1               0.0000
      7 C7          20.2806  11.4487   1.5508 C.ar           1 RES1               0.0000
      8 N8          18.9602   8.4958   0.2395 N.am           1 RES1               0.0000
      9 O9          17.7150  10.2987   0.7647 O.2            1 RES1               0.0000
     10 N10         20.0802   7.2441   1.8546 N.am           1 RES1               0.0000
     11 O11         20.3948   7.9774   3.9562 O.2            1 RES1               0.0000
     12 C12         16.8257   8.4372   3.2899 C.3            1 RES1               0.0000
     13 C13         21.6214  11.9241   3.9137 C.ar           1 RES1               0.0000
     14 C14         21.1626  12.5120   1.6503 C.ar           1 RES1               0.0000
     15 C15         19.6754   7.3681   0.5535 C.2            1 RES1               0.0000
     16 C16         21.8338  12.7503   2.8307 C.ar           1 RES1               0.0000
     17 O17         19.9263   6.5224  -0.3003 O.2            1 RES1               0.0000
     18 H18         18.2957   9.3526   4.5510 H              1 RES1               0.0000
     19 H19         17.4481  10.4786   3.4758 H              1 RES1               0.0000
     20 H20         20.5836  10.2225   4.6801 H              1 RES1               0.0000
     21 H21         19.7628  11.2810   0.6125 H              1 RES1               0.0000
     22 H22         18.7431   8.6427  -0.7411 H              1 RES1               0.0000
     23 H23         20.5641   6.3874   2.1043 H              1 RES1               0.0000
     24 H24         16.0243   8.5309   4.0197 H              1 RES1               0.0000
     25 H25         16.3953   8.5524   2.2973 H              1 RES1               0.0000
     26 H26         17.2379   7.4331   3.3661 H              1 RES1               0.0000
     27 H27         22.1461  12.1081   4.8454 H              1 RES1               0.0000
     28 H28         21.3262  13.1600   0.7956 H              1 RES1               0.0000
     29 H29         22.5248  13.5832   2.9070 H              1 RES1               0.0000
@<TRIPOS>BOND
    1    1    2 1     
    2    1    3 1     
    3    1    4 1     
    4    1    5 1     
    5    2    6 ar    
    6    2    7 ar    
    7    3    8 1     
    8    3    9 2     
    9    4   10 1     
   10    4   11 2     
   11    5   12 1     
   12    5   18 1     
   13    5   19 1     
   14    6   13 ar    
   15    6   20 1     
   16    7   14 ar    
   17    7   21 1     
   18    8   15 1     
   19    8   22 1     
   20   10   15 1     
   21   10   23 1     
   22   12   24 1     
   23   12   25 1     
   24   12   26 1     
   25   13   16 ar    
   26   13   27 1     
   27   14   16 ar    
   28   14   28 1     
   29   15   17 2     
   30   16   29 1     
@<TRIPOS>SUBSTRUCTURE
      1 RES1           1
@<TRIPOS>SET
DONOR_HYDROGENS      STATIC     ATOMS    <user>   **** ""
2 22 23
ATOM$RED        STATIC     ATOMS    COLORGROUP SYSTEM
2 22 23
@<TRIPOS>COMMENT
> <Gold.Version>
2022.3.0

> <Gold.Id.Protein>
unknown|3oog_clean|pdb

> <Gold.Protein.RotatedTorsions>
[ 3557 3548 3547 3545 ] final   -0.18 input   60.02 | X-H torsion
[ 3477 3468 3467 3465 ] final   72.03 input   60.01 | X-H torsion
[ 3738 3729 3728 3726 ] final  -54.78 input   59.99 | X-H torsion
[ 3042 3035 3033 3030 ] final -153.74 input   59.98 | X-H torsion
[ 4996 4987 4986 4984 ] final   20.27 input   60.02 | X-H torsion
[ 2507 2496 2495 2494 ] final  172.37 input   60.00 | X-H torsion
[ 1848 1843 1842 1839 ] final -165.20 input   60.03 | X-H torsion
[ 3090 3083 3082 3080 ] final  120.28 input   60.01 | X-H torsion
[  557  552  551  548 ] final   62.87 input   60.01 | X-H torsion

> <Gold.Protein.ActiveResidues>
 LEU49   GLY50   THR51   GLY52   SER53   PHE54   LEU82   GLN84   HIS87   GLY126 
 GLU127  MET128  PHE129  SER130  HIS131  LEU132  ARG133  ARG134  ILE135  GLY136 
 ARG137  ARG165  ASP166  LEU167  LYS168  PRO169  GLU170  ASN171  LEU173  ASP184 
 GLY186  PHE187  TPO197  LEU198  CYS199  GLY200  THR201  PRO202  GLU203  TYR204 
 LEU205  ILE209  ILE210  VAL226  LEU227  TYR229  GLU230  ALA233  GLY234  TYR235 
 PRO236  PRO237  PHE238  PHE239  ALA240  ASP241  GLN242  PRO243  ILE244  GLN245 
 ILE246  TYR247  ARG256  PHE257  PRO258  SER259  ASN326  PHE327  ASP328  ASP329 
 TYR330 

> <Gold.Protein.RotatedAtoms>
   18.2605   13.1104    2.7133 H   0  0  0  0  0  0  0  0  0  0  0  0  # atno 557  bound_to 552 
   26.2028    5.6368  -12.2175 H   0  0  0  0  0  0  0  0  0  0  0  0  # atno 1848 bound_to 1843
   19.3269    5.0234   -0.4897 H   0  0  0  0  0  0  0  0  0  0  0  0  # atno 2507 bound_to 2496
   18.5537    4.0229   -1.5608 H   0  0  0  0  0  0  0  0  0  0  0  0  # atno 2508 bound_to 2496
   18.6861    3.5870    0.0337 H   0  0  0  0  0  0  0  0  0  0  0  0  # atno 2509 bound_to 2496
   17.9893    2.5099   -0.1971 H   0  0  0  0  0  0  0  0  0  0  0  0  # atno 3042 bound_to 3035
   21.9869   -4.2156   -3.4537 H   0  0  0  0  0  0  0  0  0  0  0  0  # atno 3090 bound_to 3083
   16.3312  -14.3572   -8.4167 H   0  0  0  0  0  0  0  0  0  0  0  0  # atno 3477 bound_to 3468
   15.5699  -14.1118  -11.1825 H   0  0  0  0  0  0  0  0  0  0  0  0  # atno 3557 bound_to 3548
    9.9814    0.3777    3.2403 H   0  0  0  0  0  0  0  0  0  0  0  0  # atno 3738 bound_to 3729
   23.5542   10.2613   -9.2734 H   0  0  0  0  0  0  0  0  0  0  0  0  # atno 4996 bound_to 4987
   16.9110  -14.0331  -12.1010 LP  0  0  0  0  0  0  0  0  0  0  0  0  # atno 5299 bound_to 3548
   15.4421  -13.7961  -12.7739 LP  0  0  0  0  0  0  0  0  0  0  0  0  # atno 5300 bound_to 3548
   15.2877  -13.4530   -7.5551 LP  0  0  0  0  0  0  0  0  0  0  0  0  # atno 5307 bound_to 3468
   15.6712  -14.9600   -7.0567 LP  0  0  0  0  0  0  0  0  0  0  0  0  # atno 5308 bound_to 3468
    8.4943    0.9990    3.0173 LP  0  0  0  0  0  0  0  0  0  0  0  0  # atno 5361 bound_to 3729
    9.3767    0.5048    1.7352 LP  0  0  0  0  0  0  0  0  0  0  0  0  # atno 5362 bound_to 3729
   18.2730    2.1055    1.3531 LP  0  0  0  0  0  0  0  0  0  0  0  0  # atno 5363 bound_to 3035
   16.9307    2.9475    0.9583 LP  0  0  0  0  0  0  0  0  0  0  0  0  # atno 5364 bound_to 3035
   22.1541   10.0236  -10.0675 LP  0  0  0  0  0  0  0  0  0  0  0  0  # atno 5373 bound_to 4987
   22.1407   10.4181   -8.4829 LP  0  0  0  0  0  0  0  0  0  0  0  0  # atno 5374 bound_to 4987
   25.8978    4.6412  -10.9666 LP  0  0  0  0  0  0  0  0  0  0  0  0  # atno 5381 bound_to 1843
   24.8246    4.7713  -12.1905 LP  0  0  0  0  0  0  0  0  0  0  0  0  # atno 5382 bound_to 1843
   20.6197   -4.0163   -4.3135 LP  0  0  0  0  0  0  0  0  0  0  0  0  # atno 5411 bound_to 3083
   20.9991   -5.4839   -3.7062 LP  0  0  0  0  0  0  0  0  0  0  0  0  # atno 5412 bound_to 3083
   18.2272   12.0171    1.5085 LP  0  0  0  0  0  0  0  0  0  0  0  0  # atno 5419 bound_to 552 
   17.6050   11.6435    2.9714 LP  0  0  0  0  0  0  0  0  0  0  0  0  # atno 5420 bound_to 552 

> <Gold.Score>
     Fitness  S(hb_ext) S(vdw_ext)  S(hb_int)    S(int)      intcor
     36.48       8.10      23.07       0.00      -3.34      -0.76

> <Gold.Goldscore.Fitness>
36.4750

> <Gold.Goldscore.Internal.Vdw>
-3.5928

> <Gold.Goldscore.Internal.Torsion>
-0.5106

> <Gold.Goldscore.External.Vdw>
23.0722

> <Gold.Goldscore.Internal.HBond>
0.0000

> <Gold.Goldscore.External.HBond>
8.0957

> <Gold.Goldscore.Internal.Correction>
-0.7585

> <Gold.Goldscore.Hbonds>
donor molecule, donor type, donor heavy atom, donor atom, acceptor molecule, acceptor atom, score
      P1  H  2496  2507       L1    17  0.65
      P1  H   547   554       L1     9  0.34
      L1  H    10    23       P1  2464  0.58

> <Gold.Goldscore.Internal.Vdw.Weighted>
-3.5928

> <Gold.Goldscore.Internal.Torsion.Weighted>
-0.5106

> <Gold.Goldscore.External.Vdw.Weighted>
31.7242

> <Gold.Goldscore.Internal.HBond.Weighted>
0.0000

> <Gold.Goldscore.External.HBond.Weighted>
8.0957

> <Gold.Goldscore.Internal.Correction.Weighted>
-0.7585

> <Gold.Rescore>
     Score     S(PLP)   S(hbond)     S(cho)   S(metal)  DE(clash)   DE(tors)     intcor
     30.16     -25.39       2.20       0.00       0.00       0.20       0.82       ----

> <Gold.PLP.Fitness>
30.1578

> <Gold.PLP.PLP>
-25.3895

> <Gold.PLP.part.hbond>
-3.8397

> <Gold.PLP.part.metal>
0.0000

> <Gold.PLP.part.buried>
1.5594

> <Gold.PLP.part.nonpolar>
-23.5916

> <Gold.PLP.part.repulsive>
0.4574

> <Gold.PLP.ligand.clash>
0.2006

> <Gold.PLP.ligand.torsion>
0.8155

> <Gold.PLP.Chemscore.Hbond>
2.2000

> <Gold.PLP.Chemscore.CHOScore>
0.0000

> <Gold.PLP.Chemscore.Metal>
0.0000

> <Gold.Chemscore.Hbonds>
donor molecule, donor type, donor heavy atom, donor atom, acceptor molecule, acceptor atom, score
      L1  H    10    23       P1  2464  0.54
      P1  H  2496  2507       L1    17  1.00
      P1  H   547   554       L1     9  0.28

> <Gold.PLP.Chemscore.Internal.Correction>
   9.000000E+99

#       Name:                CT1002167954
#       Creating user name   hitesit
#       Creation time:       Sun Apr 16 22:50:44 2023


#       File generated by GOLD software.
#

@<TRIPOS>MOLECULE
CT1002167954|ligand_prepared|mol2|1|dock9
    29    30     1
SMALL
NO_CHARGES


@<TRIPOS>ATOM
      1 C1          26.4375   9.4462  -3.5665 C.3            1 RES1               0.0000
      2 C2          25.5477  10.0559  -2.4640 C.ar           1 RES1               0.0000
      3 C3          27.8177   9.2532  -2.9452 C.2            1 RES1               0.0000
      4 C4          25.7599   8.1485  -3.9924 C.2            1 RES1               0.0000
      5 C5          26.5833  10.3423  -4.8184 C.3            1 RES1               0.0000
      6 C6          25.4549   9.4520  -1.2136 C.ar           1 RES1               0.0000
      7 C7          24.8172  11.2212  -2.6812 C.ar           1 RES1               0.0000
      8 N8          28.1990   7.9809  -2.6357 N.am           1 RES1               0.0000
      9 O9          28.5445  10.2067  -2.6942 O.2            1 RES1               0.0000
     10 N10         26.4108   6.9702  -3.7360 N.am           1 RES1               0.0000
     11 O11         24.6608   8.1347  -4.5327 O.2            1 RES1               0.0000
     12 C12         27.6189   9.8421  -5.8132 C.3            1 RES1               0.0000
     13 C13         24.6629   9.9950  -0.2155 C.ar           1 RES1               0.0000
     14 C14         24.0256  11.7623  -1.6817 C.ar           1 RES1               0.0000
     15 C15         27.5855   6.8258  -3.0494 C.2            1 RES1               0.0000
     16 C16         23.9482  11.1505  -0.4486 C.ar           1 RES1               0.0000
     17 O17         28.0811   5.7283  -2.8109 O.2            1 RES1               0.0000
     18 H18         25.6111  10.4055  -5.3225 H              1 RES1               0.0000
     19 H19         26.8613  11.3540  -4.4981 H              1 RES1               0.0000
     20 H20         26.0082   8.5408  -1.0125 H              1 RES1               0.0000
     21 H21         24.8621  11.7190  -3.6439 H              1 RES1               0.0000
     22 H22         29.0157   7.8789  -2.0417 H              1 RES1               0.0000
     23 H23         25.9797   6.1221  -4.0899 H              1 RES1               0.0000
     24 H24         27.6811  10.5068  -6.6722 H              1 RES1               0.0000
     25 H25         28.6031   9.7908  -5.3524 H              1 RES1               0.0000
     26 H26         27.3603   8.8479  -6.1719 H              1 RES1               0.0000
     27 H27         24.6043   9.5089   0.7528 H              1 RES1               0.0000
     28 H28         23.4643  12.6716  -1.8698 H              1 RES1               0.0000
     29 H29         23.3281  11.5759   0.3336 H              1 RES1               0.0000
@<TRIPOS>BOND
    1    1    2 1     
    2    1    3 1     
    3    1    4 1     
    4    1    5 1     
    5    2    6 ar    
    6    2    7 ar    
    7    3    8 1     
    8    3    9 2     
    9    4   10 1     
   10    4   11 2     
   11    5   12 1     
   12    5   18 1     
   13    5   19 1     
   14    6   13 ar    
   15    6   20 1     
   16    7   14 ar    
   17    7   21 1     
   18    8   15 1     
   19    8   22 1     
   20   10   15 1     
   21   10   23 1     
   22   12   24 1     
   23   12   25 1     
   24   12   26 1     
   25   13   16 ar    
   26   13   27 1     
   27   14   16 ar    
   28   14   28 1     
   29   15   17 2     
   30   16   29 1     
@<TRIPOS>SUBSTRUCTURE
      1 RES1           1
@<TRIPOS>SET
DONOR_HYDROGENS      STATIC     ATOMS    <user>   **** ""
2 22 23
ATOM$RED        STATIC     ATOMS    COLORGROUP SYSTEM
2 22 23
@<TRIPOS>COMMENT
> <Gold.Version>
2022.3.0

> <Gold.Id.Protein>
unknown|3oog_clean|pdb

> <Gold.Protein.RotatedTorsions>
[ 3557 3548 3547 3545 ] final -126.81 input   60.02 | X-H torsion
[ 3477 3468 3467 3465 ] final  -64.79 input   60.01 | X-H torsion
[ 3738 3729 3728 3726 ] final  -48.43 input   59.99 | X-H torsion
[ 3042 3035 3033 3030 ] final  164.51 input   59.98 | X-H torsion
[ 4996 4987 4986 4984 ] final  147.35 input   60.02 | X-H torsion
[ 2507 2496 2495 2494 ] final   80.06 input   60.00 | X-H torsion
[ 1848 1843 1842 1839 ] final  162.50 input   60.03 | X-H torsion
[ 3090 3083 3082 3080 ] final   56.57 input   60.01 | X-H torsion
[  557  552  551  548 ] final -144.74 input   60.01 | X-H torsion

> <Gold.Protein.ActiveResidues>
 LEU49   GLY50   THR51   GLY52   SER53   PHE54   LEU82   GLN84   HIS87   GLY126 
 GLU127  MET128  PHE129  SER130  HIS131  LEU132  ARG133  ARG134  ILE135  GLY136 
 ARG137  ARG165  ASP166  LEU167  LYS168  PRO169  GLU170  ASN171  LEU173  ASP184 
 GLY186  PHE187  TPO197  LEU198  CYS199  GLY200  THR201  PRO202  GLU203  TYR204 
 LEU205  ILE209  ILE210  VAL226  LEU227  TYR229  GLU230  ALA233  GLY234  TYR235 
 PRO236  PRO237  PHE238  PHE239  ALA240  ASP241  GLN242  PRO243  ILE244  GLN245 
 ILE246  TYR247  ARG256  PHE257  PRO258  SER259  ASN326  PHE327  ASP328  ASP329 
 TYR330 

> <Gold.Protein.RotatedAtoms>
   17.6612   11.4063    2.5075 H   0  0  0  0  0  0  0  0  0  0  0  0  # atno 557  bound_to 552 
   26.4451    5.5010  -11.7768 H   0  0  0  0  0  0  0  0  0  0  0  0  # atno 1848 bound_to 1843
   18.9130    3.9276    0.2395 H   0  0  0  0  0  0  0  0  0  0  0  0  # atno 2507 bound_to 2496
   19.2378    5.0477   -0.9378 H   0  0  0  0  0  0  0  0  0  0  0  0  # atno 2508 bound_to 2496
   18.4160    3.6586   -1.3189 H   0  0  0  0  0  0  0  0  0  0  0  0  # atno 2509 bound_to 2496
   18.4359    2.1911    0.1820 H   0  0  0  0  0  0  0  0  0  0  0  0  # atno 3042 bound_to 3035
   21.3553   -3.6591   -3.9714 H   0  0  0  0  0  0  0  0  0  0  0  0  # atno 3090 bound_to 3083
   15.2032  -13.5915   -7.3330 H   0  0  0  0  0  0  0  0  0  0  0  0  # atno 3477 bound_to 3468
   16.8904  -14.0087  -12.2052 H   0  0  0  0  0  0  0  0  0  0  0  0  # atno 3557 bound_to 3548
   10.0330    0.3480    3.1556 H   0  0  0  0  0  0  0  0  0  0  0  0  # atno 3738 bound_to 3729
   22.0484   10.4007   -8.5514 H   0  0  0  0  0  0  0  0  0  0  0  0  # atno 4996 bound_to 4987
   15.3561  -13.8028  -12.7072 LP  0  0  0  0  0  0  0  0  0  0  0  0  # atno 5299 bound_to 3548
   15.6677  -14.1301  -11.1380 LP  0  0  0  0  0  0  0  0  0  0  0  0  # atno 5300 bound_to 3548
   15.8498  -15.0813   -7.2284 LP  0  0  0  0  0  0  0  0  0  0  0  0  # atno 5307 bound_to 3468
   16.2446  -14.1025   -8.4745 LP  0  0  0  0  0  0  0  0  0  0  0  0  # atno 5308 bound_to 3468
    8.5381    0.9886    3.1114 LP  0  0  0  0  0  0  0  0  0  0  0  0  # atno 5361 bound_to 3729
    9.2809    0.5452    1.7264 LP  0  0  0  0  0  0  0  0  0  0  0  0  # atno 5362 bound_to 3729
   17.7274    2.3787    1.6345 LP  0  0  0  0  0  0  0  0  0  0  0  0  # atno 5363 bound_to 3035
   17.0262    2.9955    0.2949 LP  0  0  0  0  0  0  0  0  0  0  0  0  # atno 5364 bound_to 3035
   23.5531   10.2874   -9.1601 LP  0  0  0  0  0  0  0  0  0  0  0  0  # atno 5373 bound_to 4987
   22.2589   10.0139  -10.1177 LP  0  0  0  0  0  0  0  0  0  0  0  0  # atno 5374 bound_to 4987
   25.4323    4.4308  -11.0854 LP  0  0  0  0  0  0  0  0  0  0  0  0  # atno 5381 bound_to 1843
   25.0461    5.1185  -12.5153 LP  0  0  0  0  0  0  0  0  0  0  0  0  # atno 5382 bound_to 1843
   20.4307   -4.9832   -4.1721 LP  0  0  0  0  0  0  0  0  0  0  0  0  # atno 5411 bound_to 3083
   21.8242   -5.0776   -3.3262 LP  0  0  0  0  0  0  0  0  0  0  0  0  # atno 5412 bound_to 3083
   18.0353   12.8670    3.1191 LP  0  0  0  0  0  0  0  0  0  0  0  0  # atno 5419 bound_to 552 
   18.4006   12.5102    1.5680 LP  0  0  0  0  0  0  0  0  0  0  0  0  # atno 5420 bound_to 552 

> <Gold.Score>
     Fitness  S(hb_ext) S(vdw_ext)  S(hb_int)    S(int)      intcor
     35.13       2.00      24.31       0.00      -0.30      -0.76

> <Gold.Goldscore.Fitness>
35.1257

> <Gold.Goldscore.Internal.Vdw>
-0.5683

> <Gold.Goldscore.Internal.Torsion>
-0.4884

> <Gold.Goldscore.External.Vdw>
24.3082

> <Gold.Goldscore.Internal.HBond>
0.0000

> <Gold.Goldscore.External.HBond>
2.0000

> <Gold.Goldscore.Internal.Correction>
-0.7585

> <Gold.Goldscore.Hbonds>
donor molecule, donor type, donor heavy atom, donor atom, acceptor molecule, acceptor atom, score
      L1  H    10    23       P1  2527  1.00

> <Gold.Goldscore.Internal.Vdw.Weighted>
-0.5683

> <Gold.Goldscore.Internal.Torsion.Weighted>
-0.4884

> <Gold.Goldscore.External.Vdw.Weighted>
33.4238

> <Gold.Goldscore.Internal.HBond.Weighted>
0.0000

> <Gold.Goldscore.External.HBond.Weighted>
2.0000

> <Gold.Goldscore.Internal.Correction.Weighted>
-0.7585

> <Gold.Rescore>
     Score     S(PLP)   S(hbond)     S(cho)   S(metal)  DE(clash)   DE(tors)     intcor
     30.65     -30.01       1.00       0.00       0.00       0.00       1.18       ----

> <Gold.PLP.Fitness>
30.6500

> <Gold.PLP.PLP>
-30.0143

> <Gold.PLP.part.hbond>
-3.7883

> <Gold.PLP.part.metal>
0.0000

> <Gold.PLP.part.buried>
-2.1752

> <Gold.PLP.part.nonpolar>
-26.8770

> <Gold.PLP.part.repulsive>
1.5365

> <Gold.PLP.ligand.clash>
0.0000

> <Gold.PLP.ligand.torsion>
1.1821

> <Gold.PLP.Chemscore.Hbond>
1.0000

> <Gold.PLP.Chemscore.CHOScore>
0.0000

> <Gold.PLP.Chemscore.Metal>
0.0000

> <Gold.Chemscore.Hbonds>
donor molecule, donor type, donor heavy atom, donor atom, acceptor molecule, acceptor atom, score
      L1  H    10    23       P1  2527  0.91

> <Gold.PLP.Chemscore.Internal.Correction>
   9.000000E+99

#       Name:                CT1002167954
#       Creating user name   hitesit
#       Creation time:       Sun Apr 16 22:50:38 2023


#       File generated by GOLD software.
#

@<TRIPOS>MOLECULE
CT1002167954|ligand_prepared|mol2|1|dock4
    29    30     1
SMALL
NO_CHARGES


@<TRIPOS>ATOM
      1 C1          26.5369   9.5186  -3.6625 C.3            1 RES1               0.0000
      2 C2          25.6010  10.0866  -2.5761 C.ar           1 RES1               0.0000
      3 C3          27.9283   9.4561  -3.0394 C.2            1 RES1               0.0000
      4 C4          25.9664   8.1583  -4.0484 C.2            1 RES1               0.0000
      5 C5          26.6095  10.3862  -4.9406 C.3            1 RES1               0.0000
      6 C6          25.4716   9.4467  -1.3470 C.ar           1 RES1               0.0000
      7 C7          24.8640  11.2489  -2.7869 C.ar           1 RES1               0.0000
      8 N8          28.4113   8.2285  -2.6937 N.am           1 RES1               0.0000
      9 O9          28.5757  10.4722  -2.8184 O.2            1 RES1               0.0000
     10 N10         26.7104   7.0445  -3.7592 N.am           1 RES1               0.0000
     11 O11         24.8718   8.0399  -4.5852 O.2            1 RES1               0.0000
     12 C12         27.5904   9.8663  -5.9796 C.3            1 RES1               0.0000
     13 C13         24.6379   9.9521  -0.3632 C.ar           1 RES1               0.0000
     14 C14         24.0307  11.7525  -1.8017 C.ar           1 RES1               0.0000
     15 C15         27.8931   7.0159  -3.0717 C.2            1 RES1               0.0000
     16 C16         23.9173  11.1054  -0.5896 C.ar           1 RES1               0.0000
     17 O17         28.4759   5.9695  -2.8023 O.2            1 RES1               0.0000
     18 H18         25.6106  10.4352  -5.3913 H              1 RES1               0.0000
     19 H19         26.9007  11.4058  -4.6592 H              1 RES1               0.0000
     20 H20         26.0289   8.5367  -1.1516 H              1 RES1               0.0000
     21 H21         24.9367  11.7742  -3.7331 H              1 RES1               0.0000
     22 H22         29.2337   8.2103  -2.0991 H              1 RES1               0.0000
     23 H23         26.3492   6.1543  -4.0869 H              1 RES1               0.0000
     24 H24         27.6023  10.5114  -6.8556 H              1 RES1               0.0000
     25 H25         28.5989   9.8284  -5.5731 H              1 RES1               0.0000
     26 H26         27.3165   8.8635  -6.3009 H              1 RES1               0.0000
     27 H27         24.5511   9.4383   0.5885 H              1 RES1               0.0000
     28 H28         23.4650  12.6601  -1.9845 H              1 RES1               0.0000
     29 H29         23.2646  11.5013   0.1813 H              1 RES1               0.0000
@<TRIPOS>BOND
    1    1    2 1     
    2    1    3 1     
    3    1    4 1     
    4    1    5 1     
    5    2    6 ar    
    6    2    7 ar    
    7    3    8 1     
    8    3    9 2     
    9    4   10 1     
   10    4   11 2     
   11    5   12 1     
   12    5   18 1     
   13    5   19 1     
   14    6   13 ar    
   15    6   20 1     
   16    7   14 ar    
   17    7   21 1     
   18    8   15 1     
   19    8   22 1     
   20   10   15 1     
   21   10   23 1     
   22   12   24 1     
   23   12   25 1     
   24   12   26 1     
   25   13   16 ar    
   26   13   27 1     
   27   14   16 ar    
   28   14   28 1     
   29   15   17 2     
   30   16   29 1     
@<TRIPOS>SUBSTRUCTURE
      1 RES1           1
@<TRIPOS>SET
DONOR_HYDROGENS      STATIC     ATOMS    <user>   **** ""
2 22 23
ATOM$RED        STATIC     ATOMS    COLORGROUP SYSTEM
2 22 23
@<TRIPOS>COMMENT
> <Gold.Version>
2022.3.0

> <Gold.Id.Protein>
unknown|3oog_clean|pdb

> <Gold.Protein.RotatedTorsions>
[ 3557 3548 3547 3545 ] final  -65.83 input   60.02 | X-H torsion
[ 3477 3468 3467 3465 ] final -153.09 input   60.01 | X-H torsion
[ 3738 3729 3728 3726 ] final  -81.65 input   59.99 | X-H torsion
[ 3042 3035 3033 3030 ] final -138.10 input   59.98 | X-H torsion
[ 4996 4987 4986 4984 ] final  -54.14 input   60.02 | X-H torsion
[ 2507 2496 2495 2494 ] final   88.32 input   60.00 | X-H torsion
[ 1848 1843 1842 1839 ] final  -84.51 input   60.03 | X-H torsion
[ 3090 3083 3082 3080 ] final  -72.14 input   60.01 | X-H torsion
[  557  552  551  548 ] final  163.68 input   60.01 | X-H torsion

> <Gold.Protein.ActiveResidues>
 LEU49   GLY50   THR51   GLY52   SER53   PHE54   LEU82   GLN84   HIS87   GLY126 
 GLU127  MET128  PHE129  SER130  HIS131  LEU132  ARG133  ARG134  ILE135  GLY136 
 ARG137  ARG165  ASP166  LEU167  LYS168  PRO169  GLU170  ASN171  LEU173  ASP184 
 GLY186  PHE187  TPO197  LEU198  CYS199  GLY200  THR201  PRO202  GLU203  TYR204 
 LEU205  ILE209  ILE210  VAL226  LEU227  TYR229  GLU230  ALA233  GLY234  TYR235 
 PRO236  PRO237  PHE238  PHE239  ALA240  ASP241  GLN242  PRO243  ILE244  GLN245 
 ILE246  TYR247  ARG256  PHE257  PRO258  SER259  ASN326  PHE327  ASP328  ASP329 
 TYR330 

> <Gold.Protein.RotatedAtoms>
   17.6369   11.8897    3.1627 H   0  0  0  0  0  0  0  0  0  0  0  0  # atno 557  bound_to 552 
   25.1266    5.1905  -12.5546 H   0  0  0  0  0  0  0  0  0  0  0  0  # atno 1848 bound_to 1843
   18.9805    4.0457    0.2616 H   0  0  0  0  0  0  0  0  0  0  0  0  # atno 2507 bound_to 2496
   19.1927    5.0168   -1.0643 H   0  0  0  0  0  0  0  0  0  0  0  0  # atno 2508 bound_to 2496
   18.3937    3.5714   -1.2144 H   0  0  0  0  0  0  0  0  0  0  0  0  # atno 2509 bound_to 2496
   17.7724    2.6403   -0.2248 H   0  0  0  0  0  0  0  0  0  0  0  0  # atno 3042 bound_to 3035
   20.4846   -5.0987   -4.1082 H   0  0  0  0  0  0  0  0  0  0  0  0  # atno 3090 bound_to 3083
   15.5229  -14.7977   -6.9525 H   0  0  0  0  0  0  0  0  0  0  0  0  # atno 3477 bound_to 3468
   16.5746  -14.1575  -11.3214 H   0  0  0  0  0  0  0  0  0  0  0  0  # atno 3557 bound_to 3548
    9.6777    0.5325    3.5103 H   0  0  0  0  0  0  0  0  0  0  0  0  # atno 3738 bound_to 3729
   22.8776   10.0248  -10.1492 H   0  0  0  0  0  0  0  0  0  0  0  0  # atno 4996 bound_to 4987
   16.2943  -13.8349  -12.8917 LP  0  0  0  0  0  0  0  0  0  0  0  0  # atno 5299 bound_to 3548
   15.0474  -13.9482  -11.8434 LP  0  0  0  0  0  0  0  0  0  0  0  0  # atno 5300 bound_to 3548
   16.3709  -14.5787   -8.3242 LP  0  0  0  0  0  0  0  0  0  0  0  0  # atno 5307 bound_to 3468
   15.4018  -13.3908   -7.7617 LP  0  0  0  0  0  0  0  0  0  0  0  0  # atno 5308 bound_to 3468
    8.4205    0.9920    2.5855 LP  0  0  0  0  0  0  0  0  0  0  0  0  # atno 5361 bound_to 3729
    9.7565    0.3559    1.8949 LP  0  0  0  0  0  0  0  0  0  0  0  0  # atno 5362 bound_to 3729
   18.4182    2.0531    1.1482 LP  0  0  0  0  0  0  0  0  0  0  0  0  # atno 5363 bound_to 3035
   17.0040    2.8685    1.1910 LP  0  0  0  0  0  0  0  0  0  0  0  0  # atno 5364 bound_to 3035
   21.7039   10.2654   -9.0483 LP  0  0  0  0  0  0  0  0  0  0  0  0  # atno 5373 bound_to 4987
   23.2726   10.4146   -8.6197 LP  0  0  0  0  0  0  0  0  0  0  0  0  # atno 5374 bound_to 4987
   26.4706    5.4539  -11.6750 LP  0  0  0  0  0  0  0  0  0  0  0  0  # atno 5381 bound_to 1843
   25.3351    4.4079  -11.1428 LP  0  0  0  0  0  0  0  0  0  0  0  0  # atno 5382 bound_to 1843
   21.8981   -4.9555   -3.3146 LP  0  0  0  0  0  0  0  0  0  0  0  0  # atno 5411 bound_to 3083
   21.2338   -3.6553   -4.0460 LP  0  0  0  0  0  0  0  0  0  0  0  0  # atno 5412 bound_to 3083
   18.3690   13.1391    2.4207 LP  0  0  0  0  0  0  0  0  0  0  0  0  # atno 5419 bound_to 552 
   18.0913   11.7512    1.6064 LP  0  0  0  0  0  0  0  0  0  0  0  0  # atno 5420 bound_to 552 

> <Gold.Score>
     Fitness  S(hb_ext) S(vdw_ext)  S(hb_int)    S(int)      intcor
     33.87       2.00      23.25       0.00      -0.10      -0.77

> <Gold.Goldscore.Fitness>
33.8716

> <Gold.Goldscore.Internal.Vdw>
-0.4819

> <Gold.Goldscore.Internal.Torsion>
-0.3849

> <Gold.Goldscore.External.Vdw>
23.2532

> <Gold.Goldscore.Internal.HBond>
0.0000

> <Gold.Goldscore.External.HBond>
2.0000

> <Gold.Goldscore.Internal.Correction>
-0.7653

> <Gold.Goldscore.Hbonds>
donor molecule, donor type, donor heavy atom, donor atom, acceptor molecule, acceptor atom, score
      L1  H    10    23       P1  2527  1.00

> <Gold.Goldscore.Internal.Vdw.Weighted>
-0.4819

> <Gold.Goldscore.Internal.Torsion.Weighted>
-0.3849

> <Gold.Goldscore.External.Vdw.Weighted>
31.9731

> <Gold.Goldscore.Internal.HBond.Weighted>
0.0000

> <Gold.Goldscore.External.HBond.Weighted>
2.0000

> <Gold.Goldscore.Internal.Correction.Weighted>
-0.7653

> <Gold.Rescore>
     Score     S(PLP)   S(hbond)     S(cho)   S(metal)  DE(clash)   DE(tors)     intcor
     31.31     -31.26       0.98       0.00       0.00       0.00       1.44       ----

> <Gold.PLP.Fitness>
31.3056

> <Gold.PLP.PLP>
-31.2610

> <Gold.PLP.part.hbond>
-3.9010

> <Gold.PLP.part.metal>
0.0000

> <Gold.PLP.part.buried>
-2.5750

> <Gold.PLP.part.nonpolar>
-28.3103

> <Gold.PLP.part.repulsive>
2.3184

> <Gold.PLP.ligand.clash>
0.0000

> <Gold.PLP.ligand.torsion>
1.4417

> <Gold.PLP.Chemscore.Hbond>
0.9760

> <Gold.PLP.Chemscore.CHOScore>
0.0000

> <Gold.PLP.Chemscore.Metal>
0.0000

> <Gold.Chemscore.Hbonds>
donor molecule, donor type, donor heavy atom, donor atom, acceptor molecule, acceptor atom, score
      L1  H    10    23       P1  2527  1.00

> <Gold.PLP.Chemscore.Internal.Correction>
   9.000000E+99

#       Name:                CT1002167954
#       Creating user name   hitesit
#       Creation time:       Sun Apr 16 22:50:35 2023


#       File generated by GOLD software.
#

@<TRIPOS>MOLECULE
CT1002167954|ligand_prepared|mol2|1|dock2
    29    30     1
SMALL
NO_CHARGES


@<TRIPOS>ATOM
      1 C1          22.3251   9.3112  -3.0076 C.3            1 RES1               0.0000
      2 C2          22.7475  10.6415  -2.3513 C.ar           1 RES1               0.0000
      3 C3          21.0491   9.6060  -3.7907 C.2            1 RES1               0.0000
      4 C4          23.4996   8.8713  -3.8746 C.2            1 RES1               0.0000
      5 C5          22.0295   8.1809  -1.9944 C.3            1 RES1               0.0000
      6 C6          23.0295  11.7586  -3.1320 C.ar           1 RES1               0.0000
      7 C7          22.8569  10.7675  -0.9690 C.ar           1 RES1               0.0000
      8 N8          21.1417   9.6655  -5.1501 N.am           1 RES1               0.0000
      9 O9          19.9860   9.8220  -3.2222 O.2            1 RES1               0.0000
     10 N10         23.3177   8.8360  -5.2323 N.am           1 RES1               0.0000
     11 O11         24.5861   8.5710  -3.3953 O.2            1 RES1               0.0000
     12 C12         21.5905   6.8768  -2.6415 C.3            1 RES1               0.0000
     13 C13         23.4043  12.9590  -2.5517 C.ar           1 RES1               0.0000
     14 C14         23.2321  11.9689  -0.3908 C.ar           1 RES1               0.0000
     15 C15         22.2015   9.2426  -5.9113 C.2            1 RES1               0.0000
     16 C16         23.5054  13.0652  -1.1809 C.ar           1 RES1               0.0000
     17 O17         22.1331   9.2321  -7.1371 O.2            1 RES1               0.0000
     18 H18         22.9327   7.9939  -1.4005 H              1 RES1               0.0000
     19 H19         21.2416   8.5178  -1.3094 H              1 RES1               0.0000
     20 H20         22.9576  11.6934  -4.2125 H              1 RES1               0.0000
     21 H21         22.6477   9.9180  -0.3278 H              1 RES1               0.0000
     22 H22         20.3496  10.0611  -5.6465 H              1 RES1               0.0000
     23 H23         24.0854   8.4728  -5.7882 H              1 RES1               0.0000
     24 H24         21.3960   6.1179  -1.8865 H              1 RES1               0.0000
     25 H25         20.6802   7.0204  -3.2199 H              1 RES1               0.0000
     26 H26         22.3612   6.4996  -3.3105 H              1 RES1               0.0000
     27 H27         23.6196  13.8185  -3.1779 H              1 RES1               0.0000
     28 H28         23.3110  12.0477   0.6885 H              1 RES1               0.0000
     29 H29         23.7987  14.0058  -0.7265 H              1 RES1               0.0000
@<TRIPOS>BOND
    1    1    2 1     
    2    1    3 1     
    3    1    4 1     
    4    1    5 1     
    5    2    6 ar    
    6    2    7 ar    
    7    3    8 1     
    8    3    9 2     
    9    4   10 1     
   10    4   11 2     
   11    5   12 1     
   12    5   18 1     
   13    5   19 1     
   14    6   13 ar    
   15    6   20 1     
   16    7   14 ar    
   17    7   21 1     
   18    8   15 1     
   19    8   22 1     
   20   10   15 1     
   21   10   23 1     
   22   12   24 1     
   23   12   25 1     
   24   12   26 1     
   25   13   16 ar    
   26   13   27 1     
   27   14   16 ar    
   28   14   28 1     
   29   15   17 2     
   30   16   29 1     
@<TRIPOS>SUBSTRUCTURE
      1 RES1           1
@<TRIPOS>SET
DONOR_HYDROGENS      STATIC     ATOMS    <user>   **** ""
2 22 23
ATOM$RED        STATIC     ATOMS    COLORGROUP SYSTEM
2 22 23
@<TRIPOS>COMMENT
> <Gold.Version>
2022.3.0

> <Gold.Id.Protein>
unknown|3oog_clean|pdb

> <Gold.Protein.RotatedTorsions>
[ 3557 3548 3547 3545 ] final   23.51 input   60.02 | X-H torsion
[ 3477 3468 3467 3465 ] final -161.52 input   60.01 | X-H torsion
[ 3738 3729 3728 3726 ] final -139.12 input   59.99 | X-H torsion
[ 3042 3035 3033 3030 ] final   35.23 input   59.98 | X-H torsion
[ 4996 4987 4986 4984 ] final -133.01 input   60.02 | X-H torsion
[ 2507 2496 2495 2494 ] final  -18.50 input   60.00 | X-H torsion
[ 1848 1843 1842 1839 ] final   72.48 input   60.03 | X-H torsion
[ 3090 3083 3082 3080 ] final -130.95 input   60.01 | X-H torsion
[  557  552  551  548 ] final   22.61 input   60.01 | X-H torsion

> <Gold.Protein.ActiveResidues>
 LEU49   GLY50   THR51   GLY52   SER53   PHE54   LEU82   GLN84   HIS87   GLY126 
 GLU127  MET128  PHE129  SER130  HIS131  LEU132  ARG133  ARG134  ILE135  GLY136 
 ARG137  ARG165  ASP166  LEU167  LYS168  PRO169  GLU170  ASN171  LEU173  ASP184 
 GLY186  PHE187  TPO197  LEU198  CYS199  GLY200  THR201  PRO202  GLU203  TYR204 
 LEU205  ILE209  ILE210  VAL226  LEU227  TYR229  GLU230  ALA233  GLY234  TYR235 
 PRO236  PRO237  PHE238  PHE239  ALA240  ASP241  GLN242  PRO243  ILE244  GLN245 
 ILE246  TYR247  ARG256  PHE257  PRO258  SER259  ASN326  PHE327  ASP328  ASP329 
 TYR330 

> <Gold.Protein.RotatedAtoms>
   18.4364   13.0472    2.0967 H   0  0  0  0  0  0  0  0  0  0  0  0  # atno 557  bound_to 552 
   25.8650    4.6221  -10.9731 H   0  0  0  0  0  0  0  0  0  0  0  0  # atno 1848 bound_to 1843
   18.3783    3.4610   -1.0248 H   0  0  0  0  0  0  0  0  0  0  0  0  # atno 2507 bound_to 2496
   19.0824    4.2397    0.2573 H   0  0  0  0  0  0  0  0  0  0  0  0  # atno 2508 bound_to 2496
   19.1065    4.9333   -1.2489 H   0  0  0  0  0  0  0  0  0  0  0  0  # atno 2509 bound_to 2496
   17.5957    2.4541    1.6260 H   0  0  0  0  0  0  0  0  0  0  0  0  # atno 3042 bound_to 3035
   21.1569   -5.4819   -3.6118 H   0  0  0  0  0  0  0  0  0  0  0  0  # atno 3090 bound_to 3083
   15.6070  -14.8916   -7.0076 H   0  0  0  0  0  0  0  0  0  0  0  0  # atno 3477 bound_to 3468
   15.2654  -14.0460  -11.4078 H   0  0  0  0  0  0  0  0  0  0  0  0  # atno 3557 bound_to 3548
    8.8507    0.8828    3.4536 H   0  0  0  0  0  0  0  0  0  0  0  0  # atno 3738 bound_to 3729
   21.7865   10.1112   -9.6846 H   0  0  0  0  0  0  0  0  0  0  0  0  # atno 4996 bound_to 4987
   16.8609  -14.1028  -11.7236 LP  0  0  0  0  0  0  0  0  0  0  0  0  # atno 5299 bound_to 3548
   15.7987  -13.7926  -12.9244 LP  0  0  0  0  0  0  0  0  0  0  0  0  # atno 5300 bound_to 3548
   16.3544  -14.4558   -8.3860 LP  0  0  0  0  0  0  0  0  0  0  0  0  # atno 5307 bound_to 3468
   15.3336  -13.4191   -7.6444 LP  0  0  0  0  0  0  0  0  0  0  0  0  # atno 5308 bound_to 3468
    8.8574    0.7368    1.8331 LP  0  0  0  0  0  0  0  0  0  0  0  0  # atno 5361 bound_to 3729
   10.1529    0.2580    2.7044 LP  0  0  0  0  0  0  0  0  0  0  0  0  # atno 5362 bound_to 3729
   17.1020    2.9717    0.1647 LP  0  0  0  0  0  0  0  0  0  0  0  0  # atno 5363 bound_to 3035
   18.4982    2.1374    0.3098 LP  0  0  0  0  0  0  0  0  0  0  0  0  # atno 5364 bound_to 3035
   22.6650   10.4627   -8.3610 LP  0  0  0  0  0  0  0  0  0  0  0  0  # atno 5373 bound_to 4987
   23.4109   10.1303   -9.7751 LP  0  0  0  0  0  0  0  0  0  0  0  0  # atno 5374 bound_to 4987
   24.8325    4.7949  -12.2194 LP  0  0  0  0  0  0  0  0  0  0  0  0  # atno 5381 bound_to 1843
   26.2300    5.6391  -12.1903 LP  0  0  0  0  0  0  0  0  0  0  0  0  # atno 5382 bound_to 1843
   21.9355   -4.0553   -3.5279 LP  0  0  0  0  0  0  0  0  0  0  0  0  # atno 5411 bound_to 3083
   20.5192   -4.1696   -4.3326 LP  0  0  0  0  0  0  0  0  0  0  0  0  # atno 5412 bound_to 3083
   17.9352   11.5251    1.8146 LP  0  0  0  0  0  0  0  0  0  0  0  0  # atno 5419 bound_to 552 
   17.7198   12.1992    3.2863 LP  0  0  0  0  0  0  0  0  0  0  0  0  # atno 5420 bound_to 552 

> <Gold.Score>
     Fitness  S(hb_ext) S(vdw_ext)  S(hb_int)    S(int)      intcor
     30.44       3.64      19.50       0.00      -0.01      -0.79

> <Gold.Goldscore.Fitness>
30.4377

> <Gold.Goldscore.Internal.Vdw>
-0.4297

> <Gold.Goldscore.Internal.Torsion>
-0.3691

> <Gold.Goldscore.External.Vdw>
19.5024

> <Gold.Goldscore.Internal.HBond>
0.0000

> <Gold.Goldscore.External.HBond>
3.6357

> <Gold.Goldscore.Internal.Correction>
-0.7850

> <Gold.Goldscore.Hbonds>
donor molecule, donor type, donor heavy atom, donor atom, acceptor molecule, acceptor atom, score
      L1  H    10    23       P1  1794  0.61

> <Gold.Goldscore.Internal.Vdw.Weighted>
-0.4297

> <Gold.Goldscore.Internal.Torsion.Weighted>
-0.3691

> <Gold.Goldscore.External.Vdw.Weighted>
26.8158

> <Gold.Goldscore.Internal.HBond.Weighted>
0.0000

> <Gold.Goldscore.External.HBond.Weighted>
3.6357

> <Gold.Goldscore.Internal.Correction.Weighted>
-0.7850

> <Gold.Rescore>
     Score     S(PLP)   S(hbond)     S(cho)   S(metal)  DE(clash)   DE(tors)     intcor
     30.80     -27.96       1.02       0.00       0.00       0.00       0.11       ----

> <Gold.PLP.Fitness>
30.7980

> <Gold.PLP.PLP>
-27.9570

> <Gold.PLP.part.hbond>
-3.0000

> <Gold.PLP.part.metal>
0.0000

> <Gold.PLP.part.buried>
-4.1911

> <Gold.PLP.part.nonpolar>
-22.2278

> <Gold.PLP.part.repulsive>
0.7531

> <Gold.PLP.ligand.clash>
0.0000

> <Gold.PLP.ligand.torsion>
0.1052

> <Gold.PLP.Chemscore.Hbond>
1.0172

> <Gold.PLP.Chemscore.CHOScore>
0.0000

> <Gold.PLP.Chemscore.Metal>
0.0000

> <Gold.Chemscore.Hbonds>
donor molecule, donor type, donor heavy atom, donor atom, acceptor molecule, acceptor atom, score
      L1  H    10    23       P1  1794  0.83

> <Gold.PLP.Chemscore.Internal.Correction>
   9.000000E+99

#       Name:                CT1002167954
#       Creating user name   hitesit
#       Creation time:       Sun Apr 16 22:50:37 2023


#       File generated by GOLD software.
#

@<TRIPOS>MOLECULE
CT1002167954|ligand_prepared|mol2|1|dock3
    29    30     1
SMALL
NO_CHARGES


@<TRIPOS>ATOM
      1 C1          21.4172   9.3801  -3.5258 C.3            1 RES1               0.0000
      2 C2          21.9830  10.6998  -2.9627 C.ar           1 RES1               0.0000
      3 C3          22.2583   8.2603  -2.9201 C.2            1 RES1               0.0000
      4 C4          19.9469   9.3405  -3.1242 C.2            1 RES1               0.0000
      5 C5          21.4946   9.2741  -5.0667 C.3            1 RES1               0.0000
      6 C6          21.4677  11.2497  -1.7928 C.ar           1 RES1               0.0000
      7 C7          23.0200  11.3762  -3.5995 C.ar           1 RES1               0.0000
      8 N8          21.6885   7.5007  -1.9412 N.am           1 RES1               0.0000
      9 O9          23.4175   8.0720  -3.2682 O.2            1 RES1               0.0000
     10 N10         19.5472   8.3680  -2.2454 N.am           1 RES1               0.0000
     11 O11         19.1341  10.1530  -3.5479 O.2            1 RES1               0.0000
     12 C12         20.7261   8.0936  -5.6394 C.3            1 RES1               0.0000
     13 C13         21.9728  12.4314  -1.2764 C.ar           1 RES1               0.0000
     14 C14         23.5236  12.5580  -3.0816 C.ar           1 RES1               0.0000
     15 C15         20.3573   7.4654  -1.6120 C.2            1 RES1               0.0000
     16 C16         23.0012  13.0861  -1.9201 C.ar           1 RES1               0.0000
     17 O17         19.9316   6.6563  -0.7926 O.2            1 RES1               0.0000
     18 H18         21.0990  10.1988  -5.5045 H              1 RES1               0.0000
     19 H19         22.5474   9.1868  -5.3622 H              1 RES1               0.0000
     20 H20         20.6566  10.7500  -1.2737 H              1 RES1               0.0000
     21 H21         23.4457  10.9799  -4.5151 H              1 RES1               0.0000
     22 H22         22.3095   6.9038  -1.4043 H              1 RES1               0.0000
     23 H23         18.5537   8.3116  -2.0450 H              1 RES1               0.0000
     24 H24         20.8134   8.0659  -6.7235 H              1 RES1               0.0000
     25 H25         21.1100   7.1552  -5.2445 H              1 RES1               0.0000
     26 H26         19.6701   8.1612  -5.3860 H              1 RES1               0.0000
     27 H27         21.5573  12.8436  -0.3628 H              1 RES1               0.0000
     28 H28         24.3326  13.0702  -3.5918 H              1 RES1               0.0000
     29 H29         23.3970  14.0117  -1.5152 H              1 RES1               0.0000
@<TRIPOS>BOND
    1    1    2 1     
    2    1    3 1     
    3    1    4 1     
    4    1    5 1     
    5    2    6 ar    
    6    2    7 ar    
    7    3    8 1     
    8    3    9 2     
    9    4   10 1     
   10    4   11 2     
   11    5   12 1     
   12    5   18 1     
   13    5   19 1     
   14    6   13 ar    
   15    6   20 1     
   16    7   14 ar    
   17    7   21 1     
   18    8   15 1     
   19    8   22 1     
   20   10   15 1     
   21   10   23 1     
   22   12   24 1     
   23   12   25 1     
   24   12   26 1     
   25   13   16 ar    
   26   13   27 1     
   27   14   16 ar    
   28   14   28 1     
   29   15   17 2     
   30   16   29 1     
@<TRIPOS>SUBSTRUCTURE
      1 RES1           1
@<TRIPOS>SET
DONOR_HYDROGENS      STATIC     ATOMS    <user>   **** ""
2 22 23
ATOM$RED        STATIC     ATOMS    COLORGROUP SYSTEM
2 22 23
@<TRIPOS>COMMENT
> <Gold.Version>
2022.3.0

> <Gold.Id.Protein>
unknown|3oog_clean|pdb

> <Gold.Protein.RotatedTorsions>
[ 3557 3548 3547 3545 ] final  159.62 input   60.02 | X-H torsion
[ 3477 3468 3467 3465 ] final  174.03 input   60.01 | X-H torsion
[ 3738 3729 3728 3726 ] final   92.64 input   59.99 | X-H torsion
[ 3042 3035 3033 3030 ] final -143.61 input   59.98 | X-H torsion
[ 4996 4987 4986 4984 ] final  -99.51 input   60.02 | X-H torsion
[ 2507 2496 2495 2494 ] final  -50.03 input   60.00 | X-H torsion
[ 1848 1843 1842 1839 ] final   96.29 input   60.03 | X-H torsion
[ 3090 3083 3082 3080 ] final  -34.51 input   60.01 | X-H torsion
[  557  552  551  548 ] final  -57.48 input   60.01 | X-H torsion

> <Gold.Protein.ActiveResidues>
 LEU49   GLY50   THR51   GLY52   SER53   PHE54   LEU82   GLN84   HIS87   GLY126 
 GLU127  MET128  PHE129  SER130  HIS131  LEU132  ARG133  ARG134  ILE135  GLY136 
 ARG137  ARG165  ASP166  LEU167  LYS168  PRO169  GLU170  ASN171  LEU173  ASP184 
 GLY186  PHE187  TPO197  LEU198  CYS199  GLY200  THR201  PRO202  GLU203  TYR204 
 LEU205  ILE209  ILE210  VAL226  LEU227  TYR229  GLU230  ALA233  GLY234  TYR235 
 PRO236  PRO237  PHE238  PHE239  ALA240  ASP241  GLN242  PRO243  ILE244  GLN245 
 ILE246  TYR247  ARG256  PHE257  PRO258  SER259  ASN326  PHE327  ASP328  ASP329 
 TYR330 

> <Gold.Protein.RotatedAtoms>
   18.2218   12.0143    1.5153 H   0  0  0  0  0  0  0  0  0  0  0  0  # atno 557  bound_to 552 
   26.1697    4.8512  -11.0362 H   0  0  0  0  0  0  0  0  0  0  0  0  # atno 1848 bound_to 1843
   18.4559    3.7809   -1.4272 H   0  0  0  0  0  0  0  0  0  0  0  0  # atno 2507 bound_to 2496
   18.8290    3.7909    0.1873 H   0  0  0  0  0  0  0  0  0  0  0  0  # atno 2508 bound_to 2496
   19.2822    5.0621   -0.7763 H   0  0  0  0  0  0  0  0  0  0  0  0  # atno 2509 bound_to 2496
   17.8499    2.5949   -0.2229 H   0  0  0  0  0  0  0  0  0  0  0  0  # atno 3042 bound_to 3035
   20.4015   -4.5339   -4.3048 H   0  0  0  0  0  0  0  0  0  0  0  0  # atno 3090 bound_to 3083
   15.8635  -15.0807   -7.2436 H   0  0  0  0  0  0  0  0  0  0  0  0  # atno 3477 bound_to 3468
   16.0616  -13.8073  -12.9333 H   0  0  0  0  0  0  0  0  0  0  0  0  # atno 3557 bound_to 3548
    8.9713    0.6816    1.7861 H   0  0  0  0  0  0  0  0  0  0  0  0  # atno 3738 bound_to 3729
   22.1608   10.0267  -10.0639 H   0  0  0  0  0  0  0  0  0  0  0  0  # atno 4996 bound_to 4987
   15.1183  -13.9966  -11.6207 LP  0  0  0  0  0  0  0  0  0  0  0  0  # atno 5299 bound_to 3548
   16.7399  -14.1391  -11.4916 LP  0  0  0  0  0  0  0  0  0  0  0  0  # atno 5300 bound_to 3548
   16.2368  -14.0849   -8.4755 LP  0  0  0  0  0  0  0  0  0  0  0  0  # atno 5307 bound_to 3468
   15.1929  -13.5997   -7.3173 LP  0  0  0  0  0  0  0  0  0  0  0  0  # atno 5308 bound_to 3468
   10.1432    0.2743    2.8387 LP  0  0  0  0  0  0  0  0  0  0  0  0  # atno 5361 bound_to 3729
    8.7456    0.9234    3.3791 LP  0  0  0  0  0  0  0  0  0  0  0  0  # atno 5362 bound_to 3729
   18.3724    2.0677    1.2249 LP  0  0  0  0  0  0  0  0  0  0  0  0  # atno 5363 bound_to 3035
   16.9717    2.8996    1.1124 LP  0  0  0  0  0  0  0  0  0  0  0  0  # atno 5364 bound_to 3035
   22.1376   10.4176   -8.4847 LP  0  0  0  0  0  0  0  0  0  0  0  0  # atno 5373 bound_to 4987
   23.5612   10.2604   -9.2692 LP  0  0  0  0  0  0  0  0  0  0  0  0  # atno 5374 bound_to 4987
   24.8164    4.5766  -11.8977 LP  0  0  0  0  0  0  0  0  0  0  0  0  # atno 5381 bound_to 1843
   25.9392    5.6268  -12.4484 LP  0  0  0  0  0  0  0  0  0  0  0  0  # atno 5382 bound_to 1843
   21.4883   -5.3857   -3.4436 LP  0  0  0  0  0  0  0  0  0  0  0  0  # atno 5411 bound_to 3083
   21.7273   -3.7940   -3.7189 LP  0  0  0  0  0  0  0  0  0  0  0  0  # atno 5412 bound_to 3083
   17.6052   11.6475    2.9758 LP  0  0  0  0  0  0  0  0  0  0  0  0  # atno 5419 bound_to 552 
   18.2660   13.1172    2.7109 LP  0  0  0  0  0  0  0  0  0  0  0  0  # atno 5420 bound_to 552 

> <Gold.Score>
     Fitness  S(hb_ext) S(vdw_ext)  S(hb_int)    S(int)      intcor
     29.60       3.79      19.14       0.00      -0.51      -0.79

> <Gold.Goldscore.Fitness>
29.5991

> <Gold.Goldscore.Internal.Vdw>
-0.7723

> <Gold.Goldscore.Internal.Torsion>
-0.5232

> <Gold.Goldscore.External.Vdw>
19.1387

> <Gold.Goldscore.Internal.HBond>
0.0000

> <Gold.Goldscore.External.HBond>
3.7939

> <Gold.Goldscore.Internal.Correction>
-0.7850

> <Gold.Goldscore.Hbonds>
donor molecule, donor type, donor heavy atom, donor atom, acceptor molecule, acceptor atom, score
      P1  H  2496  2509       L1    17  0.52
      L1  H     8    22       P1  2546  0.35

> <Gold.Goldscore.Internal.Vdw.Weighted>
-0.7723

> <Gold.Goldscore.Internal.Torsion.Weighted>
-0.5232

> <Gold.Goldscore.External.Vdw.Weighted>
26.3157

> <Gold.Goldscore.Internal.HBond.Weighted>
0.0000

> <Gold.Goldscore.External.HBond.Weighted>
3.7939

> <Gold.Goldscore.Internal.Correction.Weighted>
-0.7850

> <Gold.Rescore>
     Score     S(PLP)   S(hbond)     S(cho)   S(metal)  DE(clash)   DE(tors)     intcor
     27.48     -24.03       1.98       0.00       0.00       0.00       1.25       ----

> <Gold.PLP.Fitness>
27.4796

> <Gold.PLP.PLP>
-24.0316

> <Gold.PLP.part.hbond>
-2.1879

> <Gold.PLP.part.metal>
0.0000

> <Gold.PLP.part.buried>
-4.2776

> <Gold.PLP.part.nonpolar>
-19.8624

> <Gold.PLP.part.repulsive>
2.1244

> <Gold.PLP.ligand.clash>
0.0000

> <Gold.PLP.ligand.torsion>
1.2520

> <Gold.PLP.Chemscore.Hbond>
1.9840

> <Gold.PLP.Chemscore.CHOScore>
0.0000

> <Gold.PLP.Chemscore.Metal>
0.0000

> <Gold.Chemscore.Hbonds>
donor molecule, donor type, donor heavy atom, donor atom, acceptor molecule, acceptor atom, score
      P1  H  2496  2509       L1    17  1.00

> <Gold.PLP.Chemscore.Internal.Correction>
   9.000000E+99

#       Name:                CT1002167954
#       Creating user name   hitesit
#       Creation time:       Sun Apr 16 22:50:39 2023


#       File generated by GOLD software.
#

@<TRIPOS>MOLECULE
CT1002167954|ligand_prepared|mol2|1|dock5
    29    30     1
SMALL
NO_CHARGES


@<TRIPOS>ATOM
      1 C1          20.4182   9.3808  -1.4779 C.3            1 RES1               0.0000
      2 C2          21.2705  10.6488  -1.2667 C.ar           1 RES1               0.0000
      3 C3          21.4021   8.2304  -1.6699 C.2            1 RES1               0.0000
      4 C4          19.5386   9.2470  -0.2397 C.2            1 RES1               0.0000
      5 C5          19.4937   9.4483  -2.7157 C.3            1 RES1               0.0000
      6 C6          21.9149  11.2563  -2.3402 C.ar           1 RES1               0.0000
      7 C7          21.4192  11.2231  -0.0071 C.ar           1 RES1               0.0000
      8 N8          21.5516   7.3483  -0.6406 N.am           1 RES1               0.0000
      9 O9          22.0659   8.1214  -2.6935 O.2            1 RES1               0.0000
     10 N10         19.7462   8.1703   0.5821 N.am           1 RES1               0.0000
     11 O11         18.6787  10.0731   0.0404 O.2            1 RES1               0.0000
     12 C12         18.5285   8.2784  -2.8246 C.3            1 RES1               0.0000
     13 C13         22.6779  12.3983  -2.1616 C.ar           1 RES1               0.0000
     14 C14         22.1830  12.3651   0.1694 C.ar           1 RES1               0.0000
     15 C15         20.7333   7.2314   0.4542 C.2            1 RES1               0.0000
     16 C16         22.8121  12.9537  -0.9069 C.ar           1 RES1               0.0000
     17 O17         20.8903   6.3228   1.2647 O.2            1 RES1               0.0000
     18 H18         18.9162  10.3800  -2.6747 H              1 RES1               0.0000
     19 H19         20.1151   9.4785  -3.6193 H              1 RES1               0.0000
     20 H20         21.8228  10.8322  -3.3346 H              1 RES1               0.0000
     21 H21         20.9343  10.7766   0.8543 H              1 RES1               0.0000
     22 H22         22.3451   6.7173  -0.6892 H              1 RES1               0.0000
     23 H23         19.1054   8.0582   1.3613 H              1 RES1               0.0000
     24 H24         17.9036   8.3751  -3.7100 H              1 RES1               0.0000
     25 H25         19.0695   7.3369  -2.8928 H              1 RES1               0.0000
     26 H26         17.8777   8.2331  -1.9538 H              1 RES1               0.0000
     27 H27         23.1722  12.8570  -3.0116 H              1 RES1               0.0000
     28 H28         22.2863  12.7983   1.1588 H              1 RES1               0.0000
     29 H29         23.4096  13.8485  -0.7672 H              1 RES1               0.0000
@<TRIPOS>BOND
    1    1    2 1     
    2    1    3 1     
    3    1    4 1     
    4    1    5 1     
    5    2    6 ar    
    6    2    7 ar    
    7    3    8 1     
    8    3    9 2     
    9    4   10 1     
   10    4   11 2     
   11    5   12 1     
   12    5   18 1     
   13    5   19 1     
   14    6   13 ar    
   15    6   20 1     
   16    7   14 ar    
   17    7   21 1     
   18    8   15 1     
   19    8   22 1     
   20   10   15 1     
   21   10   23 1     
   22   12   24 1     
   23   12   25 1     
   24   12   26 1     
   25   13   16 ar    
   26   13   27 1     
   27   14   16 ar    
   28   14   28 1     
   29   15   17 2     
   30   16   29 1     
@<TRIPOS>SUBSTRUCTURE
      1 RES1           1
@<TRIPOS>SET
DONOR_HYDROGENS      STATIC     ATOMS    <user>   **** ""
2 22 23
ATOM$RED        STATIC     ATOMS    COLORGROUP SYSTEM
2 22 23
@<TRIPOS>COMMENT
> <Gold.Version>
2022.3.0

> <Gold.Id.Protein>
unknown|3oog_clean|pdb

> <Gold.Protein.RotatedTorsions>
[ 3557 3548 3547 3545 ] final  -11.98 input   60.02 | X-H torsion
[ 3477 3468 3467 3465 ] final  156.43 input   60.01 | X-H torsion
[ 3738 3729 3728 3726 ] final -103.14 input   59.99 | X-H torsion
[ 3042 3035 3033 3030 ] final  -16.19 input   59.98 | X-H torsion
[ 4996 4987 4986 4984 ] final  -58.50 input   60.02 | X-H torsion
[ 2507 2496 2495 2494 ] final   82.92 input   60.00 | X-H torsion
[ 1848 1843 1842 1839 ] final   29.74 input   60.03 | X-H torsion
[ 3090 3083 3082 3080 ] final  155.62 input   60.01 | X-H torsion
[  557  552  551  548 ] final  -94.40 input   60.01 | X-H torsion

> <Gold.Protein.ActiveResidues>
 LEU49   GLY50   THR51   GLY52   SER53   PHE54   LEU82   GLN84   HIS87   GLY126 
 GLU127  MET128  PHE129  SER130  HIS131  LEU132  ARG133  ARG134  ILE135  GLY136 
 ARG137  ARG165  ASP166  LEU167  LYS168  PRO169  GLU170  ASN171  LEU173  ASP184 
 GLY186  PHE187  TPO197  LEU198  CYS199  GLY200  THR201  PRO202  GLU203  TYR204 
 LEU205  ILE209  ILE210  VAL226  LEU227  TYR229  GLU230  ALA233  GLY234  TYR235 
 PRO236  PRO237  PHE238  PHE239  ALA240  ASP241  GLN242  PRO243  ILE244  GLN245 
 ILE246  TYR247  ARG256  PHE257  PRO258  SER259  ASN326  PHE327  ASP328  ASP329 
 TYR330 

> <Gold.Protein.RotatedAtoms>
   17.9559   11.5574    1.7835 H   0  0  0  0  0  0  0  0  0  0  0  0  # atno 557  bound_to 552 
   25.2622    4.3983  -11.2023 H   0  0  0  0  0  0  0  0  0  0  0  0  # atno 1848 bound_to 1843
   18.9366    3.9680    0.2494 H   0  0  0  0  0  0  0  0  0  0  0  0  # atno 2507 bound_to 2496
   19.2230    5.0389   -0.9824 H   0  0  0  0  0  0  0  0  0  0  0  0  # atno 2508 bound_to 2496
   18.4072    3.6270   -1.2841 H   0  0  0  0  0  0  0  0  0  0  0  0  # atno 2509 bound_to 2496
   17.0210    2.8526    1.2132 H   0  0  0  0  0  0  0  0  0  0  0  0  # atno 3042 bound_to 3035
   21.9683   -4.7678   -3.3203 H   0  0  0  0  0  0  0  0  0  0  0  0  # atno 3090 bound_to 3083
   16.0399  -15.1263   -7.4647 H   0  0  0  0  0  0  0  0  0  0  0  0  # atno 3477 bound_to 3468
   15.7507  -14.1368  -11.1212 H   0  0  0  0  0  0  0  0  0  0  0  0  # atno 3557 bound_to 3548
    9.3699    0.6725    3.5966 H   0  0  0  0  0  0  0  0  0  0  0  0  # atno 3738 bound_to 3729
   22.8084   10.0189  -10.1654 H   0  0  0  0  0  0  0  0  0  0  0  0  # atno 4996 bound_to 4987
   16.8765  -13.9943  -12.2878 LP  0  0  0  0  0  0  0  0  0  0  0  0  # atno 5299 bound_to 3548
   15.2946  -13.8097  -12.6488 LP  0  0  0  0  0  0  0  0  0  0  0  0  # atno 5300 bound_to 3548
   16.0979  -13.8333   -8.4514 LP  0  0  0  0  0  0  0  0  0  0  0  0  # atno 5307 bound_to 3468
   15.1543  -13.8054   -7.1189 LP  0  0  0  0  0  0  0  0  0  0  0  0  # atno 5308 bound_to 3468
    8.4966    0.9291    2.2481 LP  0  0  0  0  0  0  0  0  0  0  0  0  # atno 5361 bound_to 3729
    9.9905    0.2777    2.1453 LP  0  0  0  0  0  0  0  0  0  0  0  0  # atno 5362 bound_to 3729
   17.7465    2.6587   -0.2301 LP  0  0  0  0  0  0  0  0  0  0  0  0  # atno 5363 bound_to 3035
   18.4327    2.0490    1.1204 LP  0  0  0  0  0  0  0  0  0  0  0  0  # atno 5364 bound_to 3035
   21.7239   10.2826   -8.9815 LP  0  0  0  0  0  0  0  0  0  0  0  0  # atno 5373 bound_to 4987
   23.3224   10.4033   -8.6702 LP  0  0  0  0  0  0  0  0  0  0  0  0  # atno 5374 bound_to 4987
   25.1905    5.2531  -12.5854 LP  0  0  0  0  0  0  0  0  0  0  0  0  # atno 5381 bound_to 1843
   26.4787    5.4062  -11.5936 LP  0  0  0  0  0  0  0  0  0  0  0  0  # atno 5382 bound_to 1843
   21.0594   -3.6942   -4.1386 LP  0  0  0  0  0  0  0  0  0  0  0  0  # atno 5411 bound_to 3083
   20.5781   -5.2498   -4.0155 LP  0  0  0  0  0  0  0  0  0  0  0  0  # atno 5412 bound_to 3083
   17.7051   12.1535    3.2767 LP  0  0  0  0  0  0  0  0  0  0  0  0  # atno 5419 bound_to 552 
   18.4340   13.0715    2.1398 LP  0  0  0  0  0  0  0  0  0  0  0  0  # atno 5420 bound_to 552 

> <Gold.Score>
     Fitness  S(hb_ext) S(vdw_ext)  S(hb_int)    S(int)      intcor
     28.59       4.94      18.11       0.00      -1.25      -0.76

> <Gold.Goldscore.Fitness>
28.5924

> <Gold.Goldscore.Internal.Vdw>
-1.5603

> <Gold.Goldscore.Internal.Torsion>
-0.4497

> <Gold.Goldscore.External.Vdw>
18.1088

> <Gold.Goldscore.Internal.HBond>
0.0000

> <Gold.Goldscore.External.HBond>
4.9443

> <Gold.Goldscore.Internal.Correction>
-0.7585

> <Gold.Goldscore.Hbonds>
donor molecule, donor type, donor heavy atom, donor atom, acceptor molecule, acceptor atom, score
      P1  H  2545  2551       L1    17  0.45
      P1  H   547   554       L1    11  0.70
      P1  H   552   557       L1    11  0.43
      L1  H     8    22       P1  2546  0.89

> <Gold.Goldscore.Internal.Vdw.Weighted>
-1.5603

> <Gold.Goldscore.Internal.Torsion.Weighted>
-0.4497

> <Gold.Goldscore.External.Vdw.Weighted>
24.8996

> <Gold.Goldscore.Internal.HBond.Weighted>
0.0000

> <Gold.Goldscore.External.HBond.Weighted>
4.9443

> <Gold.Goldscore.Internal.Correction.Weighted>
-0.7585

> <Gold.Rescore>
     Score     S(PLP)   S(hbond)     S(cho)   S(metal)  DE(clash)   DE(tors)     intcor
     29.25     -24.52       2.12       0.00       0.00       1.03       0.30       ----

> <Gold.PLP.Fitness>
29.2542

> <Gold.PLP.PLP>
-24.5183

> <Gold.PLP.part.hbond>
-3.0000

> <Gold.PLP.part.metal>
0.0000

> <Gold.PLP.part.buried>
-4.3384

> <Gold.PLP.part.nonpolar>
-18.1565

> <Gold.PLP.part.repulsive>
0.4144

> <Gold.PLP.ligand.clash>
1.0280

> <Gold.PLP.ligand.torsion>
0.3046

> <Gold.PLP.Chemscore.Hbond>
2.1244

> <Gold.PLP.Chemscore.CHOScore>
0.0000

> <Gold.PLP.Chemscore.Metal>
0.0000

> <Gold.Chemscore.Hbonds>
donor molecule, donor type, donor heavy atom, donor atom, acceptor molecule, acceptor atom, score
      L1  H     8    22       P1  2546  0.06
      P1  H   552   557       L1    11  0.24

> <Gold.PLP.Chemscore.Internal.Correction>
   9.000000E+99

#       Name:                CT1002167954
#       Creating user name   hitesit
#       Creation time:       Sun Apr 16 22:50:41 2023


#       File generated by GOLD software.
#

@<TRIPOS>MOLECULE
CT1002167954|ligand_prepared|mol2|1|dock7
    29    30     1
SMALL
NO_CHARGES


@<TRIPOS>ATOM
      1 C1          19.3764   9.0443   0.3958 C.3            1 RES1               0.0000
      2 C2          20.1262  10.3433   0.7550 C.ar           1 RES1               0.0000
      3 C3          19.6601   8.7798  -1.0799 C.2            1 RES1               0.0000
      4 C4          19.9120   7.9690   1.3347 C.2            1 RES1               0.0000
      5 C5          17.8451   9.1316   0.5936 C.3            1 RES1               0.0000
      6 C6          19.9092  10.9719   1.9775 C.ar           1 RES1               0.0000
      7 C7          21.0383  10.9226  -0.1232 C.ar           1 RES1               0.0000
      8 N8          20.5242   7.7701  -1.3861 N.am           1 RES1               0.0000
      9 O9          19.1640   9.4722  -1.9601 O.2            1 RES1               0.0000
     10 N10         20.6190   6.9315   0.7858 N.am           1 RES1               0.0000
     11 O11         19.7424   8.0196   2.5467 O.2            1 RES1               0.0000
     12 C12         17.1098   7.8420   0.2644 C.3            1 RES1               0.0000
     13 C13         20.5817  12.1357   2.3113 C.ar           1 RES1               0.0000
     14 C14         21.7096  12.0866   0.2125 C.ar           1 RES1               0.0000
     15 C15         20.9757   6.7994  -0.5285 C.2            1 RES1               0.0000
     16 C16         21.4826  12.6936   1.4294 C.ar           1 RES1               0.0000
     17 O17         21.6597   5.8654  -0.9372 O.2            1 RES1               0.0000
     18 H18         17.6386   9.3994   1.6372 H              1 RES1               0.0000
     19 H19         17.4521   9.9343  -0.0425 H              1 RES1               0.0000
     20 H20         19.2021  10.5489   2.6833 H              1 RES1               0.0000
     21 H21         21.2319  10.4630  -1.0865 H              1 RES1               0.0000
     22 H22         20.8663   7.7334  -2.3411 H              1 RES1               0.0000
     23 H23         20.9060   6.1887   1.4154 H              1 RES1               0.0000
     24 H24         16.0392   7.9579   0.4201 H              1 RES1               0.0000
     25 H25         17.2726   7.5593  -0.7735 H              1 RES1               0.0000
     26 H26         17.4580   7.0275   0.8962 H              1 RES1               0.0000
     27 H27         20.3985  12.6103   3.2697 H              1 RES1               0.0000
     28 H28         22.4173  12.5225  -0.4849 H              1 RES1               0.0000
     29 H29         22.0097  13.6051   1.6913 H              1 RES1               0.0000
@<TRIPOS>BOND
    1    1    2 1     
    2    1    3 1     
    3    1    4 1     
    4    1    5 1     
    5    2    6 ar    
    6    2    7 ar    
    7    3    8 1     
    8    3    9 2     
    9    4   10 1     
   10    4   11 2     
   11    5   12 1     
   12    5   18 1     
   13    5   19 1     
   14    6   13 ar    
   15    6   20 1     
   16    7   14 ar    
   17    7   21 1     
   18    8   15 1     
   19    8   22 1     
   20   10   15 1     
   21   10   23 1     
   22   12   24 1     
   23   12   25 1     
   24   12   26 1     
   25   13   16 ar    
   26   13   27 1     
   27   14   16 ar    
   28   14   28 1     
   29   15   17 2     
   30   16   29 1     
@<TRIPOS>SUBSTRUCTURE
      1 RES1           1
@<TRIPOS>SET
DONOR_HYDROGENS      STATIC     ATOMS    <user>   **** ""
2 22 23
ATOM$RED        STATIC     ATOMS    COLORGROUP SYSTEM
2 22 23
@<TRIPOS>COMMENT
> <Gold.Version>
2022.3.0

> <Gold.Id.Protein>
unknown|3oog_clean|pdb

> <Gold.Protein.RotatedTorsions>
[ 3557 3548 3547 3545 ] final  -34.18 input   60.02 | X-H torsion
[ 3477 3468 3467 3465 ] final   28.68 input   60.01 | X-H torsion
[ 3738 3729 3728 3726 ] final   53.24 input   59.99 | X-H torsion
[ 3042 3035 3033 3030 ] final   27.43 input   59.98 | X-H torsion
[ 4996 4987 4986 4984 ] final  -36.56 input   60.02 | X-H torsion
[ 2507 2496 2495 2494 ] final  -19.22 input   60.00 | X-H torsion
[ 1848 1843 1842 1839 ] final   31.92 input   60.03 | X-H torsion
[ 3090 3083 3082 3080 ] final -123.98 input   60.01 | X-H torsion
[  557  552  551  548 ] final   80.85 input   60.01 | X-H torsion

> <Gold.Protein.ActiveResidues>
 LEU49   GLY50   THR51   GLY52   SER53   PHE54   LEU82   GLN84   HIS87   GLY126 
 GLU127  MET128  PHE129  SER130  HIS131  LEU132  ARG133  ARG134  ILE135  GLY136 
 ARG137  ARG165  ASP166  LEU167  LYS168  PRO169  GLU170  ASN171  LEU173  ASP184 
 GLY186  PHE187  TPO197  LEU198  CYS199  GLY200  THR201  PRO202  GLU203  TYR204 
 LEU205  ILE209  ILE210  VAL226  LEU227  TYR229  GLU230  ALA233  GLY234  TYR235 
 PRO236  PRO237  PHE238  PHE239  ALA240  ASP241  GLN242  PRO243  ILE244  GLN245 
 ILE246  TYR247  ARG256  PHE257  PRO258  SER259  ASN326  PHE327  ASP328  ASP329 
 TYR330 

> <Gold.Protein.RotatedAtoms>
   18.1392   13.0027    2.9567 H   0  0  0  0  0  0  0  0  0  0  0  0  # atno 557  bound_to 552 
   25.2905    4.4020  -11.1811 H   0  0  0  0  0  0  0  0  0  0  0  0  # atno 1848 bound_to 1843
   18.3785    3.4661   -1.0357 H   0  0  0  0  0  0  0  0  0  0  0  0  # atno 2507 bound_to 2496
   19.0771    4.2290    0.2588 H   0  0  0  0  0  0  0  0  0  0  0  0  # atno 2508 bound_to 2496
   19.1116    4.9389   -1.2395 H   0  0  0  0  0  0  0  0  0  0  0  0  # atno 2509 bound_to 2496
   17.4883    2.5196    1.6061 H   0  0  0  0  0  0  0  0  0  0  0  0  # atno 3042 bound_to 3035
   21.0588   -5.4831   -3.6693 H   0  0  0  0  0  0  0  0  0  0  0  0  # atno 3090 bound_to 3083
   16.0260  -13.7364   -8.4111 H   0  0  0  0  0  0  0  0  0  0  0  0  # atno 3477 bound_to 3468
   16.1099  -14.1651  -11.1094 H   0  0  0  0  0  0  0  0  0  0  0  0  # atno 3557 bound_to 3548
    9.5511    0.4327    1.7895 H   0  0  0  0  0  0  0  0  0  0  0  0  # atno 3738 bound_to 3729
   23.1370   10.0604  -10.0342 H   0  0  0  0  0  0  0  0  0  0  0  0  # atno 4996 bound_to 4987
   16.7104  -13.9212  -12.6022 LP  0  0  0  0  0  0  0  0  0  0  0  0  # atno 5299 bound_to 3548
   15.0990  -13.8543  -12.3463 LP  0  0  0  0  0  0  0  0  0  0  0  0  # atno 5300 bound_to 3548
   15.1553  -13.9107   -7.0472 LP  0  0  0  0  0  0  0  0  0  0  0  0  # atno 5307 bound_to 3468
   16.1108  -15.1273   -7.5703 LP  0  0  0  0  0  0  0  0  0  0  0  0  # atno 5308 bound_to 3468
    9.8662    0.4423    3.3856 LP  0  0  0  0  0  0  0  0  0  0  0  0  # atno 5361 bound_to 3729
    8.4384    1.0061    2.8288 LP  0  0  0  0  0  0  0  0  0  0  0  0  # atno 5362 bound_to 3729
   17.1786    2.9426    0.0659 LP  0  0  0  0  0  0  0  0  0  0  0  0  # atno 5363 bound_to 3035
   18.5299    2.1005    0.4286 LP  0  0  0  0  0  0  0  0  0  0  0  0  # atno 5364 bound_to 3035
   21.6781   10.1954   -9.3265 LP  0  0  0  0  0  0  0  0  0  0  0  0  # atno 5373 bound_to 4987
   23.0371   10.4487   -8.4573 LP  0  0  0  0  0  0  0  0  0  0  0  0  # atno 5374 bound_to 4987
   25.1641    5.2308  -12.5762 LP  0  0  0  0  0  0  0  0  0  0  0  0  # atno 5381 bound_to 1843
   26.4766    5.4247  -11.6242 LP  0  0  0  0  0  0  0  0  0  0  0  0  # atno 5382 bound_to 1843
   21.9748   -4.1514   -3.4796 LP  0  0  0  0  0  0  0  0  0  0  0  0  # atno 5411 bound_to 3083
   20.5787   -4.0722   -4.3230 LP  0  0  0  0  0  0  0  0  0  0  0  0  # atno 5412 bound_to 3083
   18.3350   12.2912    1.5064 LP  0  0  0  0  0  0  0  0  0  0  0  0  # atno 5419 bound_to 552 
   17.6194   11.4778    2.7282 LP  0  0  0  0  0  0  0  0  0  0  0  0  # atno 5420 bound_to 552 

> <Gold.Score>
     Fitness  S(hb_ext) S(vdw_ext)  S(hb_int)    S(int)      intcor
     28.55       4.59      18.76       0.00      -1.84      -0.76

> <Gold.Goldscore.Fitness>
28.5502

> <Gold.Goldscore.Internal.Vdw>
-2.2332

> <Gold.Goldscore.Internal.Torsion>
-0.3692

> <Gold.Goldscore.External.Vdw>
18.7647

> <Gold.Goldscore.Internal.HBond>
0.0000

> <Gold.Goldscore.External.HBond>
4.5926

> <Gold.Goldscore.Internal.Correction>
-0.7585

> <Gold.Goldscore.Hbonds>
donor molecule, donor type, donor heavy atom, donor atom, acceptor molecule, acceptor atom, score
      L1  H    10    23       P1  2464  0.77

> <Gold.Goldscore.Internal.Vdw.Weighted>
-2.2332

> <Gold.Goldscore.Internal.Torsion.Weighted>
-0.3692

> <Gold.Goldscore.External.Vdw.Weighted>
25.8014

> <Gold.Goldscore.Internal.HBond.Weighted>
0.0000

> <Gold.Goldscore.External.HBond.Weighted>
4.5926

> <Gold.Goldscore.Internal.Correction.Weighted>
-0.7585

> <Gold.Rescore>
     Score     S(PLP)   S(hbond)     S(cho)   S(metal)  DE(clash)   DE(tors)     intcor
     16.81     -18.10       0.04       0.00       0.00       1.35       0.02       ----

> <Gold.PLP.Fitness>
16.8125

> <Gold.PLP.PLP>
-18.0981

> <Gold.PLP.part.hbond>
-1.7280

> <Gold.PLP.part.metal>
0.0000

> <Gold.PLP.part.buried>
4.3347

> <Gold.PLP.part.nonpolar>
-21.3764

> <Gold.PLP.part.repulsive>
0.5306

> <Gold.PLP.ligand.clash>
1.3468

> <Gold.PLP.ligand.torsion>
0.0224

> <Gold.PLP.Chemscore.Hbond>
0.0354

> <Gold.PLP.Chemscore.CHOScore>
0.0000

> <Gold.PLP.Chemscore.Metal>
0.0000

> <Gold.Chemscore.Hbonds>
donor molecule, donor type, donor heavy atom, donor atom, acceptor molecule, acceptor atom, score
      L1  H    10    23       P1  2464  0.67

> <Gold.PLP.Chemscore.Internal.Correction>
   9.000000E+99

#       Name:                CT1002167954
#       Creating user name   hitesit
#       Creation time:       Sun Apr 16 22:50:42 2023


#       File generated by GOLD software.
#

@<TRIPOS>MOLECULE
CT1002167954|ligand_prepared|mol2|1|dock8
    29    30     1
SMALL
NO_CHARGES


@<TRIPOS>ATOM
      1 C1          20.2838   9.2718  -1.4906 C.3            1 RES1               0.0000
      2 C2          21.1485  10.5436  -1.3738 C.ar           1 RES1               0.0000
      3 C3          21.2537   8.1117  -1.6949 C.2            1 RES1               0.0000
      4 C4          19.4744   9.1864  -0.2013 C.2            1 RES1               0.0000
      5 C5          19.2918   9.2974  -2.6767 C.3            1 RES1               0.0000
      6 C6          21.7608  11.0899  -2.4979 C.ar           1 RES1               0.0000
      7 C7          21.3405  11.1822  -0.1516 C.ar           1 RES1               0.0000
      8 N8          21.4590   7.2672  -0.6439 N.am           1 RES1               0.0000
      9 O9          21.8592   7.9630  -2.7492 O.2            1 RES1               0.0000
     10 N10         19.7259   8.1396   0.6465 N.am           1 RES1               0.0000
     11 O11         18.6328  10.0252   0.0959 O.2            1 RES1               0.0000
     12 C12         18.3160   8.1313  -2.6852 C.3            1 RES1               0.0000
     13 C13         22.5346  12.2347  -2.4040 C.ar           1 RES1               0.0000
     14 C14         22.1149  12.3269  -0.0599 C.ar           1 RES1               0.0000
     15 C15         20.7029   7.1932   0.4983 C.2            1 RES1               0.0000
     16 C16         22.7119  12.8542  -1.1852 C.ar           1 RES1               0.0000
     17 O17         20.9035   6.3142   1.3315 O.2            1 RES1               0.0000
     18 H18         18.7222  10.2342  -2.6404 H              1 RES1               0.0000
     19 H19         19.8618   9.2876  -3.6140 H              1 RES1               0.0000
     20 H20         21.6347  10.6148  -3.4650 H              1 RES1               0.0000
     21 H21         20.8814  10.7846   0.7472 H              1 RES1               0.0000
     22 H22         22.2477   6.6320  -0.7135 H              1 RES1               0.0000
     23 H23         19.1294   8.0584   1.4638 H              1 RES1               0.0000
     24 H24         17.6431   8.1976  -3.5375 H              1 RES1               0.0000
     25 H25         18.8476   7.1839  -2.7461 H              1 RES1               0.0000
     26 H26         17.7148   8.1249  -1.7783 H              1 RES1               0.0000
     27 H27         23.0034  12.6449  -3.2924 H              1 RES1               0.0000
     28 H28         22.2522  12.8108   0.9015 H              1 RES1               0.0000
     29 H29         23.3178  13.7513  -1.1120 H              1 RES1               0.0000
@<TRIPOS>BOND
    1    1    2 1     
    2    1    3 1     
    3    1    4 1     
    4    1    5 1     
    5    2    6 ar    
    6    2    7 ar    
    7    3    8 1     
    8    3    9 2     
    9    4   10 1     
   10    4   11 2     
   11    5   12 1     
   12    5   18 1     
   13    5   19 1     
   14    6   13 ar    
   15    6   20 1     
   16    7   14 ar    
   17    7   21 1     
   18    8   15 1     
   19    8   22 1     
   20   10   15 1     
   21   10   23 1     
   22   12   24 1     
   23   12   25 1     
   24   12   26 1     
   25   13   16 ar    
   26   13   27 1     
   27   14   16 ar    
   28   14   28 1     
   29   15   17 2     
   30   16   29 1     
@<TRIPOS>SUBSTRUCTURE
      1 RES1           1
@<TRIPOS>SET
DONOR_HYDROGENS      STATIC     ATOMS    <user>   **** ""
2 22 23
ATOM$RED        STATIC     ATOMS    COLORGROUP SYSTEM
2 22 23
@<TRIPOS>COMMENT
> <Gold.Version>
2022.3.0

> <Gold.Id.Protein>
unknown|3oog_clean|pdb

> <Gold.Protein.RotatedTorsions>
[ 3557 3548 3547 3545 ] final  104.82 input   60.02 | X-H torsion
[ 3477 3468 3467 3465 ] final  147.88 input   60.01 | X-H torsion
[ 3738 3729 3728 3726 ] final  161.90 input   59.99 | X-H torsion
[ 3042 3035 3033 3030 ] final  116.64 input   59.98 | X-H torsion
[ 4996 4987 4986 4984 ] final   14.55 input   60.02 | X-H torsion
[ 2507 2496 2495 2494 ] final  -58.35 input   60.00 | X-H torsion
[ 1848 1843 1842 1839 ] final -172.67 input   60.03 | X-H torsion
[ 3090 3083 3082 3080 ] final -178.18 input   60.01 | X-H torsion
[  557  552  551  548 ] final  -80.43 input   60.01 | X-H torsion

> <Gold.Protein.ActiveResidues>
 LEU49   GLY50   THR51   GLY52   SER53   PHE54   LEU82   GLN84   HIS87   GLY126 
 GLU127  MET128  PHE129  SER130  HIS131  LEU132  ARG133  ARG134  ILE135  GLY136 
 ARG137  ARG165  ASP166  LEU167  LYS168  PRO169  GLU170  ASN171  LEU173  ASP184 
 GLY186  PHE187  TPO197  LEU198  CYS199  GLY200  THR201  PRO202  GLU203  TYR204 
 LEU205  ILE209  ILE210  VAL226  LEU227  TYR229  GLU230  ALA233  GLY234  TYR235 
 PRO236  PRO237  PHE238  PHE239  ALA240  ASP241  GLN242  PRO243  ILE244  GLN245 
 ILE246  TYR247  ARG256  PHE257  PRO258  SER259  ASN326  PHE327  ASP328  ASP329 
 TYR330 

> <Gold.Protein.RotatedAtoms>
   18.0589   11.7052    1.6443 H   0  0  0  0  0  0  0  0  0  0  0  0  # atno 557  bound_to 552 
   26.2780    5.6219  -12.1228 H   0  0  0  0  0  0  0  0  0  0  0  0  # atno 1848 bound_to 1843
   18.4979    3.8914   -1.4997 H   0  0  0  0  0  0  0  0  0  0  0  0  # atno 2507 bound_to 2496
   18.7602    3.6883    0.1238 H   0  0  0  0  0  0  0  0  0  0  0  0  # atno 2508 bound_to 2496
   19.3089    5.0540   -0.6403 H   0  0  0  0  0  0  0  0  0  0  0  0  # atno 2509 bound_to 2496
   18.5019    2.0371    0.9225 H   0  0  0  0  0  0  0  0  0  0  0  0  # atno 3042 bound_to 3035
   21.7679   -5.1413   -3.3408 H   0  0  0  0  0  0  0  0  0  0  0  0  # atno 3090 bound_to 3083
   16.1173  -15.1190   -7.5807 H   0  0  0  0  0  0  0  0  0  0  0  0  # atno 3477 bound_to 3468
   15.2644  -13.8132  -12.6056 H   0  0  0  0  0  0  0  0  0  0  0  0  # atno 3557 bound_to 3548
    8.4252    0.9932    2.6439 H   0  0  0  0  0  0  0  0  0  0  0  0  # atno 3738 bound_to 3729
   23.5503   10.2386   -9.3639 H   0  0  0  0  0  0  0  0  0  0  0  0  # atno 4996 bound_to 4987
   15.8003  -14.1461  -11.1054 LP  0  0  0  0  0  0  0  0  0  0  0  0  # atno 5299 bound_to 3548
   16.8604  -13.9836  -12.3368 LP  0  0  0  0  0  0  0  0  0  0  0  0  # atno 5300 bound_to 3548
   16.0182  -13.7241   -8.4131 LP  0  0  0  0  0  0  0  0  0  0  0  0  # atno 5307 bound_to 3468
   15.1561  -13.9220   -7.0404 LP  0  0  0  0  0  0  0  0  0  0  0  0  # atno 5308 bound_to 3468
    9.7107    0.3727    1.8632 LP  0  0  0  0  0  0  0  0  0  0  0  0  # atno 5361 bound_to 3729
    9.7284    0.5109    3.4902 LP  0  0  0  0  0  0  0  0  0  0  0  0  # atno 5362 bound_to 3729
   17.1227    2.7704    1.3777 LP  0  0  0  0  0  0  0  0  0  0  0  0  # atno 5363 bound_to 3035
   17.5645    2.7589   -0.1944 LP  0  0  0  0  0  0  0  0  0  0  0  0  # atno 5364 bound_to 3035
   22.0747   10.0337  -10.0180 LP  0  0  0  0  0  0  0  0  0  0  0  0  # atno 5373 bound_to 4987
   22.2241   10.4308   -8.4411 LP  0  0  0  0  0  0  0  0  0  0  0  0  # atno 5374 bound_to 4987
   25.7921    4.5791  -10.9714 LP  0  0  0  0  0  0  0  0  0  0  0  0  # atno 5381 bound_to 1843
   24.8546    4.8485  -12.2810 LP  0  0  0  0  0  0  0  0  0  0  0  0  # atno 5382 bound_to 1843
   21.4302   -3.6619   -3.9285 LP  0  0  0  0  0  0  0  0  0  0  0  0  # atno 5411 bound_to 3083
   20.4092   -4.9060   -4.2050 LP  0  0  0  0  0  0  0  0  0  0  0  0  # atno 5412 bound_to 3083
   17.6483   11.9448    3.2006 LP  0  0  0  0  0  0  0  0  0  0  0  0  # atno 5419 bound_to 552 
   18.3870   13.1313    2.3561 LP  0  0  0  0  0  0  0  0  0  0  0  0  # atno 5420 bound_to 552 

> <Gold.Score>
     Fitness  S(hb_ext) S(vdw_ext)  S(hb_int)    S(int)      intcor
     28.50       5.68      17.59       0.00      -1.36      -0.76

> <Gold.Goldscore.Fitness>
28.5029

> <Gold.Goldscore.Internal.Vdw>
-1.6663

> <Gold.Goldscore.Internal.Torsion>
-0.4560

> <Gold.Goldscore.External.Vdw>
17.5936

> <Gold.Goldscore.Internal.HBond>
0.0000

> <Gold.Goldscore.External.HBond>
5.6754

> <Gold.Goldscore.Internal.Correction>
-0.7585

> <Gold.Goldscore.Hbonds>
donor molecule, donor type, donor heavy atom, donor atom, acceptor molecule, acceptor atom, score
      P1  H  2545  2551       L1    17  0.47
      P1  H   547   554       L1    11  0.66
      P1  H   552   557       L1    11  0.82
      L1  H     8    22       P1  2546  0.89

> <Gold.Goldscore.Internal.Vdw.Weighted>
-1.6663

> <Gold.Goldscore.Internal.Torsion.Weighted>
-0.4560

> <Gold.Goldscore.External.Vdw.Weighted>
24.1913

> <Gold.Goldscore.Internal.HBond.Weighted>
0.0000

> <Gold.Goldscore.External.HBond.Weighted>
5.6754

> <Gold.Goldscore.Internal.Correction.Weighted>
-0.7585

> <Gold.Rescore>
     Score     S(PLP)   S(hbond)     S(cho)   S(metal)  DE(clash)   DE(tors)     intcor
     29.73     -24.83       2.16       0.00       0.00       1.13       0.22       ----

> <Gold.PLP.Fitness>
29.7267

> <Gold.PLP.PLP>
-24.8294

> <Gold.PLP.part.hbond>
-3.0000

> <Gold.PLP.part.metal>
0.0000

> <Gold.PLP.part.buried>
-5.1281

> <Gold.PLP.part.nonpolar>
-17.7161

> <Gold.PLP.part.repulsive>
0.4152

> <Gold.PLP.ligand.clash>
1.1320

> <Gold.PLP.ligand.torsion>
0.2190

> <Gold.PLP.Chemscore.Hbond>
2.1558

> <Gold.PLP.Chemscore.CHOScore>
0.0000

> <Gold.PLP.Chemscore.Metal>
0.0000

> <Gold.Chemscore.Hbonds>
donor molecule, donor type, donor heavy atom, donor atom, acceptor molecule, acceptor atom, score
      L1  H     8    22       P1  2546  0.02
      P1  H   552   557       L1    11  0.36

> <Gold.PLP.Chemscore.Internal.Correction>
   9.000000E+99

#       Name:                CT1002167954
#       Creating user name   hitesit
#       Creation time:       Sun Apr 16 22:50:34 2023


#       File generated by GOLD software.
#

@<TRIPOS>MOLECULE
CT1002167954|ligand_prepared|mol2|1|dock1
    29    30     1
SMALL
NO_CHARGES


@<TRIPOS>ATOM
      1 C1          25.9388   8.7381  -2.8450 C.3            1 RES1               0.0000
      2 C2          27.0323   9.5519  -3.5666 C.ar           1 RES1               0.0000
      3 C3          24.6269   9.4814  -3.0788 C.2            1 RES1               0.0000
      4 C4          25.9780   7.3396  -3.4510 C.2            1 RES1               0.0000
      5 C5          26.1628   8.6047  -1.3207 C.3            1 RES1               0.0000
      6 C6          26.6900  10.5530  -4.4708 C.ar           1 RES1               0.0000
      7 C7          28.3850   9.3154  -3.3369 C.ar           1 RES1               0.0000
      8 N8          23.7413   8.9376  -3.9619 N.am           1 RES1               0.0000
      9 O9          24.3901  10.5489  -2.5268 O.2            1 RES1               0.0000
     10 N10         24.8886   6.9200  -4.1686 N.am           1 RES1               0.0000
     11 O11         26.9492   6.6035  -3.3276 O.2            1 RES1               0.0000
     12 C12         26.6204   9.8920  -0.6532 C.3            1 RES1               0.0000
     13 C13         27.6646  11.2928  -5.1196 C.ar           1 RES1               0.0000
     14 C14         29.3581  10.0563  -3.9870 C.ar           1 RES1               0.0000
     15 C15         23.7847   7.6672  -4.4774 C.2            1 RES1               0.0000
     16 C16         28.9992  11.0454  -4.8779 C.ar           1 RES1               0.0000
     17 O17         22.8697   7.2377  -5.1742 O.2            1 RES1               0.0000
     18 H18         25.2255   8.2784  -0.8533 H              1 RES1               0.0000
     19 H19         26.9154   7.8270  -1.1411 H              1 RES1               0.0000
     20 H20         25.6450  10.7603  -4.6756 H              1 RES1               0.0000
     21 H21         28.6907   8.5416  -2.6410 H              1 RES1               0.0000
     22 H22         22.9760   9.5304  -4.2673 H              1 RES1               0.0000
     23 H23         24.9018   5.9619  -4.5036 H              1 RES1               0.0000
     24 H24         26.7626   9.7431   0.4151 H              1 RES1               0.0000
     25 H25         27.5633  10.2319  -1.0764 H              1 RES1               0.0000
     26 H26         25.8834  10.6806  -0.7903 H              1 RES1               0.0000
     27 H27         27.3770  12.0692  -5.8209 H              1 RES1               0.0000
     28 H28         30.4072   9.8577  -3.7942 H              1 RES1               0.0000
     29 H29         29.7625  11.6254  -5.3860 H              1 RES1               0.0000
@<TRIPOS>BOND
    1    1    2 1     
    2    1    3 1     
    3    1    4 1     
    4    1    5 1     
    5    2    6 ar    
    6    2    7 ar    
    7    3    8 1     
    8    3    9 2     
    9    4   10 1     
   10    4   11 2     
   11    5   12 1     
   12    5   18 1     
   13    5   19 1     
   14    6   13 ar    
   15    6   20 1     
   16    7   14 ar    
   17    7   21 1     
   18    8   15 1     
   19    8   22 1     
   20   10   15 1     
   21   10   23 1     
   22   12   24 1     
   23   12   25 1     
   24   12   26 1     
   25   13   16 ar    
   26   13   27 1     
   27   14   16 ar    
   28   14   28 1     
   29   15   17 2     
   30   16   29 1     
@<TRIPOS>SUBSTRUCTURE
      1 RES1           1
@<TRIPOS>SET
DONOR_HYDROGENS      STATIC     ATOMS    <user>   **** ""
2 22 23
ATOM$RED        STATIC     ATOMS    COLORGROUP SYSTEM
2 22 23
@<TRIPOS>COMMENT
> <Gold.Version>
2022.3.0

> <Gold.Id.Protein>
unknown|3oog_clean|pdb

> <Gold.Protein.RotatedTorsions>
[ 3557 3548 3547 3545 ] final   62.04 input   60.02 | X-H torsion
[ 3477 3468 3467 3465 ] final  -24.17 input   60.01 | X-H torsion
[ 3738 3729 3728 3726 ] final  -83.08 input   59.99 | X-H torsion
[ 3042 3035 3033 3030 ] final   46.91 input   59.98 | X-H torsion
[ 4996 4987 4986 4984 ] final  -52.62 input   60.02 | X-H torsion
[ 2507 2496 2495 2494 ] final   97.08 input   60.00 | X-H torsion
[ 1848 1843 1842 1839 ] final -126.55 input   60.03 | X-H torsion
[ 3090 3083 3082 3080 ] final    1.91 input   60.01 | X-H torsion
[  557  552  551  548 ] final  -27.51 input   60.01 | X-H torsion

> <Gold.Protein.ActiveResidues>
 LEU49   GLY50   THR51   GLY52   SER53   PHE54   LEU82   GLN84   HIS87   GLY126 
 GLU127  MET128  PHE129  SER130  HIS131  LEU132  ARG133  ARG134  ILE135  GLY136 
 ARG137  ARG165  ASP166  LEU167  LYS168  PRO169  GLU170  ASN171  LEU173  ASP184 
 GLY186  PHE187  TPO197  LEU198  CYS199  GLY200  THR201  PRO202  GLU203  TYR204 
 LEU205  ILE209  ILE210  VAL226  LEU227  TYR229  GLU230  ALA233  GLY234  TYR235 
 PRO236  PRO237  PHE238  PHE239  ALA240  ASP241  GLN242  PRO243  ILE244  GLN245 
 ILE246  TYR247  ARG256  PHE257  PRO258  SER259  ASN326  PHE327  ASP328  ASP329 
 TYR330 

> <Gold.Protein.RotatedAtoms>
   18.3854   12.4680    1.5575 H   0  0  0  0  0  0  0  0  0  0  0  0  # atno 557  bound_to 552 
   25.6958    5.5475  -12.5631 H   0  0  0  0  0  0  0  0  0  0  0  0  # atno 1848 bound_to 1843
   19.0493    4.1746    0.2638 H   0  0  0  0  0  0  0  0  0  0  0  0  # atno 2507 bound_to 2496
   19.1372    4.9657   -1.1896 H   0  0  0  0  0  0  0  0  0  0  0  0  # atno 2508 bound_to 2496
   18.3804    3.4934   -1.0914 H   0  0  0  0  0  0  0  0  0  0  0  0  # atno 2509 bound_to 2496
   17.7604    2.3587    1.6237 H   0  0  0  0  0  0  0  0  0  0  0  0  # atno 3042 bound_to 3035
   20.6395   -3.9992   -4.3043 H   0  0  0  0  0  0  0  0  0  0  0  0  # atno 3090 bound_to 3083
   15.4863  -13.3863   -7.8812 H   0  0  0  0  0  0  0  0  0  0  0  0  # atno 3477 bound_to 3468
   15.0402  -13.9206  -11.9693 H   0  0  0  0  0  0  0  0  0  0  0  0  # atno 3557 bound_to 3548
    9.6584    0.5416    3.5200 H   0  0  0  0  0  0  0  0  0  0  0  0  # atno 3738 bound_to 3729
   22.9013   10.0271  -10.1424 H   0  0  0  0  0  0  0  0  0  0  0  0  # atno 4996 bound_to 4987
   16.4742  -14.1685  -11.2409 LP  0  0  0  0  0  0  0  0  0  0  0  0  # atno 5299 bound_to 3548
   16.4123  -13.8531  -12.8419 LP  0  0  0  0  0  0  0  0  0  0  0  0  # atno 5300 bound_to 3548
   15.4355  -14.6892   -6.9073 LP  0  0  0  0  0  0  0  0  0  0  0  0  # atno 5307 bound_to 3468
   16.3740  -14.7013   -8.2436 LP  0  0  0  0  0  0  0  0  0  0  0  0  # atno 5308 bound_to 3468
    8.4218    0.9893    2.5620 LP  0  0  0  0  0  0  0  0  0  0  0  0  # atno 5361 bound_to 3729
    9.7746    0.3493    1.9086 LP  0  0  0  0  0  0  0  0  0  0  0  0  # atno 5362 bound_to 3729
   17.0096    2.9996    0.3304 LP  0  0  0  0  0  0  0  0  0  0  0  0  # atno 5363 bound_to 3035
   18.4247    2.2057    0.1464 LP  0  0  0  0  0  0  0  0  0  0  0  0  # atno 5364 bound_to 3035
   21.6983   10.2594   -9.0718 LP  0  0  0  0  0  0  0  0  0  0  0  0  # atno 5373 bound_to 4987
   23.2544   10.4182   -8.6030 LP  0  0  0  0  0  0  0  0  0  0  0  0  # atno 5374 bound_to 4987
   26.3398    5.0381  -11.1578 LP  0  0  0  0  0  0  0  0  0  0  0  0  # atno 5381 bound_to 1843
   24.8929    4.4643  -11.6514 LP  0  0  0  0  0  0  0  0  0  0  0  0  # atno 5382 bound_to 1843
   20.9766   -5.4803   -3.7204 LP  0  0  0  0  0  0  0  0  0  0  0  0  # atno 5411 bound_to 3083
   21.9992   -4.2379   -3.4426 LP  0  0  0  0  0  0  0  0  0  0  0  0  # atno 5412 bound_to 3083
   17.6504   11.4105    2.5521 LP  0  0  0  0  0  0  0  0  0  0  0  0  # atno 5419 bound_to 552 
   18.0560   12.8973    3.0921 LP  0  0  0  0  0  0  0  0  0  0  0  0  # atno 5420 bound_to 552 

> <Gold.Score>
     Fitness  S(hb_ext) S(vdw_ext)  S(hb_int)    S(int)      intcor
     28.02       0.46      22.61       0.00      -3.52      -0.79

> <Gold.Goldscore.Fitness>
28.0217

> <Gold.Goldscore.Internal.Vdw>
-3.4700

> <Gold.Goldscore.Internal.Torsion>
-0.8365

> <Gold.Goldscore.External.Vdw>
22.6062

> <Gold.Goldscore.Internal.HBond>
0.0000

> <Gold.Goldscore.External.HBond>
0.4597

> <Gold.Goldscore.Internal.Correction>
-0.7850

> <Gold.Goldscore.Hbonds>
donor molecule, donor type, donor heavy atom, donor atom, acceptor molecule, acceptor atom, score
      L1  H    10    23       P1  2527  0.23

> <Gold.Goldscore.Internal.Vdw.Weighted>
-3.4700

> <Gold.Goldscore.Internal.Torsion.Weighted>
-0.8365

> <Gold.Goldscore.External.Vdw.Weighted>
31.0836

> <Gold.Goldscore.Internal.HBond.Weighted>
0.0000

> <Gold.Goldscore.External.HBond.Weighted>
0.4597

> <Gold.Goldscore.Internal.Correction.Weighted>
-0.7850

> <Gold.Rescore>
     Score     S(PLP)   S(hbond)     S(cho)   S(metal)  DE(clash)   DE(tors)     intcor
     36.72     -36.37       0.98       0.00       0.00       0.75       0.91       ----

> <Gold.PLP.Fitness>
36.7174

> <Gold.PLP.PLP>
-36.3672

> <Gold.PLP.part.hbond>
-1.9152

> <Gold.PLP.part.metal>
0.0000

> <Gold.PLP.part.buried>
-5.6585

> <Gold.PLP.part.nonpolar>
-30.8542

> <Gold.PLP.part.repulsive>
0.5252

> <Gold.PLP.ligand.clash>
0.7503

> <Gold.PLP.ligand.torsion>
0.9137

> <Gold.PLP.Chemscore.Hbond>
0.9760

> <Gold.PLP.Chemscore.CHOScore>
0.0000

> <Gold.PLP.Chemscore.Metal>
0.0000

> <Gold.Chemscore.Hbonds>
donor molecule, donor type, donor heavy atom, donor atom, acceptor molecule, acceptor atom, score
      L1  H    10    23       P1  2527  0.41

> <Gold.PLP.Chemscore.Internal.Correction>
   9.000000E+99

#       Name:                CT1002167954
#       Creating user name   hitesit
#       Creation time:       Sun Apr 16 22:50:40 2023


#       File generated by GOLD software.
#

@<TRIPOS>MOLECULE
CT1002167954|ligand_prepared|mol2|1|dock6
    29    30     1
SMALL
NO_CHARGES


@<TRIPOS>ATOM
      1 C1          19.4820   9.1810   0.5499 C.3            1 RES1               0.0000
      2 C2          19.9585   9.4988   1.9819 C.ar           1 RES1               0.0000
      3 C3          19.1622   7.6892   0.5260 C.2            1 RES1               0.0000
      4 C4          18.2776  10.0796   0.2918 C.2            1 RES1               0.0000
      5 C5          20.5392   9.4742  -0.5400 C.3            1 RES1               0.0000
      6 C6          19.7680   8.5825   3.0119 C.ar           1 RES1               0.0000
      7 C7          20.5914  10.7008   2.2873 C.ar           1 RES1               0.0000
      8 N8          17.8481   7.3249   0.5038 N.am           1 RES1               0.0000
      9 O9          20.0487   6.8449   0.5660 O.2            1 RES1               0.0000
     10 N10         17.0558   9.4828   0.1222 N.am           1 RES1               0.0000
     11 O11         18.3728  11.3000   0.2503 O.2            1 RES1               0.0000
     12 C12         20.0792   9.1319  -1.9483 C.3            1 RES1               0.0000
     13 C13         20.1974   8.8565   4.2999 C.ar           1 RES1               0.0000
     14 C14         21.0198  10.9729   3.5761 C.ar           1 RES1               0.0000
     15 C15         16.7813   8.1481   0.2471 C.2            1 RES1               0.0000
     16 C16         20.8238  10.0516   4.5828 C.ar           1 RES1               0.0000
     17 O17         15.6467   7.6933   0.1340 O.2            1 RES1               0.0000
     18 H18         20.7989  10.5394  -0.5024 H              1 RES1               0.0000
     19 H19         21.4464   8.8998  -0.3155 H              1 RES1               0.0000
     20 H20         19.2748   7.6378   2.8088 H              1 RES1               0.0000
     21 H21         20.7553  11.4409   1.5115 H              1 RES1               0.0000
     22 H22         17.6394   6.3504   0.6960 H              1 RES1               0.0000
     23 H23         16.2789  10.0897  -0.1196 H              1 RES1               0.0000
     24 H24         20.8581   9.3568  -2.6738 H              1 RES1               0.0000
     25 H25         19.8365   8.0743  -2.0285 H              1 RES1               0.0000
     26 H26         19.1928   9.7042  -2.2143 H              1 RES1               0.0000
     27 H27         20.0395   8.1286   5.0889 H              1 RES1               0.0000
     28 H28         21.5118  11.9150   3.7943 H              1 RES1               0.0000
     29 H29         21.1604  10.2658   5.5917 H              1 RES1               0.0000
@<TRIPOS>BOND
    1    1    2 1     
    2    1    3 1     
    3    1    4 1     
    4    1    5 1     
    5    2    6 ar    
    6    2    7 ar    
    7    3    8 1     
    8    3    9 2     
    9    4   10 1     
   10    4   11 2     
   11    5   12 1     
   12    5   18 1     
   13    5   19 1     
   14    6   13 ar    
   15    6   20 1     
   16    7   14 ar    
   17    7   21 1     
   18    8   15 1     
   19    8   22 1     
   20   10   15 1     
   21   10   23 1     
   22   12   24 1     
   23   12   25 1     
   24   12   26 1     
   25   13   16 ar    
   26   13   27 1     
   27   14   16 ar    
   28   14   28 1     
   29   15   17 2     
   30   16   29 1     
@<TRIPOS>SUBSTRUCTURE
      1 RES1           1
@<TRIPOS>SET
DONOR_HYDROGENS      STATIC     ATOMS    <user>   **** ""
2 22 23
ATOM$RED        STATIC     ATOMS    COLORGROUP SYSTEM
2 22 23
@<TRIPOS>COMMENT
> <Gold.Version>
2022.3.0

> <Gold.Id.Protein>
unknown|3oog_clean|pdb

> <Gold.Protein.RotatedTorsions>
[ 3557 3548 3547 3545 ] final   17.50 input   60.02 | X-H torsion
[ 3477 3468 3467 3465 ] final  174.86 input   60.01 | X-H torsion
[ 3738 3729 3728 3726 ] final   65.01 input   59.99 | X-H torsion
[ 3042 3035 3033 3030 ] final    8.57 input   59.98 | X-H torsion
[ 4996 4987 4986 4984 ] final  -62.52 input   60.02 | X-H torsion
[ 2507 2496 2495 2494 ] final   45.26 input   60.00 | X-H torsion
[ 1848 1843 1842 1839 ] final  105.61 input   60.03 | X-H torsion
[ 3090 3083 3082 3080 ] final    4.45 input   60.01 | X-H torsion
[  557  552  551  548 ] final   31.00 input   60.01 | X-H torsion

> <Gold.Protein.ActiveResidues>
 LEU49   GLY50   THR51   GLY52   SER53   PHE54   LEU82   GLN84   HIS87   GLY126 
 GLU127  MET128  PHE129  SER130  HIS131  LEU132  ARG133  ARG134  ILE135  GLY136 
 ARG137  ARG165  ASP166  LEU167  LYS168  PRO169  GLU170  ASN171  LEU173  ASP184 
 GLY186  PHE187  TPO197  LEU198  CYS199  GLY200  THR201  PRO202  GLU203  TYR204 
 LEU205  ILE209  ILE210  VAL226  LEU227  TYR229  GLU230  ALA233  GLY234  TYR235 
 PRO236  PRO237  PHE238  PHE239  ALA240  ASP241  GLN242  PRO243  ILE244  GLN245 
 ILE246  TYR247  ARG256  PHE257  PRO258  SER259  ASN326  PHE327  ASP328  ASP329 
 TYR330 

> <Gold.Protein.RotatedAtoms>
   18.4141   13.0952    2.2230 H   0  0  0  0  0  0  0  0  0  0  0  0  # atno 557  bound_to 552 
   26.2671    4.9509  -11.0973 H   0  0  0  0  0  0  0  0  0  0  0  0  # atno 1848 bound_to 1843
   18.6323    3.5210   -0.0487 H   0  0  0  0  0  0  0  0  0  0  0  0  # atno 2507 bound_to 2496
   19.3331    4.9864   -0.3767 H   0  0  0  0  0  0  0  0  0  0  0  0  # atno 2508 bound_to 2496
   18.6016    4.1266   -1.5915 H   0  0  0  0  0  0  0  0  0  0  0  0  # atno 2509 bound_to 2496
   17.2510    2.6756    1.4904 H   0  0  0  0  0  0  0  0  0  0  0  0  # atno 3042 bound_to 3035
   20.6660   -3.9683   -4.2968 H   0  0  0  0  0  0  0  0  0  0  0  0  # atno 3090 bound_to 3083
   15.8548  -15.0766   -7.2340 H   0  0  0  0  0  0  0  0  0  0  0  0  # atno 3477 bound_to 3468
   15.3331  -14.0642  -11.3391 H   0  0  0  0  0  0  0  0  0  0  0  0  # atno 3557 bound_to 3548
    9.3786    0.5026    1.7428 H   0  0  0  0  0  0  0  0  0  0  0  0  # atno 3738 bound_to 3729
   22.7438   10.0146  -10.1757 H   0  0  0  0  0  0  0  0  0  0  0  0  # atno 4996 bound_to 4987
   16.8886  -14.0866  -11.8171 LP  0  0  0  0  0  0  0  0  0  0  0  0  # atno 5299 bound_to 3548
   15.7029  -13.7904  -12.9001 LP  0  0  0  0  0  0  0  0  0  0  0  0  # atno 5300 bound_to 3548
   16.2424  -14.0974   -8.4748 LP  0  0  0  0  0  0  0  0  0  0  0  0  # atno 5307 bound_to 3468
   15.1961  -13.5914   -7.3277 LP  0  0  0  0  0  0  0  0  0  0  0  0  # atno 5308 bound_to 3468
    9.9854    0.3787    3.2473 LP  0  0  0  0  0  0  0  0  0  0  0  0  # atno 5361 bound_to 3729
    8.4930    0.9992    3.0141 LP  0  0  0  0  0  0  0  0  0  0  0  0  # atno 5362 bound_to 3729
   17.4028    2.8415   -0.1210 LP  0  0  0  0  0  0  0  0  0  0  0  0  # atno 5363 bound_to 3035
   18.5447    2.0445    0.7320 LP  0  0  0  0  0  0  0  0  0  0  0  0  # atno 5364 bound_to 3035
   21.7468   10.2982   -8.9215 LP  0  0  0  0  0  0  0  0  0  0  0  0  # atno 5373 bound_to 4987
   23.3646   10.3921   -8.7199 LP  0  0  0  0  0  0  0  0  0  0  0  0  # atno 5374 bound_to 4987
   24.8491    4.5100  -11.7638 LP  0  0  0  0  0  0  0  0  0  0  0  0  # atno 5381 bound_to 1843
   25.8086    5.5930  -12.5209 LP  0  0  0  0  0  0  0  0  0  0  0  0  # atno 5382 bound_to 1843
   20.9421   -5.4733   -3.7426 LP  0  0  0  0  0  0  0  0  0  0  0  0  # atno 5411 bound_to 3083
   22.0071   -4.2761   -3.4280 LP  0  0  0  0  0  0  0  0  0  0  0  0  # atno 5412 bound_to 3083
   17.9969   11.6047    1.7206 LP  0  0  0  0  0  0  0  0  0  0  0  0  # atno 5419 bound_to 552 
   17.6806   12.0712    3.2532 LP  0  0  0  0  0  0  0  0  0  0  0  0  # atno 5420 bound_to 552 

> <Gold.Score>
     Fitness  S(hb_ext) S(vdw_ext)  S(hb_int)    S(int)      intcor
     27.85       7.85      15.93       0.00      -1.91      -0.76

> <Gold.Goldscore.Fitness>
27.8487

> <Gold.Goldscore.Internal.Vdw>
-2.2950

> <Gold.Goldscore.Internal.Torsion>
-0.3696

> <Gold.Goldscore.External.Vdw>
15.9286

> <Gold.Goldscore.Internal.HBond>
0.0000

> <Gold.Goldscore.External.HBond>
7.8529

> <Gold.Goldscore.Internal.Correction>
-0.7585

> <Gold.Goldscore.Hbonds>
donor molecule, donor type, donor heavy atom, donor atom, acceptor molecule, acceptor atom, score
      P1  H  2496  2508       L1     9  1.00
      P1  H   547   554       L1    11  0.93

> <Gold.Goldscore.Internal.Vdw.Weighted>
-2.2950

> <Gold.Goldscore.Internal.Torsion.Weighted>
-0.3696

> <Gold.Goldscore.External.Vdw.Weighted>
21.9018

> <Gold.Goldscore.Internal.HBond.Weighted>
0.0000

> <Gold.Goldscore.External.HBond.Weighted>
7.8529

> <Gold.Goldscore.Internal.Correction.Weighted>
-0.7585

> <Gold.Rescore>
     Score     S(PLP)   S(hbond)     S(cho)   S(metal)  DE(clash)   DE(tors)     intcor
     29.45     -25.55       1.99       0.00       0.00       2.05       0.01       ----

> <Gold.PLP.Fitness>
29.4514

> <Gold.PLP.PLP>
-25.5515

> <Gold.PLP.part.hbond>
-3.0000

> <Gold.PLP.part.metal>
0.0000

> <Gold.PLP.part.buried>
-4.7733

> <Gold.PLP.part.nonpolar>
-19.4073

> <Gold.PLP.part.repulsive>
0.2965

> <Gold.PLP.ligand.clash>
2.0542

> <Gold.PLP.ligand.torsion>
0.0110

> <Gold.PLP.Chemscore.Hbond>
1.9920

> <Gold.PLP.Chemscore.CHOScore>
0.0000

> <Gold.PLP.Chemscore.Metal>
0.0000

> <Gold.Chemscore.Hbonds>
donor molecule, donor type, donor heavy atom, donor atom, acceptor molecule, acceptor atom, score
      P1  H  2496  2508       L1     9  0.75
      P1  H   547   554       L1    11  0.44

> <Gold.PLP.Chemscore.Internal.Correction>
   9.000000E+99

