#       Name:                CT1002167954
#       Creating user name   hitesit
#       Creation time:       Sun Apr 16 22:50:41 2023


#       File generated by GOLD software.
#

@<TRIPOS>MOLECULE
CT1002167954|ligand_prepared|mol2|1|dock7
    29    30     1
SMALL
NO_CHARGES


@<TRIPOS>ATOM
      1 C1          19.3764   9.0443   0.3958 C.3            1 RES1               0.0000
      2 C2          20.1262  10.3433   0.7550 C.ar           1 RES1               0.0000
      3 C3          19.6601   8.7798  -1.0799 C.2            1 RES1               0.0000
      4 C4          19.9120   7.9690   1.3347 C.2            1 RES1               0.0000
      5 C5          17.8451   9.1316   0.5936 C.3            1 RES1               0.0000
      6 C6          19.9092  10.9719   1.9775 C.ar           1 RES1               0.0000
      7 C7          21.0383  10.9226  -0.1232 C.ar           1 RES1               0.0000
      8 N8          20.5242   7.7701  -1.3861 N.am           1 RES1               0.0000
      9 O9          19.1640   9.4722  -1.9601 O.2            1 RES1               0.0000
     10 N10         20.6190   6.9315   0.7858 N.am           1 RES1               0.0000
     11 O11         19.7424   8.0196   2.5467 O.2            1 RES1               0.0000
     12 C12         17.1098   7.8420   0.2644 C.3            1 RES1               0.0000
     13 C13         20.5817  12.1357   2.3113 C.ar           1 RES1               0.0000
     14 C14         21.7096  12.0866   0.2125 C.ar           1 RES1               0.0000
     15 C15         20.9757   6.7994  -0.5285 C.2            1 RES1               0.0000
     16 C16         21.4826  12.6936   1.4294 C.ar           1 RES1               0.0000
     17 O17         21.6597   5.8654  -0.9372 O.2            1 RES1               0.0000
     18 H18         17.6386   9.3994   1.6372 H              1 RES1               0.0000
     19 H19         17.4521   9.9343  -0.0425 H              1 RES1               0.0000
     20 H20         19.2021  10.5489   2.6833 H              1 RES1               0.0000
     21 H21         21.2319  10.4630  -1.0865 H              1 RES1               0.0000
     22 H22         20.8663   7.7334  -2.3411 H              1 RES1               0.0000
     23 H23         20.9060   6.1887   1.4154 H              1 RES1               0.0000
     24 H24         16.0392   7.9579   0.4201 H              1 RES1               0.0000
     25 H25         17.2726   7.5593  -0.7735 H              1 RES1               0.0000
     26 H26         17.4580   7.0275   0.8962 H              1 RES1               0.0000
     27 H27         20.3985  12.6103   3.2697 H              1 RES1               0.0000
     28 H28         22.4173  12.5225  -0.4849 H              1 RES1               0.0000
     29 H29         22.0097  13.6051   1.6913 H              1 RES1               0.0000
@<TRIPOS>BOND
    1    1    2 1     
    2    1    3 1     
    3    1    4 1     
    4    1    5 1     
    5    2    6 ar    
    6    2    7 ar    
    7    3    8 1     
    8    3    9 2     
    9    4   10 1     
   10    4   11 2     
   11    5   12 1     
   12    5   18 1     
   13    5   19 1     
   14    6   13 ar    
   15    6   20 1     
   16    7   14 ar    
   17    7   21 1     
   18    8   15 1     
   19    8   22 1     
   20   10   15 1     
   21   10   23 1     
   22   12   24 1     
   23   12   25 1     
   24   12   26 1     
   25   13   16 ar    
   26   13   27 1     
   27   14   16 ar    
   28   14   28 1     
   29   15   17 2     
   30   16   29 1     
@<TRIPOS>SUBSTRUCTURE
      1 RES1           1
@<TRIPOS>SET
DONOR_HYDROGENS      STATIC     ATOMS    <user>   **** ""
2 22 23
ATOM$RED        STATIC     ATOMS    COLORGROUP SYSTEM
2 22 23
@<TRIPOS>COMMENT
> <Gold.Version>
2022.3.0

> <Gold.Id.Protein>
unknown|3oog_clean|pdb

> <Gold.Protein.RotatedTorsions>
[ 3557 3548 3547 3545 ] final  -34.18 input   60.02 | X-H torsion
[ 3477 3468 3467 3465 ] final   28.68 input   60.01 | X-H torsion
[ 3738 3729 3728 3726 ] final   53.24 input   59.99 | X-H torsion
[ 3042 3035 3033 3030 ] final   27.43 input   59.98 | X-H torsion
[ 4996 4987 4986 4984 ] final  -36.56 input   60.02 | X-H torsion
[ 2507 2496 2495 2494 ] final  -19.22 input   60.00 | X-H torsion
[ 1848 1843 1842 1839 ] final   31.92 input   60.03 | X-H torsion
[ 3090 3083 3082 3080 ] final -123.98 input   60.01 | X-H torsion
[  557  552  551  548 ] final   80.85 input   60.01 | X-H torsion

> <Gold.Protein.ActiveResidues>
 LEU49   GLY50   THR51   GLY52   SER53   PHE54   LEU82   GLN84   HIS87   GLY126 
 GLU127  MET128  PHE129  SER130  HIS131  LEU132  ARG133  ARG134  ILE135  GLY136 
 ARG137  ARG165  ASP166  LEU167  LYS168  PRO169  GLU170  ASN171  LEU173  ASP184 
 GLY186  PHE187  TPO197  LEU198  CYS199  GLY200  THR201  PRO202  GLU203  TYR204 
 LEU205  ILE209  ILE210  VAL226  LEU227  TYR229  GLU230  ALA233  GLY234  TYR235 
 PRO236  PRO237  PHE238  PHE239  ALA240  ASP241  GLN242  PRO243  ILE244  GLN245 
 ILE246  TYR247  ARG256  PHE257  PRO258  SER259  ASN326  PHE327  ASP328  ASP329 
 TYR330 

> <Gold.Protein.RotatedAtoms>
   18.1392   13.0027    2.9567 H   0  0  0  0  0  0  0  0  0  0  0  0  # atno 557  bound_to 552 
   25.2905    4.4020  -11.1811 H   0  0  0  0  0  0  0  0  0  0  0  0  # atno 1848 bound_to 1843
   18.3785    3.4661   -1.0357 H   0  0  0  0  0  0  0  0  0  0  0  0  # atno 2507 bound_to 2496
   19.0771    4.2290    0.2588 H   0  0  0  0  0  0  0  0  0  0  0  0  # atno 2508 bound_to 2496
   19.1116    4.9389   -1.2395 H   0  0  0  0  0  0  0  0  0  0  0  0  # atno 2509 bound_to 2496
   17.4883    2.5196    1.6061 H   0  0  0  0  0  0  0  0  0  0  0  0  # atno 3042 bound_to 3035
   21.0588   -5.4831   -3.6693 H   0  0  0  0  0  0  0  0  0  0  0  0  # atno 3090 bound_to 3083
   16.0260  -13.7364   -8.4111 H   0  0  0  0  0  0  0  0  0  0  0  0  # atno 3477 bound_to 3468
   16.1099  -14.1651  -11.1094 H   0  0  0  0  0  0  0  0  0  0  0  0  # atno 3557 bound_to 3548
    9.5511    0.4327    1.7895 H   0  0  0  0  0  0  0  0  0  0  0  0  # atno 3738 bound_to 3729
   23.1370   10.0604  -10.0342 H   0  0  0  0  0  0  0  0  0  0  0  0  # atno 4996 bound_to 4987
   16.7104  -13.9212  -12.6022 LP  0  0  0  0  0  0  0  0  0  0  0  0  # atno 5299 bound_to 3548
   15.0990  -13.8543  -12.3463 LP  0  0  0  0  0  0  0  0  0  0  0  0  # atno 5300 bound_to 3548
   15.1553  -13.9107   -7.0472 LP  0  0  0  0  0  0  0  0  0  0  0  0  # atno 5307 bound_to 3468
   16.1108  -15.1273   -7.5703 LP  0  0  0  0  0  0  0  0  0  0  0  0  # atno 5308 bound_to 3468
    9.8662    0.4423    3.3856 LP  0  0  0  0  0  0  0  0  0  0  0  0  # atno 5361 bound_to 3729
    8.4384    1.0061    2.8288 LP  0  0  0  0  0  0  0  0  0  0  0  0  # atno 5362 bound_to 3729
   17.1786    2.9426    0.0659 LP  0  0  0  0  0  0  0  0  0  0  0  0  # atno 5363 bound_to 3035
   18.5299    2.1005    0.4286 LP  0  0  0  0  0  0  0  0  0  0  0  0  # atno 5364 bound_to 3035
   21.6781   10.1954   -9.3265 LP  0  0  0  0  0  0  0  0  0  0  0  0  # atno 5373 bound_to 4987
   23.0371   10.4487   -8.4573 LP  0  0  0  0  0  0  0  0  0  0  0  0  # atno 5374 bound_to 4987
   25.1641    5.2308  -12.5762 LP  0  0  0  0  0  0  0  0  0  0  0  0  # atno 5381 bound_to 1843
   26.4766    5.4247  -11.6242 LP  0  0  0  0  0  0  0  0  0  0  0  0  # atno 5382 bound_to 1843
   21.9748   -4.1514   -3.4796 LP  0  0  0  0  0  0  0  0  0  0  0  0  # atno 5411 bound_to 3083
   20.5787   -4.0722   -4.3230 LP  0  0  0  0  0  0  0  0  0  0  0  0  # atno 5412 bound_to 3083
   18.3350   12.2912    1.5064 LP  0  0  0  0  0  0  0  0  0  0  0  0  # atno 5419 bound_to 552 
   17.6194   11.4778    2.7282 LP  0  0  0  0  0  0  0  0  0  0  0  0  # atno 5420 bound_to 552 

> <Gold.Score>
     Fitness  S(hb_ext) S(vdw_ext)  S(hb_int)    S(int)      intcor
     28.55       4.59      18.76       0.00      -1.84      -0.76

> <Gold.Goldscore.Fitness>
28.5502

> <Gold.Goldscore.Internal.Vdw>
-2.2332

> <Gold.Goldscore.Internal.Torsion>
-0.3692

> <Gold.Goldscore.External.Vdw>
18.7647

> <Gold.Goldscore.Internal.HBond>
0.0000

> <Gold.Goldscore.External.HBond>
4.5926

> <Gold.Goldscore.Internal.Correction>
-0.7585

> <Gold.Goldscore.Hbonds>
donor molecule, donor type, donor heavy atom, donor atom, acceptor molecule, acceptor atom, score
      L1  H    10    23       P1  2464  0.77

> <Gold.Goldscore.Internal.Vdw.Weighted>
-2.2332

> <Gold.Goldscore.Internal.Torsion.Weighted>
-0.3692

> <Gold.Goldscore.External.Vdw.Weighted>
25.8014

> <Gold.Goldscore.Internal.HBond.Weighted>
0.0000

> <Gold.Goldscore.External.HBond.Weighted>
4.5926

> <Gold.Goldscore.Internal.Correction.Weighted>
-0.7585

> <Gold.Rescore>
     Score     S(PLP)   S(hbond)     S(cho)   S(metal)  DE(clash)   DE(tors)     intcor
     16.81     -18.10       0.04       0.00       0.00       1.35       0.02       ----

> <Gold.PLP.Fitness>
16.8125

> <Gold.PLP.PLP>
-18.0981

> <Gold.PLP.part.hbond>
-1.7280

> <Gold.PLP.part.metal>
0.0000

> <Gold.PLP.part.buried>
4.3347

> <Gold.PLP.part.nonpolar>
-21.3764

> <Gold.PLP.part.repulsive>
0.5306

> <Gold.PLP.ligand.clash>
1.3468

> <Gold.PLP.ligand.torsion>
0.0224

> <Gold.PLP.Chemscore.Hbond>
0.0354

> <Gold.PLP.Chemscore.CHOScore>
0.0000

> <Gold.PLP.Chemscore.Metal>
0.0000

> <Gold.Chemscore.Hbonds>
donor molecule, donor type, donor heavy atom, donor atom, acceptor molecule, acceptor atom, score
      L1  H    10    23       P1  2464  0.67

> <Gold.PLP.Chemscore.Internal.Correction>
   9.000000E+99

