#       Name:                CT1002167954
#       Creating user name   hitesit
#       Creation time:       Sun Apr 16 22:50:40 2023


#       File generated by GOLD software.
#

@<TRIPOS>MOLECULE
CT1002167954|ligand_prepared|mol2|1|dock6
    29    30     1
SMALL
NO_CHARGES


@<TRIPOS>ATOM
      1 C1          19.4820   9.1810   0.5499 C.3            1 RES1               0.0000
      2 C2          19.9585   9.4988   1.9819 C.ar           1 RES1               0.0000
      3 C3          19.1622   7.6892   0.5260 C.2            1 RES1               0.0000
      4 C4          18.2776  10.0796   0.2918 C.2            1 RES1               0.0000
      5 C5          20.5392   9.4742  -0.5400 C.3            1 RES1               0.0000
      6 C6          19.7680   8.5825   3.0119 C.ar           1 RES1               0.0000
      7 C7          20.5914  10.7008   2.2873 C.ar           1 RES1               0.0000
      8 N8          17.8481   7.3249   0.5038 N.am           1 RES1               0.0000
      9 O9          20.0487   6.8449   0.5660 O.2            1 RES1               0.0000
     10 N10         17.0558   9.4828   0.1222 N.am           1 RES1               0.0000
     11 O11         18.3728  11.3000   0.2503 O.2            1 RES1               0.0000
     12 C12         20.0792   9.1319  -1.9483 C.3            1 RES1               0.0000
     13 C13         20.1974   8.8565   4.2999 C.ar           1 RES1               0.0000
     14 C14         21.0198  10.9729   3.5761 C.ar           1 RES1               0.0000
     15 C15         16.7813   8.1481   0.2471 C.2            1 RES1               0.0000
     16 C16         20.8238  10.0516   4.5828 C.ar           1 RES1               0.0000
     17 O17         15.6467   7.6933   0.1340 O.2            1 RES1               0.0000
     18 H18         20.7989  10.5394  -0.5024 H              1 RES1               0.0000
     19 H19         21.4464   8.8998  -0.3155 H              1 RES1               0.0000
     20 H20         19.2748   7.6378   2.8088 H              1 RES1               0.0000
     21 H21         20.7553  11.4409   1.5115 H              1 RES1               0.0000
     22 H22         17.6394   6.3504   0.6960 H              1 RES1               0.0000
     23 H23         16.2789  10.0897  -0.1196 H              1 RES1               0.0000
     24 H24         20.8581   9.3568  -2.6738 H              1 RES1               0.0000
     25 H25         19.8365   8.0743  -2.0285 H              1 RES1               0.0000
     26 H26         19.1928   9.7042  -2.2143 H              1 RES1               0.0000
     27 H27         20.0395   8.1286   5.0889 H              1 RES1               0.0000
     28 H28         21.5118  11.9150   3.7943 H              1 RES1               0.0000
     29 H29         21.1604  10.2658   5.5917 H              1 RES1               0.0000
@<TRIPOS>BOND
    1    1    2 1     
    2    1    3 1     
    3    1    4 1     
    4    1    5 1     
    5    2    6 ar    
    6    2    7 ar    
    7    3    8 1     
    8    3    9 2     
    9    4   10 1     
   10    4   11 2     
   11    5   12 1     
   12    5   18 1     
   13    5   19 1     
   14    6   13 ar    
   15    6   20 1     
   16    7   14 ar    
   17    7   21 1     
   18    8   15 1     
   19    8   22 1     
   20   10   15 1     
   21   10   23 1     
   22   12   24 1     
   23   12   25 1     
   24   12   26 1     
   25   13   16 ar    
   26   13   27 1     
   27   14   16 ar    
   28   14   28 1     
   29   15   17 2     
   30   16   29 1     
@<TRIPOS>SUBSTRUCTURE
      1 RES1           1
@<TRIPOS>SET
DONOR_HYDROGENS      STATIC     ATOMS    <user>   **** ""
2 22 23
ATOM$RED        STATIC     ATOMS    COLORGROUP SYSTEM
2 22 23
@<TRIPOS>COMMENT
> <Gold.Version>
2022.3.0

> <Gold.Id.Protein>
unknown|3oog_clean|pdb

> <Gold.Protein.RotatedTorsions>
[ 3557 3548 3547 3545 ] final   17.50 input   60.02 | X-H torsion
[ 3477 3468 3467 3465 ] final  174.86 input   60.01 | X-H torsion
[ 3738 3729 3728 3726 ] final   65.01 input   59.99 | X-H torsion
[ 3042 3035 3033 3030 ] final    8.57 input   59.98 | X-H torsion
[ 4996 4987 4986 4984 ] final  -62.52 input   60.02 | X-H torsion
[ 2507 2496 2495 2494 ] final   45.26 input   60.00 | X-H torsion
[ 1848 1843 1842 1839 ] final  105.61 input   60.03 | X-H torsion
[ 3090 3083 3082 3080 ] final    4.45 input   60.01 | X-H torsion
[  557  552  551  548 ] final   31.00 input   60.01 | X-H torsion

> <Gold.Protein.ActiveResidues>
 LEU49   GLY50   THR51   GLY52   SER53   PHE54   LEU82   GLN84   HIS87   GLY126 
 GLU127  MET128  PHE129  SER130  HIS131  LEU132  ARG133  ARG134  ILE135  GLY136 
 ARG137  ARG165  ASP166  LEU167  LYS168  PRO169  GLU170  ASN171  LEU173  ASP184 
 GLY186  PHE187  TPO197  LEU198  CYS199  GLY200  THR201  PRO202  GLU203  TYR204 
 LEU205  ILE209  ILE210  VAL226  LEU227  TYR229  GLU230  ALA233  GLY234  TYR235 
 PRO236  PRO237  PHE238  PHE239  ALA240  ASP241  GLN242  PRO243  ILE244  GLN245 
 ILE246  TYR247  ARG256  PHE257  PRO258  SER259  ASN326  PHE327  ASP328  ASP329 
 TYR330 

> <Gold.Protein.RotatedAtoms>
   18.4141   13.0952    2.2230 H   0  0  0  0  0  0  0  0  0  0  0  0  # atno 557  bound_to 552 
   26.2671    4.9509  -11.0973 H   0  0  0  0  0  0  0  0  0  0  0  0  # atno 1848 bound_to 1843
   18.6323    3.5210   -0.0487 H   0  0  0  0  0  0  0  0  0  0  0  0  # atno 2507 bound_to 2496
   19.3331    4.9864   -0.3767 H   0  0  0  0  0  0  0  0  0  0  0  0  # atno 2508 bound_to 2496
   18.6016    4.1266   -1.5915 H   0  0  0  0  0  0  0  0  0  0  0  0  # atno 2509 bound_to 2496
   17.2510    2.6756    1.4904 H   0  0  0  0  0  0  0  0  0  0  0  0  # atno 3042 bound_to 3035
   20.6660   -3.9683   -4.2968 H   0  0  0  0  0  0  0  0  0  0  0  0  # atno 3090 bound_to 3083
   15.8548  -15.0766   -7.2340 H   0  0  0  0  0  0  0  0  0  0  0  0  # atno 3477 bound_to 3468
   15.3331  -14.0642  -11.3391 H   0  0  0  0  0  0  0  0  0  0  0  0  # atno 3557 bound_to 3548
    9.3786    0.5026    1.7428 H   0  0  0  0  0  0  0  0  0  0  0  0  # atno 3738 bound_to 3729
   22.7438   10.0146  -10.1757 H   0  0  0  0  0  0  0  0  0  0  0  0  # atno 4996 bound_to 4987
   16.8886  -14.0866  -11.8171 LP  0  0  0  0  0  0  0  0  0  0  0  0  # atno 5299 bound_to 3548
   15.7029  -13.7904  -12.9001 LP  0  0  0  0  0  0  0  0  0  0  0  0  # atno 5300 bound_to 3548
   16.2424  -14.0974   -8.4748 LP  0  0  0  0  0  0  0  0  0  0  0  0  # atno 5307 bound_to 3468
   15.1961  -13.5914   -7.3277 LP  0  0  0  0  0  0  0  0  0  0  0  0  # atno 5308 bound_to 3468
    9.9854    0.3787    3.2473 LP  0  0  0  0  0  0  0  0  0  0  0  0  # atno 5361 bound_to 3729
    8.4930    0.9992    3.0141 LP  0  0  0  0  0  0  0  0  0  0  0  0  # atno 5362 bound_to 3729
   17.4028    2.8415   -0.1210 LP  0  0  0  0  0  0  0  0  0  0  0  0  # atno 5363 bound_to 3035
   18.5447    2.0445    0.7320 LP  0  0  0  0  0  0  0  0  0  0  0  0  # atno 5364 bound_to 3035
   21.7468   10.2982   -8.9215 LP  0  0  0  0  0  0  0  0  0  0  0  0  # atno 5373 bound_to 4987
   23.3646   10.3921   -8.7199 LP  0  0  0  0  0  0  0  0  0  0  0  0  # atno 5374 bound_to 4987
   24.8491    4.5100  -11.7638 LP  0  0  0  0  0  0  0  0  0  0  0  0  # atno 5381 bound_to 1843
   25.8086    5.5930  -12.5209 LP  0  0  0  0  0  0  0  0  0  0  0  0  # atno 5382 bound_to 1843
   20.9421   -5.4733   -3.7426 LP  0  0  0  0  0  0  0  0  0  0  0  0  # atno 5411 bound_to 3083
   22.0071   -4.2761   -3.4280 LP  0  0  0  0  0  0  0  0  0  0  0  0  # atno 5412 bound_to 3083
   17.9969   11.6047    1.7206 LP  0  0  0  0  0  0  0  0  0  0  0  0  # atno 5419 bound_to 552 
   17.6806   12.0712    3.2532 LP  0  0  0  0  0  0  0  0  0  0  0  0  # atno 5420 bound_to 552 

> <Gold.Score>
     Fitness  S(hb_ext) S(vdw_ext)  S(hb_int)    S(int)      intcor
     27.85       7.85      15.93       0.00      -1.91      -0.76

> <Gold.Goldscore.Fitness>
27.8487

> <Gold.Goldscore.Internal.Vdw>
-2.2950

> <Gold.Goldscore.Internal.Torsion>
-0.3696

> <Gold.Goldscore.External.Vdw>
15.9286

> <Gold.Goldscore.Internal.HBond>
0.0000

> <Gold.Goldscore.External.HBond>
7.8529

> <Gold.Goldscore.Internal.Correction>
-0.7585

> <Gold.Goldscore.Hbonds>
donor molecule, donor type, donor heavy atom, donor atom, acceptor molecule, acceptor atom, score
      P1  H  2496  2508       L1     9  1.00
      P1  H   547   554       L1    11  0.93

> <Gold.Goldscore.Internal.Vdw.Weighted>
-2.2950

> <Gold.Goldscore.Internal.Torsion.Weighted>
-0.3696

> <Gold.Goldscore.External.Vdw.Weighted>
21.9018

> <Gold.Goldscore.Internal.HBond.Weighted>
0.0000

> <Gold.Goldscore.External.HBond.Weighted>
7.8529

> <Gold.Goldscore.Internal.Correction.Weighted>
-0.7585

> <Gold.Rescore>
     Score     S(PLP)   S(hbond)     S(cho)   S(metal)  DE(clash)   DE(tors)     intcor
     29.45     -25.55       1.99       0.00       0.00       2.05       0.01       ----

> <Gold.PLP.Fitness>
29.4514

> <Gold.PLP.PLP>
-25.5515

> <Gold.PLP.part.hbond>
-3.0000

> <Gold.PLP.part.metal>
0.0000

> <Gold.PLP.part.buried>
-4.7733

> <Gold.PLP.part.nonpolar>
-19.4073

> <Gold.PLP.part.repulsive>
0.2965

> <Gold.PLP.ligand.clash>
2.0542

> <Gold.PLP.ligand.torsion>
0.0110

> <Gold.PLP.Chemscore.Hbond>
1.9920

> <Gold.PLP.Chemscore.CHOScore>
0.0000

> <Gold.PLP.Chemscore.Metal>
0.0000

> <Gold.Chemscore.Hbonds>
donor molecule, donor type, donor heavy atom, donor atom, acceptor molecule, acceptor atom, score
      P1  H  2496  2508       L1     9  0.75
      P1  H   547   554       L1    11  0.44

> <Gold.PLP.Chemscore.Internal.Correction>
   9.000000E+99

