#       Name:                CT1002167954
#       Creating user name   hitesit
#       Creation time:       Sun Apr 16 22:50:37 2023


#       File generated by GOLD software.
#

@<TRIPOS>MOLECULE
CT1002167954|ligand_prepared|mol2|1|dock3
    29    30     1
SMALL
NO_CHARGES


@<TRIPOS>ATOM
      1 C1          21.4172   9.3801  -3.5258 C.3            1 RES1               0.0000
      2 C2          21.9830  10.6998  -2.9627 C.ar           1 RES1               0.0000
      3 C3          22.2583   8.2603  -2.9201 C.2            1 RES1               0.0000
      4 C4          19.9469   9.3405  -3.1242 C.2            1 RES1               0.0000
      5 C5          21.4946   9.2741  -5.0667 C.3            1 RES1               0.0000
      6 C6          21.4677  11.2497  -1.7928 C.ar           1 RES1               0.0000
      7 C7          23.0200  11.3762  -3.5995 C.ar           1 RES1               0.0000
      8 N8          21.6885   7.5007  -1.9412 N.am           1 RES1               0.0000
      9 O9          23.4175   8.0720  -3.2682 O.2            1 RES1               0.0000
     10 N10         19.5472   8.3680  -2.2454 N.am           1 RES1               0.0000
     11 O11         19.1341  10.1530  -3.5479 O.2            1 RES1               0.0000
     12 C12         20.7261   8.0936  -5.6394 C.3            1 RES1               0.0000
     13 C13         21.9728  12.4314  -1.2764 C.ar           1 RES1               0.0000
     14 C14         23.5236  12.5580  -3.0816 C.ar           1 RES1               0.0000
     15 C15         20.3573   7.4654  -1.6120 C.2            1 RES1               0.0000
     16 C16         23.0012  13.0861  -1.9201 C.ar           1 RES1               0.0000
     17 O17         19.9316   6.6563  -0.7926 O.2            1 RES1               0.0000
     18 H18         21.0990  10.1988  -5.5045 H              1 RES1               0.0000
     19 H19         22.5474   9.1868  -5.3622 H              1 RES1               0.0000
     20 H20         20.6566  10.7500  -1.2737 H              1 RES1               0.0000
     21 H21         23.4457  10.9799  -4.5151 H              1 RES1               0.0000
     22 H22         22.3095   6.9038  -1.4043 H              1 RES1               0.0000
     23 H23         18.5537   8.3116  -2.0450 H              1 RES1               0.0000
     24 H24         20.8134   8.0659  -6.7235 H              1 RES1               0.0000
     25 H25         21.1100   7.1552  -5.2445 H              1 RES1               0.0000
     26 H26         19.6701   8.1612  -5.3860 H              1 RES1               0.0000
     27 H27         21.5573  12.8436  -0.3628 H              1 RES1               0.0000
     28 H28         24.3326  13.0702  -3.5918 H              1 RES1               0.0000
     29 H29         23.3970  14.0117  -1.5152 H              1 RES1               0.0000
@<TRIPOS>BOND
    1    1    2 1     
    2    1    3 1     
    3    1    4 1     
    4    1    5 1     
    5    2    6 ar    
    6    2    7 ar    
    7    3    8 1     
    8    3    9 2     
    9    4   10 1     
   10    4   11 2     
   11    5   12 1     
   12    5   18 1     
   13    5   19 1     
   14    6   13 ar    
   15    6   20 1     
   16    7   14 ar    
   17    7   21 1     
   18    8   15 1     
   19    8   22 1     
   20   10   15 1     
   21   10   23 1     
   22   12   24 1     
   23   12   25 1     
   24   12   26 1     
   25   13   16 ar    
   26   13   27 1     
   27   14   16 ar    
   28   14   28 1     
   29   15   17 2     
   30   16   29 1     
@<TRIPOS>SUBSTRUCTURE
      1 RES1           1
@<TRIPOS>SET
DONOR_HYDROGENS      STATIC     ATOMS    <user>   **** ""
2 22 23
ATOM$RED        STATIC     ATOMS    COLORGROUP SYSTEM
2 22 23
@<TRIPOS>COMMENT
> <Gold.Version>
2022.3.0

> <Gold.Id.Protein>
unknown|3oog_clean|pdb

> <Gold.Protein.RotatedTorsions>
[ 3557 3548 3547 3545 ] final  159.62 input   60.02 | X-H torsion
[ 3477 3468 3467 3465 ] final  174.03 input   60.01 | X-H torsion
[ 3738 3729 3728 3726 ] final   92.64 input   59.99 | X-H torsion
[ 3042 3035 3033 3030 ] final -143.61 input   59.98 | X-H torsion
[ 4996 4987 4986 4984 ] final  -99.51 input   60.02 | X-H torsion
[ 2507 2496 2495 2494 ] final  -50.03 input   60.00 | X-H torsion
[ 1848 1843 1842 1839 ] final   96.29 input   60.03 | X-H torsion
[ 3090 3083 3082 3080 ] final  -34.51 input   60.01 | X-H torsion
[  557  552  551  548 ] final  -57.48 input   60.01 | X-H torsion

> <Gold.Protein.ActiveResidues>
 LEU49   GLY50   THR51   GLY52   SER53   PHE54   LEU82   GLN84   HIS87   GLY126 
 GLU127  MET128  PHE129  SER130  HIS131  LEU132  ARG133  ARG134  ILE135  GLY136 
 ARG137  ARG165  ASP166  LEU167  LYS168  PRO169  GLU170  ASN171  LEU173  ASP184 
 GLY186  PHE187  TPO197  LEU198  CYS199  GLY200  THR201  PRO202  GLU203  TYR204 
 LEU205  ILE209  ILE210  VAL226  LEU227  TYR229  GLU230  ALA233  GLY234  TYR235 
 PRO236  PRO237  PHE238  PHE239  ALA240  ASP241  GLN242  PRO243  ILE244  GLN245 
 ILE246  TYR247  ARG256  PHE257  PRO258  SER259  ASN326  PHE327  ASP328  ASP329 
 TYR330 

> <Gold.Protein.RotatedAtoms>
   18.2218   12.0143    1.5153 H   0  0  0  0  0  0  0  0  0  0  0  0  # atno 557  bound_to 552 
   26.1697    4.8512  -11.0362 H   0  0  0  0  0  0  0  0  0  0  0  0  # atno 1848 bound_to 1843
   18.4559    3.7809   -1.4272 H   0  0  0  0  0  0  0  0  0  0  0  0  # atno 2507 bound_to 2496
   18.8290    3.7909    0.1873 H   0  0  0  0  0  0  0  0  0  0  0  0  # atno 2508 bound_to 2496
   19.2822    5.0621   -0.7763 H   0  0  0  0  0  0  0  0  0  0  0  0  # atno 2509 bound_to 2496
   17.8499    2.5949   -0.2229 H   0  0  0  0  0  0  0  0  0  0  0  0  # atno 3042 bound_to 3035
   20.4015   -4.5339   -4.3048 H   0  0  0  0  0  0  0  0  0  0  0  0  # atno 3090 bound_to 3083
   15.8635  -15.0807   -7.2436 H   0  0  0  0  0  0  0  0  0  0  0  0  # atno 3477 bound_to 3468
   16.0616  -13.8073  -12.9333 H   0  0  0  0  0  0  0  0  0  0  0  0  # atno 3557 bound_to 3548
    8.9713    0.6816    1.7861 H   0  0  0  0  0  0  0  0  0  0  0  0  # atno 3738 bound_to 3729
   22.1608   10.0267  -10.0639 H   0  0  0  0  0  0  0  0  0  0  0  0  # atno 4996 bound_to 4987
   15.1183  -13.9966  -11.6207 LP  0  0  0  0  0  0  0  0  0  0  0  0  # atno 5299 bound_to 3548
   16.7399  -14.1391  -11.4916 LP  0  0  0  0  0  0  0  0  0  0  0  0  # atno 5300 bound_to 3548
   16.2368  -14.0849   -8.4755 LP  0  0  0  0  0  0  0  0  0  0  0  0  # atno 5307 bound_to 3468
   15.1929  -13.5997   -7.3173 LP  0  0  0  0  0  0  0  0  0  0  0  0  # atno 5308 bound_to 3468
   10.1432    0.2743    2.8387 LP  0  0  0  0  0  0  0  0  0  0  0  0  # atno 5361 bound_to 3729
    8.7456    0.9234    3.3791 LP  0  0  0  0  0  0  0  0  0  0  0  0  # atno 5362 bound_to 3729
   18.3724    2.0677    1.2249 LP  0  0  0  0  0  0  0  0  0  0  0  0  # atno 5363 bound_to 3035
   16.9717    2.8996    1.1124 LP  0  0  0  0  0  0  0  0  0  0  0  0  # atno 5364 bound_to 3035
   22.1376   10.4176   -8.4847 LP  0  0  0  0  0  0  0  0  0  0  0  0  # atno 5373 bound_to 4987
   23.5612   10.2604   -9.2692 LP  0  0  0  0  0  0  0  0  0  0  0  0  # atno 5374 bound_to 4987
   24.8164    4.5766  -11.8977 LP  0  0  0  0  0  0  0  0  0  0  0  0  # atno 5381 bound_to 1843
   25.9392    5.6268  -12.4484 LP  0  0  0  0  0  0  0  0  0  0  0  0  # atno 5382 bound_to 1843
   21.4883   -5.3857   -3.4436 LP  0  0  0  0  0  0  0  0  0  0  0  0  # atno 5411 bound_to 3083
   21.7273   -3.7940   -3.7189 LP  0  0  0  0  0  0  0  0  0  0  0  0  # atno 5412 bound_to 3083
   17.6052   11.6475    2.9758 LP  0  0  0  0  0  0  0  0  0  0  0  0  # atno 5419 bound_to 552 
   18.2660   13.1172    2.7109 LP  0  0  0  0  0  0  0  0  0  0  0  0  # atno 5420 bound_to 552 

> <Gold.Score>
     Fitness  S(hb_ext) S(vdw_ext)  S(hb_int)    S(int)      intcor
     29.60       3.79      19.14       0.00      -0.51      -0.79

> <Gold.Goldscore.Fitness>
29.5991

> <Gold.Goldscore.Internal.Vdw>
-0.7723

> <Gold.Goldscore.Internal.Torsion>
-0.5232

> <Gold.Goldscore.External.Vdw>
19.1387

> <Gold.Goldscore.Internal.HBond>
0.0000

> <Gold.Goldscore.External.HBond>
3.7939

> <Gold.Goldscore.Internal.Correction>
-0.7850

> <Gold.Goldscore.Hbonds>
donor molecule, donor type, donor heavy atom, donor atom, acceptor molecule, acceptor atom, score
      P1  H  2496  2509       L1    17  0.52
      L1  H     8    22       P1  2546  0.35

> <Gold.Goldscore.Internal.Vdw.Weighted>
-0.7723

> <Gold.Goldscore.Internal.Torsion.Weighted>
-0.5232

> <Gold.Goldscore.External.Vdw.Weighted>
26.3157

> <Gold.Goldscore.Internal.HBond.Weighted>
0.0000

> <Gold.Goldscore.External.HBond.Weighted>
3.7939

> <Gold.Goldscore.Internal.Correction.Weighted>
-0.7850

> <Gold.Rescore>
     Score     S(PLP)   S(hbond)     S(cho)   S(metal)  DE(clash)   DE(tors)     intcor
     27.48     -24.03       1.98       0.00       0.00       0.00       1.25       ----

> <Gold.PLP.Fitness>
27.4796

> <Gold.PLP.PLP>
-24.0316

> <Gold.PLP.part.hbond>
-2.1879

> <Gold.PLP.part.metal>
0.0000

> <Gold.PLP.part.buried>
-4.2776

> <Gold.PLP.part.nonpolar>
-19.8624

> <Gold.PLP.part.repulsive>
2.1244

> <Gold.PLP.ligand.clash>
0.0000

> <Gold.PLP.ligand.torsion>
1.2520

> <Gold.PLP.Chemscore.Hbond>
1.9840

> <Gold.PLP.Chemscore.CHOScore>
0.0000

> <Gold.PLP.Chemscore.Metal>
0.0000

> <Gold.Chemscore.Hbonds>
donor molecule, donor type, donor heavy atom, donor atom, acceptor molecule, acceptor atom, score
      P1  H  2496  2509       L1    17  1.00

> <Gold.PLP.Chemscore.Internal.Correction>
   9.000000E+99

