#       Name:                CT1002167954
#       Creating user name   hitesit
#       Creation time:       Sun Apr 16 22:50:44 2023


#       File generated by GOLD software.
#

@<TRIPOS>MOLECULE
CT1002167954|ligand_prepared|mol2|1|dock9
    29    30     1
SMALL
NO_CHARGES


@<TRIPOS>ATOM
      1 C1          26.4375   9.4462  -3.5665 C.3            1 RES1               0.0000
      2 C2          25.5477  10.0559  -2.4640 C.ar           1 RES1               0.0000
      3 C3          27.8177   9.2532  -2.9452 C.2            1 RES1               0.0000
      4 C4          25.7599   8.1485  -3.9924 C.2            1 RES1               0.0000
      5 C5          26.5833  10.3423  -4.8184 C.3            1 RES1               0.0000
      6 C6          25.4549   9.4520  -1.2136 C.ar           1 RES1               0.0000
      7 C7          24.8172  11.2212  -2.6812 C.ar           1 RES1               0.0000
      8 N8          28.1990   7.9809  -2.6357 N.am           1 RES1               0.0000
      9 O9          28.5445  10.2067  -2.6942 O.2            1 RES1               0.0000
     10 N10         26.4108   6.9702  -3.7360 N.am           1 RES1               0.0000
     11 O11         24.6608   8.1347  -4.5327 O.2            1 RES1               0.0000
     12 C12         27.6189   9.8421  -5.8132 C.3            1 RES1               0.0000
     13 C13         24.6629   9.9950  -0.2155 C.ar           1 RES1               0.0000
     14 C14         24.0256  11.7623  -1.6817 C.ar           1 RES1               0.0000
     15 C15         27.5855   6.8258  -3.0494 C.2            1 RES1               0.0000
     16 C16         23.9482  11.1505  -0.4486 C.ar           1 RES1               0.0000
     17 O17         28.0811   5.7283  -2.8109 O.2            1 RES1               0.0000
     18 H18         25.6111  10.4055  -5.3225 H              1 RES1               0.0000
     19 H19         26.8613  11.3540  -4.4981 H              1 RES1               0.0000
     20 H20         26.0082   8.5408  -1.0125 H              1 RES1               0.0000
     21 H21         24.8621  11.7190  -3.6439 H              1 RES1               0.0000
     22 H22         29.0157   7.8789  -2.0417 H              1 RES1               0.0000
     23 H23         25.9797   6.1221  -4.0899 H              1 RES1               0.0000
     24 H24         27.6811  10.5068  -6.6722 H              1 RES1               0.0000
     25 H25         28.6031   9.7908  -5.3524 H              1 RES1               0.0000
     26 H26         27.3603   8.8479  -6.1719 H              1 RES1               0.0000
     27 H27         24.6043   9.5089   0.7528 H              1 RES1               0.0000
     28 H28         23.4643  12.6716  -1.8698 H              1 RES1               0.0000
     29 H29         23.3281  11.5759   0.3336 H              1 RES1               0.0000
@<TRIPOS>BOND
    1    1    2 1     
    2    1    3 1     
    3    1    4 1     
    4    1    5 1     
    5    2    6 ar    
    6    2    7 ar    
    7    3    8 1     
    8    3    9 2     
    9    4   10 1     
   10    4   11 2     
   11    5   12 1     
   12    5   18 1     
   13    5   19 1     
   14    6   13 ar    
   15    6   20 1     
   16    7   14 ar    
   17    7   21 1     
   18    8   15 1     
   19    8   22 1     
   20   10   15 1     
   21   10   23 1     
   22   12   24 1     
   23   12   25 1     
   24   12   26 1     
   25   13   16 ar    
   26   13   27 1     
   27   14   16 ar    
   28   14   28 1     
   29   15   17 2     
   30   16   29 1     
@<TRIPOS>SUBSTRUCTURE
      1 RES1           1
@<TRIPOS>SET
DONOR_HYDROGENS      STATIC     ATOMS    <user>   **** ""
2 22 23
ATOM$RED        STATIC     ATOMS    COLORGROUP SYSTEM
2 22 23
@<TRIPOS>COMMENT
> <Gold.Version>
2022.3.0

> <Gold.Id.Protein>
unknown|3oog_clean|pdb

> <Gold.Protein.RotatedTorsions>
[ 3557 3548 3547 3545 ] final -126.81 input   60.02 | X-H torsion
[ 3477 3468 3467 3465 ] final  -64.79 input   60.01 | X-H torsion
[ 3738 3729 3728 3726 ] final  -48.43 input   59.99 | X-H torsion
[ 3042 3035 3033 3030 ] final  164.51 input   59.98 | X-H torsion
[ 4996 4987 4986 4984 ] final  147.35 input   60.02 | X-H torsion
[ 2507 2496 2495 2494 ] final   80.06 input   60.00 | X-H torsion
[ 1848 1843 1842 1839 ] final  162.50 input   60.03 | X-H torsion
[ 3090 3083 3082 3080 ] final   56.57 input   60.01 | X-H torsion
[  557  552  551  548 ] final -144.74 input   60.01 | X-H torsion

> <Gold.Protein.ActiveResidues>
 LEU49   GLY50   THR51   GLY52   SER53   PHE54   LEU82   GLN84   HIS87   GLY126 
 GLU127  MET128  PHE129  SER130  HIS131  LEU132  ARG133  ARG134  ILE135  GLY136 
 ARG137  ARG165  ASP166  LEU167  LYS168  PRO169  GLU170  ASN171  LEU173  ASP184 
 GLY186  PHE187  TPO197  LEU198  CYS199  GLY200  THR201  PRO202  GLU203  TYR204 
 LEU205  ILE209  ILE210  VAL226  LEU227  TYR229  GLU230  ALA233  GLY234  TYR235 
 PRO236  PRO237  PHE238  PHE239  ALA240  ASP241  GLN242  PRO243  ILE244  GLN245 
 ILE246  TYR247  ARG256  PHE257  PRO258  SER259  ASN326  PHE327  ASP328  ASP329 
 TYR330 

> <Gold.Protein.RotatedAtoms>
   17.6612   11.4063    2.5075 H   0  0  0  0  0  0  0  0  0  0  0  0  # atno 557  bound_to 552 
   26.4451    5.5010  -11.7768 H   0  0  0  0  0  0  0  0  0  0  0  0  # atno 1848 bound_to 1843
   18.9130    3.9276    0.2395 H   0  0  0  0  0  0  0  0  0  0  0  0  # atno 2507 bound_to 2496
   19.2378    5.0477   -0.9378 H   0  0  0  0  0  0  0  0  0  0  0  0  # atno 2508 bound_to 2496
   18.4160    3.6586   -1.3189 H   0  0  0  0  0  0  0  0  0  0  0  0  # atno 2509 bound_to 2496
   18.4359    2.1911    0.1820 H   0  0  0  0  0  0  0  0  0  0  0  0  # atno 3042 bound_to 3035
   21.3553   -3.6591   -3.9714 H   0  0  0  0  0  0  0  0  0  0  0  0  # atno 3090 bound_to 3083
   15.2032  -13.5915   -7.3330 H   0  0  0  0  0  0  0  0  0  0  0  0  # atno 3477 bound_to 3468
   16.8904  -14.0087  -12.2052 H   0  0  0  0  0  0  0  0  0  0  0  0  # atno 3557 bound_to 3548
   10.0330    0.3480    3.1556 H   0  0  0  0  0  0  0  0  0  0  0  0  # atno 3738 bound_to 3729
   22.0484   10.4007   -8.5514 H   0  0  0  0  0  0  0  0  0  0  0  0  # atno 4996 bound_to 4987
   15.3561  -13.8028  -12.7072 LP  0  0  0  0  0  0  0  0  0  0  0  0  # atno 5299 bound_to 3548
   15.6677  -14.1301  -11.1380 LP  0  0  0  0  0  0  0  0  0  0  0  0  # atno 5300 bound_to 3548
   15.8498  -15.0813   -7.2284 LP  0  0  0  0  0  0  0  0  0  0  0  0  # atno 5307 bound_to 3468
   16.2446  -14.1025   -8.4745 LP  0  0  0  0  0  0  0  0  0  0  0  0  # atno 5308 bound_to 3468
    8.5381    0.9886    3.1114 LP  0  0  0  0  0  0  0  0  0  0  0  0  # atno 5361 bound_to 3729
    9.2809    0.5452    1.7264 LP  0  0  0  0  0  0  0  0  0  0  0  0  # atno 5362 bound_to 3729
   17.7274    2.3787    1.6345 LP  0  0  0  0  0  0  0  0  0  0  0  0  # atno 5363 bound_to 3035
   17.0262    2.9955    0.2949 LP  0  0  0  0  0  0  0  0  0  0  0  0  # atno 5364 bound_to 3035
   23.5531   10.2874   -9.1601 LP  0  0  0  0  0  0  0  0  0  0  0  0  # atno 5373 bound_to 4987
   22.2589   10.0139  -10.1177 LP  0  0  0  0  0  0  0  0  0  0  0  0  # atno 5374 bound_to 4987
   25.4323    4.4308  -11.0854 LP  0  0  0  0  0  0  0  0  0  0  0  0  # atno 5381 bound_to 1843
   25.0461    5.1185  -12.5153 LP  0  0  0  0  0  0  0  0  0  0  0  0  # atno 5382 bound_to 1843
   20.4307   -4.9832   -4.1721 LP  0  0  0  0  0  0  0  0  0  0  0  0  # atno 5411 bound_to 3083
   21.8242   -5.0776   -3.3262 LP  0  0  0  0  0  0  0  0  0  0  0  0  # atno 5412 bound_to 3083
   18.0353   12.8670    3.1191 LP  0  0  0  0  0  0  0  0  0  0  0  0  # atno 5419 bound_to 552 
   18.4006   12.5102    1.5680 LP  0  0  0  0  0  0  0  0  0  0  0  0  # atno 5420 bound_to 552 

> <Gold.Score>
     Fitness  S(hb_ext) S(vdw_ext)  S(hb_int)    S(int)      intcor
     35.13       2.00      24.31       0.00      -0.30      -0.76

> <Gold.Goldscore.Fitness>
35.1257

> <Gold.Goldscore.Internal.Vdw>
-0.5683

> <Gold.Goldscore.Internal.Torsion>
-0.4884

> <Gold.Goldscore.External.Vdw>
24.3082

> <Gold.Goldscore.Internal.HBond>
0.0000

> <Gold.Goldscore.External.HBond>
2.0000

> <Gold.Goldscore.Internal.Correction>
-0.7585

> <Gold.Goldscore.Hbonds>
donor molecule, donor type, donor heavy atom, donor atom, acceptor molecule, acceptor atom, score
      L1  H    10    23       P1  2527  1.00

> <Gold.Goldscore.Internal.Vdw.Weighted>
-0.5683

> <Gold.Goldscore.Internal.Torsion.Weighted>
-0.4884

> <Gold.Goldscore.External.Vdw.Weighted>
33.4238

> <Gold.Goldscore.Internal.HBond.Weighted>
0.0000

> <Gold.Goldscore.External.HBond.Weighted>
2.0000

> <Gold.Goldscore.Internal.Correction.Weighted>
-0.7585

> <Gold.Rescore>
     Score     S(PLP)   S(hbond)     S(cho)   S(metal)  DE(clash)   DE(tors)     intcor
     30.65     -30.01       1.00       0.00       0.00       0.00       1.18       ----

> <Gold.PLP.Fitness>
30.6500

> <Gold.PLP.PLP>
-30.0143

> <Gold.PLP.part.hbond>
-3.7883

> <Gold.PLP.part.metal>
0.0000

> <Gold.PLP.part.buried>
-2.1752

> <Gold.PLP.part.nonpolar>
-26.8770

> <Gold.PLP.part.repulsive>
1.5365

> <Gold.PLP.ligand.clash>
0.0000

> <Gold.PLP.ligand.torsion>
1.1821

> <Gold.PLP.Chemscore.Hbond>
1.0000

> <Gold.PLP.Chemscore.CHOScore>
0.0000

> <Gold.PLP.Chemscore.Metal>
0.0000

> <Gold.Chemscore.Hbonds>
donor molecule, donor type, donor heavy atom, donor atom, acceptor molecule, acceptor atom, score
      L1  H    10    23       P1  2527  0.91

> <Gold.PLP.Chemscore.Internal.Correction>
   9.000000E+99

