#       Name:                CT1002167954
#       Creating user name   hitesit
#       Creation time:       Sun Apr 16 22:50:45 2023


#       File generated by GOLD software.
#

@<TRIPOS>MOLECULE
CT1002167954|ligand_prepared|mol2|1|dock10
    29    30     1
SMALL
NO_CHARGES


@<TRIPOS>ATOM
      1 C1          19.0794   9.4115   2.5338 C.3            1 RES1               0.0000
      2 C2          20.0544  10.6024   2.6330 C.ar           1 RES1               0.0000
      3 C3          18.5127   9.4387   1.1173 C.2            1 RES1               0.0000
      4 C4          19.8957   8.1640   2.8534 C.2            1 RES1               0.0000
      5 C5          17.9029   9.4820   3.5350 C.3            1 RES1               0.0000
      6 C6          20.7397  10.8604   3.8165 C.ar           1 RES1               0.0000
      7 C7          20.2806  11.4487   1.5508 C.ar           1 RES1               0.0000
      8 N8          18.9602   8.4958   0.2395 N.am           1 RES1               0.0000
      9 O9          17.7150  10.2987   0.7647 O.2            1 RES1               0.0000
     10 N10         20.0802   7.2441   1.8546 N.am           1 RES1               0.0000
     11 O11         20.3948   7.9774   3.9562 O.2            1 RES1               0.0000
     12 C12         16.8257   8.4372   3.2899 C.3            1 RES1               0.0000
     13 C13         21.6214  11.9241   3.9137 C.ar           1 RES1               0.0000
     14 C14         21.1626  12.5120   1.6503 C.ar           1 RES1               0.0000
     15 C15         19.6754   7.3681   0.5535 C.2            1 RES1               0.0000
     16 C16         21.8338  12.7503   2.8307 C.ar           1 RES1               0.0000
     17 O17         19.9263   6.5224  -0.3003 O.2            1 RES1               0.0000
     18 H18         18.2957   9.3526   4.5510 H              1 RES1               0.0000
     19 H19         17.4481  10.4786   3.4758 H              1 RES1               0.0000
     20 H20         20.5836  10.2225   4.6801 H              1 RES1               0.0000
     21 H21         19.7628  11.2810   0.6125 H              1 RES1               0.0000
     22 H22         18.7431   8.6427  -0.7411 H              1 RES1               0.0000
     23 H23         20.5641   6.3874   2.1043 H              1 RES1               0.0000
     24 H24         16.0243   8.5309   4.0197 H              1 RES1               0.0000
     25 H25         16.3953   8.5524   2.2973 H              1 RES1               0.0000
     26 H26         17.2379   7.4331   3.3661 H              1 RES1               0.0000
     27 H27         22.1461  12.1081   4.8454 H              1 RES1               0.0000
     28 H28         21.3262  13.1600   0.7956 H              1 RES1               0.0000
     29 H29         22.5248  13.5832   2.9070 H              1 RES1               0.0000
@<TRIPOS>BOND
    1    1    2 1     
    2    1    3 1     
    3    1    4 1     
    4    1    5 1     
    5    2    6 ar    
    6    2    7 ar    
    7    3    8 1     
    8    3    9 2     
    9    4   10 1     
   10    4   11 2     
   11    5   12 1     
   12    5   18 1     
   13    5   19 1     
   14    6   13 ar    
   15    6   20 1     
   16    7   14 ar    
   17    7   21 1     
   18    8   15 1     
   19    8   22 1     
   20   10   15 1     
   21   10   23 1     
   22   12   24 1     
   23   12   25 1     
   24   12   26 1     
   25   13   16 ar    
   26   13   27 1     
   27   14   16 ar    
   28   14   28 1     
   29   15   17 2     
   30   16   29 1     
@<TRIPOS>SUBSTRUCTURE
      1 RES1           1
@<TRIPOS>SET
DONOR_HYDROGENS      STATIC     ATOMS    <user>   **** ""
2 22 23
ATOM$RED        STATIC     ATOMS    COLORGROUP SYSTEM
2 22 23
@<TRIPOS>COMMENT
> <Gold.Version>
2022.3.0

> <Gold.Id.Protein>
unknown|3oog_clean|pdb

> <Gold.Protein.RotatedTorsions>
[ 3557 3548 3547 3545 ] final   -0.18 input   60.02 | X-H torsion
[ 3477 3468 3467 3465 ] final   72.03 input   60.01 | X-H torsion
[ 3738 3729 3728 3726 ] final  -54.78 input   59.99 | X-H torsion
[ 3042 3035 3033 3030 ] final -153.74 input   59.98 | X-H torsion
[ 4996 4987 4986 4984 ] final   20.27 input   60.02 | X-H torsion
[ 2507 2496 2495 2494 ] final  172.37 input   60.00 | X-H torsion
[ 1848 1843 1842 1839 ] final -165.20 input   60.03 | X-H torsion
[ 3090 3083 3082 3080 ] final  120.28 input   60.01 | X-H torsion
[  557  552  551  548 ] final   62.87 input   60.01 | X-H torsion

> <Gold.Protein.ActiveResidues>
 LEU49   GLY50   THR51   GLY52   SER53   PHE54   LEU82   GLN84   HIS87   GLY126 
 GLU127  MET128  PHE129  SER130  HIS131  LEU132  ARG133  ARG134  ILE135  GLY136 
 ARG137  ARG165  ASP166  LEU167  LYS168  PRO169  GLU170  ASN171  LEU173  ASP184 
 GLY186  PHE187  TPO197  LEU198  CYS199  GLY200  THR201  PRO202  GLU203  TYR204 
 LEU205  ILE209  ILE210  VAL226  LEU227  TYR229  GLU230  ALA233  GLY234  TYR235 
 PRO236  PRO237  PHE238  PHE239  ALA240  ASP241  GLN242  PRO243  ILE244  GLN245 
 ILE246  TYR247  ARG256  PHE257  PRO258  SER259  ASN326  PHE327  ASP328  ASP329 
 TYR330 

> <Gold.Protein.RotatedAtoms>
   18.2605   13.1104    2.7133 H   0  0  0  0  0  0  0  0  0  0  0  0  # atno 557  bound_to 552 
   26.2028    5.6368  -12.2175 H   0  0  0  0  0  0  0  0  0  0  0  0  # atno 1848 bound_to 1843
   19.3269    5.0234   -0.4897 H   0  0  0  0  0  0  0  0  0  0  0  0  # atno 2507 bound_to 2496
   18.5537    4.0229   -1.5608 H   0  0  0  0  0  0  0  0  0  0  0  0  # atno 2508 bound_to 2496
   18.6861    3.5870    0.0337 H   0  0  0  0  0  0  0  0  0  0  0  0  # atno 2509 bound_to 2496
   17.9893    2.5099   -0.1971 H   0  0  0  0  0  0  0  0  0  0  0  0  # atno 3042 bound_to 3035
   21.9869   -4.2156   -3.4537 H   0  0  0  0  0  0  0  0  0  0  0  0  # atno 3090 bound_to 3083
   16.3312  -14.3572   -8.4167 H   0  0  0  0  0  0  0  0  0  0  0  0  # atno 3477 bound_to 3468
   15.5699  -14.1118  -11.1825 H   0  0  0  0  0  0  0  0  0  0  0  0  # atno 3557 bound_to 3548
    9.9814    0.3777    3.2403 H   0  0  0  0  0  0  0  0  0  0  0  0  # atno 3738 bound_to 3729
   23.5542   10.2613   -9.2734 H   0  0  0  0  0  0  0  0  0  0  0  0  # atno 4996 bound_to 4987
   16.9110  -14.0331  -12.1010 LP  0  0  0  0  0  0  0  0  0  0  0  0  # atno 5299 bound_to 3548
   15.4421  -13.7961  -12.7739 LP  0  0  0  0  0  0  0  0  0  0  0  0  # atno 5300 bound_to 3548
   15.2877  -13.4530   -7.5551 LP  0  0  0  0  0  0  0  0  0  0  0  0  # atno 5307 bound_to 3468
   15.6712  -14.9600   -7.0567 LP  0  0  0  0  0  0  0  0  0  0  0  0  # atno 5308 bound_to 3468
    8.4943    0.9990    3.0173 LP  0  0  0  0  0  0  0  0  0  0  0  0  # atno 5361 bound_to 3729
    9.3767    0.5048    1.7352 LP  0  0  0  0  0  0  0  0  0  0  0  0  # atno 5362 bound_to 3729
   18.2730    2.1055    1.3531 LP  0  0  0  0  0  0  0  0  0  0  0  0  # atno 5363 bound_to 3035
   16.9307    2.9475    0.9583 LP  0  0  0  0  0  0  0  0  0  0  0  0  # atno 5364 bound_to 3035
   22.1541   10.0236  -10.0675 LP  0  0  0  0  0  0  0  0  0  0  0  0  # atno 5373 bound_to 4987
   22.1407   10.4181   -8.4829 LP  0  0  0  0  0  0  0  0  0  0  0  0  # atno 5374 bound_to 4987
   25.8978    4.6412  -10.9666 LP  0  0  0  0  0  0  0  0  0  0  0  0  # atno 5381 bound_to 1843
   24.8246    4.7713  -12.1905 LP  0  0  0  0  0  0  0  0  0  0  0  0  # atno 5382 bound_to 1843
   20.6197   -4.0163   -4.3135 LP  0  0  0  0  0  0  0  0  0  0  0  0  # atno 5411 bound_to 3083
   20.9991   -5.4839   -3.7062 LP  0  0  0  0  0  0  0  0  0  0  0  0  # atno 5412 bound_to 3083
   18.2272   12.0171    1.5085 LP  0  0  0  0  0  0  0  0  0  0  0  0  # atno 5419 bound_to 552 
   17.6050   11.6435    2.9714 LP  0  0  0  0  0  0  0  0  0  0  0  0  # atno 5420 bound_to 552 

> <Gold.Score>
     Fitness  S(hb_ext) S(vdw_ext)  S(hb_int)    S(int)      intcor
     36.48       8.10      23.07       0.00      -3.34      -0.76

> <Gold.Goldscore.Fitness>
36.4750

> <Gold.Goldscore.Internal.Vdw>
-3.5928

> <Gold.Goldscore.Internal.Torsion>
-0.5106

> <Gold.Goldscore.External.Vdw>
23.0722

> <Gold.Goldscore.Internal.HBond>
0.0000

> <Gold.Goldscore.External.HBond>
8.0957

> <Gold.Goldscore.Internal.Correction>
-0.7585

> <Gold.Goldscore.Hbonds>
donor molecule, donor type, donor heavy atom, donor atom, acceptor molecule, acceptor atom, score
      P1  H  2496  2507       L1    17  0.65
      P1  H   547   554       L1     9  0.34
      L1  H    10    23       P1  2464  0.58

> <Gold.Goldscore.Internal.Vdw.Weighted>
-3.5928

> <Gold.Goldscore.Internal.Torsion.Weighted>
-0.5106

> <Gold.Goldscore.External.Vdw.Weighted>
31.7242

> <Gold.Goldscore.Internal.HBond.Weighted>
0.0000

> <Gold.Goldscore.External.HBond.Weighted>
8.0957

> <Gold.Goldscore.Internal.Correction.Weighted>
-0.7585

> <Gold.Rescore>
     Score     S(PLP)   S(hbond)     S(cho)   S(metal)  DE(clash)   DE(tors)     intcor
     30.16     -25.39       2.20       0.00       0.00       0.20       0.82       ----

> <Gold.PLP.Fitness>
30.1578

> <Gold.PLP.PLP>
-25.3895

> <Gold.PLP.part.hbond>
-3.8397

> <Gold.PLP.part.metal>
0.0000

> <Gold.PLP.part.buried>
1.5594

> <Gold.PLP.part.nonpolar>
-23.5916

> <Gold.PLP.part.repulsive>
0.4574

> <Gold.PLP.ligand.clash>
0.2006

> <Gold.PLP.ligand.torsion>
0.8155

> <Gold.PLP.Chemscore.Hbond>
2.2000

> <Gold.PLP.Chemscore.CHOScore>
0.0000

> <Gold.PLP.Chemscore.Metal>
0.0000

> <Gold.Chemscore.Hbonds>
donor molecule, donor type, donor heavy atom, donor atom, acceptor molecule, acceptor atom, score
      L1  H    10    23       P1  2464  0.54
      P1  H  2496  2507       L1    17  1.00
      P1  H   547   554       L1     9  0.28

> <Gold.PLP.Chemscore.Internal.Correction>
   9.000000E+99

