#       Name:                CT1002167954
#       Creating user name   hitesit
#       Creation time:       Sun Apr 16 22:50:34 2023


#       File generated by GOLD software.
#

@<TRIPOS>MOLECULE
CT1002167954|ligand_prepared|mol2|1|dock1
    29    30     1
SMALL
NO_CHARGES


@<TRIPOS>ATOM
      1 C1          25.9388   8.7381  -2.8450 C.3            1 RES1               0.0000
      2 C2          27.0323   9.5519  -3.5666 C.ar           1 RES1               0.0000
      3 C3          24.6269   9.4814  -3.0788 C.2            1 RES1               0.0000
      4 C4          25.9780   7.3396  -3.4510 C.2            1 RES1               0.0000
      5 C5          26.1628   8.6047  -1.3207 C.3            1 RES1               0.0000
      6 C6          26.6900  10.5530  -4.4708 C.ar           1 RES1               0.0000
      7 C7          28.3850   9.3154  -3.3369 C.ar           1 RES1               0.0000
      8 N8          23.7413   8.9376  -3.9619 N.am           1 RES1               0.0000
      9 O9          24.3901  10.5489  -2.5268 O.2            1 RES1               0.0000
     10 N10         24.8886   6.9200  -4.1686 N.am           1 RES1               0.0000
     11 O11         26.9492   6.6035  -3.3276 O.2            1 RES1               0.0000
     12 C12         26.6204   9.8920  -0.6532 C.3            1 RES1               0.0000
     13 C13         27.6646  11.2928  -5.1196 C.ar           1 RES1               0.0000
     14 C14         29.3581  10.0563  -3.9870 C.ar           1 RES1               0.0000
     15 C15         23.7847   7.6672  -4.4774 C.2            1 RES1               0.0000
     16 C16         28.9992  11.0454  -4.8779 C.ar           1 RES1               0.0000
     17 O17         22.8697   7.2377  -5.1742 O.2            1 RES1               0.0000
     18 H18         25.2255   8.2784  -0.8533 H              1 RES1               0.0000
     19 H19         26.9154   7.8270  -1.1411 H              1 RES1               0.0000
     20 H20         25.6450  10.7603  -4.6756 H              1 RES1               0.0000
     21 H21         28.6907   8.5416  -2.6410 H              1 RES1               0.0000
     22 H22         22.9760   9.5304  -4.2673 H              1 RES1               0.0000
     23 H23         24.9018   5.9619  -4.5036 H              1 RES1               0.0000
     24 H24         26.7626   9.7431   0.4151 H              1 RES1               0.0000
     25 H25         27.5633  10.2319  -1.0764 H              1 RES1               0.0000
     26 H26         25.8834  10.6806  -0.7903 H              1 RES1               0.0000
     27 H27         27.3770  12.0692  -5.8209 H              1 RES1               0.0000
     28 H28         30.4072   9.8577  -3.7942 H              1 RES1               0.0000
     29 H29         29.7625  11.6254  -5.3860 H              1 RES1               0.0000
@<TRIPOS>BOND
    1    1    2 1     
    2    1    3 1     
    3    1    4 1     
    4    1    5 1     
    5    2    6 ar    
    6    2    7 ar    
    7    3    8 1     
    8    3    9 2     
    9    4   10 1     
   10    4   11 2     
   11    5   12 1     
   12    5   18 1     
   13    5   19 1     
   14    6   13 ar    
   15    6   20 1     
   16    7   14 ar    
   17    7   21 1     
   18    8   15 1     
   19    8   22 1     
   20   10   15 1     
   21   10   23 1     
   22   12   24 1     
   23   12   25 1     
   24   12   26 1     
   25   13   16 ar    
   26   13   27 1     
   27   14   16 ar    
   28   14   28 1     
   29   15   17 2     
   30   16   29 1     
@<TRIPOS>SUBSTRUCTURE
      1 RES1           1
@<TRIPOS>SET
DONOR_HYDROGENS      STATIC     ATOMS    <user>   **** ""
2 22 23
ATOM$RED        STATIC     ATOMS    COLORGROUP SYSTEM
2 22 23
@<TRIPOS>COMMENT
> <Gold.Version>
2022.3.0

> <Gold.Id.Protein>
unknown|3oog_clean|pdb

> <Gold.Protein.RotatedTorsions>
[ 3557 3548 3547 3545 ] final   62.04 input   60.02 | X-H torsion
[ 3477 3468 3467 3465 ] final  -24.17 input   60.01 | X-H torsion
[ 3738 3729 3728 3726 ] final  -83.08 input   59.99 | X-H torsion
[ 3042 3035 3033 3030 ] final   46.91 input   59.98 | X-H torsion
[ 4996 4987 4986 4984 ] final  -52.62 input   60.02 | X-H torsion
[ 2507 2496 2495 2494 ] final   97.08 input   60.00 | X-H torsion
[ 1848 1843 1842 1839 ] final -126.55 input   60.03 | X-H torsion
[ 3090 3083 3082 3080 ] final    1.91 input   60.01 | X-H torsion
[  557  552  551  548 ] final  -27.51 input   60.01 | X-H torsion

> <Gold.Protein.ActiveResidues>
 LEU49   GLY50   THR51   GLY52   SER53   PHE54   LEU82   GLN84   HIS87   GLY126 
 GLU127  MET128  PHE129  SER130  HIS131  LEU132  ARG133  ARG134  ILE135  GLY136 
 ARG137  ARG165  ASP166  LEU167  LYS168  PRO169  GLU170  ASN171  LEU173  ASP184 
 GLY186  PHE187  TPO197  LEU198  CYS199  GLY200  THR201  PRO202  GLU203  TYR204 
 LEU205  ILE209  ILE210  VAL226  LEU227  TYR229  GLU230  ALA233  GLY234  TYR235 
 PRO236  PRO237  PHE238  PHE239  ALA240  ASP241  GLN242  PRO243  ILE244  GLN245 
 ILE246  TYR247  ARG256  PHE257  PRO258  SER259  ASN326  PHE327  ASP328  ASP329 
 TYR330 

> <Gold.Protein.RotatedAtoms>
   18.3854   12.4680    1.5575 H   0  0  0  0  0  0  0  0  0  0  0  0  # atno 557  bound_to 552 
   25.6958    5.5475  -12.5631 H   0  0  0  0  0  0  0  0  0  0  0  0  # atno 1848 bound_to 1843
   19.0493    4.1746    0.2638 H   0  0  0  0  0  0  0  0  0  0  0  0  # atno 2507 bound_to 2496
   19.1372    4.9657   -1.1896 H   0  0  0  0  0  0  0  0  0  0  0  0  # atno 2508 bound_to 2496
   18.3804    3.4934   -1.0914 H   0  0  0  0  0  0  0  0  0  0  0  0  # atno 2509 bound_to 2496
   17.7604    2.3587    1.6237 H   0  0  0  0  0  0  0  0  0  0  0  0  # atno 3042 bound_to 3035
   20.6395   -3.9992   -4.3043 H   0  0  0  0  0  0  0  0  0  0  0  0  # atno 3090 bound_to 3083
   15.4863  -13.3863   -7.8812 H   0  0  0  0  0  0  0  0  0  0  0  0  # atno 3477 bound_to 3468
   15.0402  -13.9206  -11.9693 H   0  0  0  0  0  0  0  0  0  0  0  0  # atno 3557 bound_to 3548
    9.6584    0.5416    3.5200 H   0  0  0  0  0  0  0  0  0  0  0  0  # atno 3738 bound_to 3729
   22.9013   10.0271  -10.1424 H   0  0  0  0  0  0  0  0  0  0  0  0  # atno 4996 bound_to 4987
   16.4742  -14.1685  -11.2409 LP  0  0  0  0  0  0  0  0  0  0  0  0  # atno 5299 bound_to 3548
   16.4123  -13.8531  -12.8419 LP  0  0  0  0  0  0  0  0  0  0  0  0  # atno 5300 bound_to 3548
   15.4355  -14.6892   -6.9073 LP  0  0  0  0  0  0  0  0  0  0  0  0  # atno 5307 bound_to 3468
   16.3740  -14.7013   -8.2436 LP  0  0  0  0  0  0  0  0  0  0  0  0  # atno 5308 bound_to 3468
    8.4218    0.9893    2.5620 LP  0  0  0  0  0  0  0  0  0  0  0  0  # atno 5361 bound_to 3729
    9.7746    0.3493    1.9086 LP  0  0  0  0  0  0  0  0  0  0  0  0  # atno 5362 bound_to 3729
   17.0096    2.9996    0.3304 LP  0  0  0  0  0  0  0  0  0  0  0  0  # atno 5363 bound_to 3035
   18.4247    2.2057    0.1464 LP  0  0  0  0  0  0  0  0  0  0  0  0  # atno 5364 bound_to 3035
   21.6983   10.2594   -9.0718 LP  0  0  0  0  0  0  0  0  0  0  0  0  # atno 5373 bound_to 4987
   23.2544   10.4182   -8.6030 LP  0  0  0  0  0  0  0  0  0  0  0  0  # atno 5374 bound_to 4987
   26.3398    5.0381  -11.1578 LP  0  0  0  0  0  0  0  0  0  0  0  0  # atno 5381 bound_to 1843
   24.8929    4.4643  -11.6514 LP  0  0  0  0  0  0  0  0  0  0  0  0  # atno 5382 bound_to 1843
   20.9766   -5.4803   -3.7204 LP  0  0  0  0  0  0  0  0  0  0  0  0  # atno 5411 bound_to 3083
   21.9992   -4.2379   -3.4426 LP  0  0  0  0  0  0  0  0  0  0  0  0  # atno 5412 bound_to 3083
   17.6504   11.4105    2.5521 LP  0  0  0  0  0  0  0  0  0  0  0  0  # atno 5419 bound_to 552 
   18.0560   12.8973    3.0921 LP  0  0  0  0  0  0  0  0  0  0  0  0  # atno 5420 bound_to 552 

> <Gold.Score>
     Fitness  S(hb_ext) S(vdw_ext)  S(hb_int)    S(int)      intcor
     28.02       0.46      22.61       0.00      -3.52      -0.79

> <Gold.Goldscore.Fitness>
28.0217

> <Gold.Goldscore.Internal.Vdw>
-3.4700

> <Gold.Goldscore.Internal.Torsion>
-0.8365

> <Gold.Goldscore.External.Vdw>
22.6062

> <Gold.Goldscore.Internal.HBond>
0.0000

> <Gold.Goldscore.External.HBond>
0.4597

> <Gold.Goldscore.Internal.Correction>
-0.7850

> <Gold.Goldscore.Hbonds>
donor molecule, donor type, donor heavy atom, donor atom, acceptor molecule, acceptor atom, score
      L1  H    10    23       P1  2527  0.23

> <Gold.Goldscore.Internal.Vdw.Weighted>
-3.4700

> <Gold.Goldscore.Internal.Torsion.Weighted>
-0.8365

> <Gold.Goldscore.External.Vdw.Weighted>
31.0836

> <Gold.Goldscore.Internal.HBond.Weighted>
0.0000

> <Gold.Goldscore.External.HBond.Weighted>
0.4597

> <Gold.Goldscore.Internal.Correction.Weighted>
-0.7850

> <Gold.Rescore>
     Score     S(PLP)   S(hbond)     S(cho)   S(metal)  DE(clash)   DE(tors)     intcor
     36.72     -36.37       0.98       0.00       0.00       0.75       0.91       ----

> <Gold.PLP.Fitness>
36.7174

> <Gold.PLP.PLP>
-36.3672

> <Gold.PLP.part.hbond>
-1.9152

> <Gold.PLP.part.metal>
0.0000

> <Gold.PLP.part.buried>
-5.6585

> <Gold.PLP.part.nonpolar>
-30.8542

> <Gold.PLP.part.repulsive>
0.5252

> <Gold.PLP.ligand.clash>
0.7503

> <Gold.PLP.ligand.torsion>
0.9137

> <Gold.PLP.Chemscore.Hbond>
0.9760

> <Gold.PLP.Chemscore.CHOScore>
0.0000

> <Gold.PLP.Chemscore.Metal>
0.0000

> <Gold.Chemscore.Hbonds>
donor molecule, donor type, donor heavy atom, donor atom, acceptor molecule, acceptor atom, score
      L1  H    10    23       P1  2527  0.41

> <Gold.PLP.Chemscore.Internal.Correction>
   9.000000E+99

