#       Name:                CT1002167954
#       Creating user name   hitesit
#       Creation time:       Sun Apr 16 22:50:42 2023


#       File generated by GOLD software.
#

@<TRIPOS>MOLECULE
CT1002167954|ligand_prepared|mol2|1|dock8
    29    30     1
SMALL
NO_CHARGES


@<TRIPOS>ATOM
      1 C1          20.2838   9.2718  -1.4906 C.3            1 RES1               0.0000
      2 C2          21.1485  10.5436  -1.3738 C.ar           1 RES1               0.0000
      3 C3          21.2537   8.1117  -1.6949 C.2            1 RES1               0.0000
      4 C4          19.4744   9.1864  -0.2013 C.2            1 RES1               0.0000
      5 C5          19.2918   9.2974  -2.6767 C.3            1 RES1               0.0000
      6 C6          21.7608  11.0899  -2.4979 C.ar           1 RES1               0.0000
      7 C7          21.3405  11.1822  -0.1516 C.ar           1 RES1               0.0000
      8 N8          21.4590   7.2672  -0.6439 N.am           1 RES1               0.0000
      9 O9          21.8592   7.9630  -2.7492 O.2            1 RES1               0.0000
     10 N10         19.7259   8.1396   0.6465 N.am           1 RES1               0.0000
     11 O11         18.6328  10.0252   0.0959 O.2            1 RES1               0.0000
     12 C12         18.3160   8.1313  -2.6852 C.3            1 RES1               0.0000
     13 C13         22.5346  12.2347  -2.4040 C.ar           1 RES1               0.0000
     14 C14         22.1149  12.3269  -0.0599 C.ar           1 RES1               0.0000
     15 C15         20.7029   7.1932   0.4983 C.2            1 RES1               0.0000
     16 C16         22.7119  12.8542  -1.1852 C.ar           1 RES1               0.0000
     17 O17         20.9035   6.3142   1.3315 O.2            1 RES1               0.0000
     18 H18         18.7222  10.2342  -2.6404 H              1 RES1               0.0000
     19 H19         19.8618   9.2876  -3.6140 H              1 RES1               0.0000
     20 H20         21.6347  10.6148  -3.4650 H              1 RES1               0.0000
     21 H21         20.8814  10.7846   0.7472 H              1 RES1               0.0000
     22 H22         22.2477   6.6320  -0.7135 H              1 RES1               0.0000
     23 H23         19.1294   8.0584   1.4638 H              1 RES1               0.0000
     24 H24         17.6431   8.1976  -3.5375 H              1 RES1               0.0000
     25 H25         18.8476   7.1839  -2.7461 H              1 RES1               0.0000
     26 H26         17.7148   8.1249  -1.7783 H              1 RES1               0.0000
     27 H27         23.0034  12.6449  -3.2924 H              1 RES1               0.0000
     28 H28         22.2522  12.8108   0.9015 H              1 RES1               0.0000
     29 H29         23.3178  13.7513  -1.1120 H              1 RES1               0.0000
@<TRIPOS>BOND
    1    1    2 1     
    2    1    3 1     
    3    1    4 1     
    4    1    5 1     
    5    2    6 ar    
    6    2    7 ar    
    7    3    8 1     
    8    3    9 2     
    9    4   10 1     
   10    4   11 2     
   11    5   12 1     
   12    5   18 1     
   13    5   19 1     
   14    6   13 ar    
   15    6   20 1     
   16    7   14 ar    
   17    7   21 1     
   18    8   15 1     
   19    8   22 1     
   20   10   15 1     
   21   10   23 1     
   22   12   24 1     
   23   12   25 1     
   24   12   26 1     
   25   13   16 ar    
   26   13   27 1     
   27   14   16 ar    
   28   14   28 1     
   29   15   17 2     
   30   16   29 1     
@<TRIPOS>SUBSTRUCTURE
      1 RES1           1
@<TRIPOS>SET
DONOR_HYDROGENS      STATIC     ATOMS    <user>   **** ""
2 22 23
ATOM$RED        STATIC     ATOMS    COLORGROUP SYSTEM
2 22 23
@<TRIPOS>COMMENT
> <Gold.Version>
2022.3.0

> <Gold.Id.Protein>
unknown|3oog_clean|pdb

> <Gold.Protein.RotatedTorsions>
[ 3557 3548 3547 3545 ] final  104.82 input   60.02 | X-H torsion
[ 3477 3468 3467 3465 ] final  147.88 input   60.01 | X-H torsion
[ 3738 3729 3728 3726 ] final  161.90 input   59.99 | X-H torsion
[ 3042 3035 3033 3030 ] final  116.64 input   59.98 | X-H torsion
[ 4996 4987 4986 4984 ] final   14.55 input   60.02 | X-H torsion
[ 2507 2496 2495 2494 ] final  -58.35 input   60.00 | X-H torsion
[ 1848 1843 1842 1839 ] final -172.67 input   60.03 | X-H torsion
[ 3090 3083 3082 3080 ] final -178.18 input   60.01 | X-H torsion
[  557  552  551  548 ] final  -80.43 input   60.01 | X-H torsion

> <Gold.Protein.ActiveResidues>
 LEU49   GLY50   THR51   GLY52   SER53   PHE54   LEU82   GLN84   HIS87   GLY126 
 GLU127  MET128  PHE129  SER130  HIS131  LEU132  ARG133  ARG134  ILE135  GLY136 
 ARG137  ARG165  ASP166  LEU167  LYS168  PRO169  GLU170  ASN171  LEU173  ASP184 
 GLY186  PHE187  TPO197  LEU198  CYS199  GLY200  THR201  PRO202  GLU203  TYR204 
 LEU205  ILE209  ILE210  VAL226  LEU227  TYR229  GLU230  ALA233  GLY234  TYR235 
 PRO236  PRO237  PHE238  PHE239  ALA240  ASP241  GLN242  PRO243  ILE244  GLN245 
 ILE246  TYR247  ARG256  PHE257  PRO258  SER259  ASN326  PHE327  ASP328  ASP329 
 TYR330 

> <Gold.Protein.RotatedAtoms>
   18.0589   11.7052    1.6443 H   0  0  0  0  0  0  0  0  0  0  0  0  # atno 557  bound_to 552 
   26.2780    5.6219  -12.1228 H   0  0  0  0  0  0  0  0  0  0  0  0  # atno 1848 bound_to 1843
   18.4979    3.8914   -1.4997 H   0  0  0  0  0  0  0  0  0  0  0  0  # atno 2507 bound_to 2496
   18.7602    3.6883    0.1238 H   0  0  0  0  0  0  0  0  0  0  0  0  # atno 2508 bound_to 2496
   19.3089    5.0540   -0.6403 H   0  0  0  0  0  0  0  0  0  0  0  0  # atno 2509 bound_to 2496
   18.5019    2.0371    0.9225 H   0  0  0  0  0  0  0  0  0  0  0  0  # atno 3042 bound_to 3035
   21.7679   -5.1413   -3.3408 H   0  0  0  0  0  0  0  0  0  0  0  0  # atno 3090 bound_to 3083
   16.1173  -15.1190   -7.5807 H   0  0  0  0  0  0  0  0  0  0  0  0  # atno 3477 bound_to 3468
   15.2644  -13.8132  -12.6056 H   0  0  0  0  0  0  0  0  0  0  0  0  # atno 3557 bound_to 3548
    8.4252    0.9932    2.6439 H   0  0  0  0  0  0  0  0  0  0  0  0  # atno 3738 bound_to 3729
   23.5503   10.2386   -9.3639 H   0  0  0  0  0  0  0  0  0  0  0  0  # atno 4996 bound_to 4987
   15.8003  -14.1461  -11.1054 LP  0  0  0  0  0  0  0  0  0  0  0  0  # atno 5299 bound_to 3548
   16.8604  -13.9836  -12.3368 LP  0  0  0  0  0  0  0  0  0  0  0  0  # atno 5300 bound_to 3548
   16.0182  -13.7241   -8.4131 LP  0  0  0  0  0  0  0  0  0  0  0  0  # atno 5307 bound_to 3468
   15.1561  -13.9220   -7.0404 LP  0  0  0  0  0  0  0  0  0  0  0  0  # atno 5308 bound_to 3468
    9.7107    0.3727    1.8632 LP  0  0  0  0  0  0  0  0  0  0  0  0  # atno 5361 bound_to 3729
    9.7284    0.5109    3.4902 LP  0  0  0  0  0  0  0  0  0  0  0  0  # atno 5362 bound_to 3729
   17.1227    2.7704    1.3777 LP  0  0  0  0  0  0  0  0  0  0  0  0  # atno 5363 bound_to 3035
   17.5645    2.7589   -0.1944 LP  0  0  0  0  0  0  0  0  0  0  0  0  # atno 5364 bound_to 3035
   22.0747   10.0337  -10.0180 LP  0  0  0  0  0  0  0  0  0  0  0  0  # atno 5373 bound_to 4987
   22.2241   10.4308   -8.4411 LP  0  0  0  0  0  0  0  0  0  0  0  0  # atno 5374 bound_to 4987
   25.7921    4.5791  -10.9714 LP  0  0  0  0  0  0  0  0  0  0  0  0  # atno 5381 bound_to 1843
   24.8546    4.8485  -12.2810 LP  0  0  0  0  0  0  0  0  0  0  0  0  # atno 5382 bound_to 1843
   21.4302   -3.6619   -3.9285 LP  0  0  0  0  0  0  0  0  0  0  0  0  # atno 5411 bound_to 3083
   20.4092   -4.9060   -4.2050 LP  0  0  0  0  0  0  0  0  0  0  0  0  # atno 5412 bound_to 3083
   17.6483   11.9448    3.2006 LP  0  0  0  0  0  0  0  0  0  0  0  0  # atno 5419 bound_to 552 
   18.3870   13.1313    2.3561 LP  0  0  0  0  0  0  0  0  0  0  0  0  # atno 5420 bound_to 552 

> <Gold.Score>
     Fitness  S(hb_ext) S(vdw_ext)  S(hb_int)    S(int)      intcor
     28.50       5.68      17.59       0.00      -1.36      -0.76

> <Gold.Goldscore.Fitness>
28.5029

> <Gold.Goldscore.Internal.Vdw>
-1.6663

> <Gold.Goldscore.Internal.Torsion>
-0.4560

> <Gold.Goldscore.External.Vdw>
17.5936

> <Gold.Goldscore.Internal.HBond>
0.0000

> <Gold.Goldscore.External.HBond>
5.6754

> <Gold.Goldscore.Internal.Correction>
-0.7585

> <Gold.Goldscore.Hbonds>
donor molecule, donor type, donor heavy atom, donor atom, acceptor molecule, acceptor atom, score
      P1  H  2545  2551       L1    17  0.47
      P1  H   547   554       L1    11  0.66
      P1  H   552   557       L1    11  0.82
      L1  H     8    22       P1  2546  0.89

> <Gold.Goldscore.Internal.Vdw.Weighted>
-1.6663

> <Gold.Goldscore.Internal.Torsion.Weighted>
-0.4560

> <Gold.Goldscore.External.Vdw.Weighted>
24.1913

> <Gold.Goldscore.Internal.HBond.Weighted>
0.0000

> <Gold.Goldscore.External.HBond.Weighted>
5.6754

> <Gold.Goldscore.Internal.Correction.Weighted>
-0.7585

> <Gold.Rescore>
     Score     S(PLP)   S(hbond)     S(cho)   S(metal)  DE(clash)   DE(tors)     intcor
     29.73     -24.83       2.16       0.00       0.00       1.13       0.22       ----

> <Gold.PLP.Fitness>
29.7267

> <Gold.PLP.PLP>
-24.8294

> <Gold.PLP.part.hbond>
-3.0000

> <Gold.PLP.part.metal>
0.0000

> <Gold.PLP.part.buried>
-5.1281

> <Gold.PLP.part.nonpolar>
-17.7161

> <Gold.PLP.part.repulsive>
0.4152

> <Gold.PLP.ligand.clash>
1.1320

> <Gold.PLP.ligand.torsion>
0.2190

> <Gold.PLP.Chemscore.Hbond>
2.1558

> <Gold.PLP.Chemscore.CHOScore>
0.0000

> <Gold.PLP.Chemscore.Metal>
0.0000

> <Gold.Chemscore.Hbonds>
donor molecule, donor type, donor heavy atom, donor atom, acceptor molecule, acceptor atom, score
      L1  H     8    22       P1  2546  0.02
      P1  H   552   557       L1    11  0.36

> <Gold.PLP.Chemscore.Internal.Correction>
   9.000000E+99

