#       Name:                CT1002167954
#       Creating user name   hitesit
#       Creation time:       Sun Apr 16 22:50:38 2023


#       File generated by GOLD software.
#

@<TRIPOS>MOLECULE
CT1002167954|ligand_prepared|mol2|1|dock4
    29    30     1
SMALL
NO_CHARGES


@<TRIPOS>ATOM
      1 C1          26.5369   9.5186  -3.6625 C.3            1 RES1               0.0000
      2 C2          25.6010  10.0866  -2.5761 C.ar           1 RES1               0.0000
      3 C3          27.9283   9.4561  -3.0394 C.2            1 RES1               0.0000
      4 C4          25.9664   8.1583  -4.0484 C.2            1 RES1               0.0000
      5 C5          26.6095  10.3862  -4.9406 C.3            1 RES1               0.0000
      6 C6          25.4716   9.4467  -1.3470 C.ar           1 RES1               0.0000
      7 C7          24.8640  11.2489  -2.7869 C.ar           1 RES1               0.0000
      8 N8          28.4113   8.2285  -2.6937 N.am           1 RES1               0.0000
      9 O9          28.5757  10.4722  -2.8184 O.2            1 RES1               0.0000
     10 N10         26.7104   7.0445  -3.7592 N.am           1 RES1               0.0000
     11 O11         24.8718   8.0399  -4.5852 O.2            1 RES1               0.0000
     12 C12         27.5904   9.8663  -5.9796 C.3            1 RES1               0.0000
     13 C13         24.6379   9.9521  -0.3632 C.ar           1 RES1               0.0000
     14 C14         24.0307  11.7525  -1.8017 C.ar           1 RES1               0.0000
     15 C15         27.8931   7.0159  -3.0717 C.2            1 RES1               0.0000
     16 C16         23.9173  11.1054  -0.5896 C.ar           1 RES1               0.0000
     17 O17         28.4759   5.9695  -2.8023 O.2            1 RES1               0.0000
     18 H18         25.6106  10.4352  -5.3913 H              1 RES1               0.0000
     19 H19         26.9007  11.4058  -4.6592 H              1 RES1               0.0000
     20 H20         26.0289   8.5367  -1.1516 H              1 RES1               0.0000
     21 H21         24.9367  11.7742  -3.7331 H              1 RES1               0.0000
     22 H22         29.2337   8.2103  -2.0991 H              1 RES1               0.0000
     23 H23         26.3492   6.1543  -4.0869 H              1 RES1               0.0000
     24 H24         27.6023  10.5114  -6.8556 H              1 RES1               0.0000
     25 H25         28.5989   9.8284  -5.5731 H              1 RES1               0.0000
     26 H26         27.3165   8.8635  -6.3009 H              1 RES1               0.0000
     27 H27         24.5511   9.4383   0.5885 H              1 RES1               0.0000
     28 H28         23.4650  12.6601  -1.9845 H              1 RES1               0.0000
     29 H29         23.2646  11.5013   0.1813 H              1 RES1               0.0000
@<TRIPOS>BOND
    1    1    2 1     
    2    1    3 1     
    3    1    4 1     
    4    1    5 1     
    5    2    6 ar    
    6    2    7 ar    
    7    3    8 1     
    8    3    9 2     
    9    4   10 1     
   10    4   11 2     
   11    5   12 1     
   12    5   18 1     
   13    5   19 1     
   14    6   13 ar    
   15    6   20 1     
   16    7   14 ar    
   17    7   21 1     
   18    8   15 1     
   19    8   22 1     
   20   10   15 1     
   21   10   23 1     
   22   12   24 1     
   23   12   25 1     
   24   12   26 1     
   25   13   16 ar    
   26   13   27 1     
   27   14   16 ar    
   28   14   28 1     
   29   15   17 2     
   30   16   29 1     
@<TRIPOS>SUBSTRUCTURE
      1 RES1           1
@<TRIPOS>SET
DONOR_HYDROGENS      STATIC     ATOMS    <user>   **** ""
2 22 23
ATOM$RED        STATIC     ATOMS    COLORGROUP SYSTEM
2 22 23
@<TRIPOS>COMMENT
> <Gold.Version>
2022.3.0

> <Gold.Id.Protein>
unknown|3oog_clean|pdb

> <Gold.Protein.RotatedTorsions>
[ 3557 3548 3547 3545 ] final  -65.83 input   60.02 | X-H torsion
[ 3477 3468 3467 3465 ] final -153.09 input   60.01 | X-H torsion
[ 3738 3729 3728 3726 ] final  -81.65 input   59.99 | X-H torsion
[ 3042 3035 3033 3030 ] final -138.10 input   59.98 | X-H torsion
[ 4996 4987 4986 4984 ] final  -54.14 input   60.02 | X-H torsion
[ 2507 2496 2495 2494 ] final   88.32 input   60.00 | X-H torsion
[ 1848 1843 1842 1839 ] final  -84.51 input   60.03 | X-H torsion
[ 3090 3083 3082 3080 ] final  -72.14 input   60.01 | X-H torsion
[  557  552  551  548 ] final  163.68 input   60.01 | X-H torsion

> <Gold.Protein.ActiveResidues>
 LEU49   GLY50   THR51   GLY52   SER53   PHE54   LEU82   GLN84   HIS87   GLY126 
 GLU127  MET128  PHE129  SER130  HIS131  LEU132  ARG133  ARG134  ILE135  GLY136 
 ARG137  ARG165  ASP166  LEU167  LYS168  PRO169  GLU170  ASN171  LEU173  ASP184 
 GLY186  PHE187  TPO197  LEU198  CYS199  GLY200  THR201  PRO202  GLU203  TYR204 
 LEU205  ILE209  ILE210  VAL226  LEU227  TYR229  GLU230  ALA233  GLY234  TYR235 
 PRO236  PRO237  PHE238  PHE239  ALA240  ASP241  GLN242  PRO243  ILE244  GLN245 
 ILE246  TYR247  ARG256  PHE257  PRO258  SER259  ASN326  PHE327  ASP328  ASP329 
 TYR330 

> <Gold.Protein.RotatedAtoms>
   17.6369   11.8897    3.1627 H   0  0  0  0  0  0  0  0  0  0  0  0  # atno 557  bound_to 552 
   25.1266    5.1905  -12.5546 H   0  0  0  0  0  0  0  0  0  0  0  0  # atno 1848 bound_to 1843
   18.9805    4.0457    0.2616 H   0  0  0  0  0  0  0  0  0  0  0  0  # atno 2507 bound_to 2496
   19.1927    5.0168   -1.0643 H   0  0  0  0  0  0  0  0  0  0  0  0  # atno 2508 bound_to 2496
   18.3937    3.5714   -1.2144 H   0  0  0  0  0  0  0  0  0  0  0  0  # atno 2509 bound_to 2496
   17.7724    2.6403   -0.2248 H   0  0  0  0  0  0  0  0  0  0  0  0  # atno 3042 bound_to 3035
   20.4846   -5.0987   -4.1082 H   0  0  0  0  0  0  0  0  0  0  0  0  # atno 3090 bound_to 3083
   15.5229  -14.7977   -6.9525 H   0  0  0  0  0  0  0  0  0  0  0  0  # atno 3477 bound_to 3468
   16.5746  -14.1575  -11.3214 H   0  0  0  0  0  0  0  0  0  0  0  0  # atno 3557 bound_to 3548
    9.6777    0.5325    3.5103 H   0  0  0  0  0  0  0  0  0  0  0  0  # atno 3738 bound_to 3729
   22.8776   10.0248  -10.1492 H   0  0  0  0  0  0  0  0  0  0  0  0  # atno 4996 bound_to 4987
   16.2943  -13.8349  -12.8917 LP  0  0  0  0  0  0  0  0  0  0  0  0  # atno 5299 bound_to 3548
   15.0474  -13.9482  -11.8434 LP  0  0  0  0  0  0  0  0  0  0  0  0  # atno 5300 bound_to 3548
   16.3709  -14.5787   -8.3242 LP  0  0  0  0  0  0  0  0  0  0  0  0  # atno 5307 bound_to 3468
   15.4018  -13.3908   -7.7617 LP  0  0  0  0  0  0  0  0  0  0  0  0  # atno 5308 bound_to 3468
    8.4205    0.9920    2.5855 LP  0  0  0  0  0  0  0  0  0  0  0  0  # atno 5361 bound_to 3729
    9.7565    0.3559    1.8949 LP  0  0  0  0  0  0  0  0  0  0  0  0  # atno 5362 bound_to 3729
   18.4182    2.0531    1.1482 LP  0  0  0  0  0  0  0  0  0  0  0  0  # atno 5363 bound_to 3035
   17.0040    2.8685    1.1910 LP  0  0  0  0  0  0  0  0  0  0  0  0  # atno 5364 bound_to 3035
   21.7039   10.2654   -9.0483 LP  0  0  0  0  0  0  0  0  0  0  0  0  # atno 5373 bound_to 4987
   23.2726   10.4146   -8.6197 LP  0  0  0  0  0  0  0  0  0  0  0  0  # atno 5374 bound_to 4987
   26.4706    5.4539  -11.6750 LP  0  0  0  0  0  0  0  0  0  0  0  0  # atno 5381 bound_to 1843
   25.3351    4.4079  -11.1428 LP  0  0  0  0  0  0  0  0  0  0  0  0  # atno 5382 bound_to 1843
   21.8981   -4.9555   -3.3146 LP  0  0  0  0  0  0  0  0  0  0  0  0  # atno 5411 bound_to 3083
   21.2338   -3.6553   -4.0460 LP  0  0  0  0  0  0  0  0  0  0  0  0  # atno 5412 bound_to 3083
   18.3690   13.1391    2.4207 LP  0  0  0  0  0  0  0  0  0  0  0  0  # atno 5419 bound_to 552 
   18.0913   11.7512    1.6064 LP  0  0  0  0  0  0  0  0  0  0  0  0  # atno 5420 bound_to 552 

> <Gold.Score>
     Fitness  S(hb_ext) S(vdw_ext)  S(hb_int)    S(int)      intcor
     33.87       2.00      23.25       0.00      -0.10      -0.77

> <Gold.Goldscore.Fitness>
33.8716

> <Gold.Goldscore.Internal.Vdw>
-0.4819

> <Gold.Goldscore.Internal.Torsion>
-0.3849

> <Gold.Goldscore.External.Vdw>
23.2532

> <Gold.Goldscore.Internal.HBond>
0.0000

> <Gold.Goldscore.External.HBond>
2.0000

> <Gold.Goldscore.Internal.Correction>
-0.7653

> <Gold.Goldscore.Hbonds>
donor molecule, donor type, donor heavy atom, donor atom, acceptor molecule, acceptor atom, score
      L1  H    10    23       P1  2527  1.00

> <Gold.Goldscore.Internal.Vdw.Weighted>
-0.4819

> <Gold.Goldscore.Internal.Torsion.Weighted>
-0.3849

> <Gold.Goldscore.External.Vdw.Weighted>
31.9731

> <Gold.Goldscore.Internal.HBond.Weighted>
0.0000

> <Gold.Goldscore.External.HBond.Weighted>
2.0000

> <Gold.Goldscore.Internal.Correction.Weighted>
-0.7653

> <Gold.Rescore>
     Score     S(PLP)   S(hbond)     S(cho)   S(metal)  DE(clash)   DE(tors)     intcor
     31.31     -31.26       0.98       0.00       0.00       0.00       1.44       ----

> <Gold.PLP.Fitness>
31.3056

> <Gold.PLP.PLP>
-31.2610

> <Gold.PLP.part.hbond>
-3.9010

> <Gold.PLP.part.metal>
0.0000

> <Gold.PLP.part.buried>
-2.5750

> <Gold.PLP.part.nonpolar>
-28.3103

> <Gold.PLP.part.repulsive>
2.3184

> <Gold.PLP.ligand.clash>
0.0000

> <Gold.PLP.ligand.torsion>
1.4417

> <Gold.PLP.Chemscore.Hbond>
0.9760

> <Gold.PLP.Chemscore.CHOScore>
0.0000

> <Gold.PLP.Chemscore.Metal>
0.0000

> <Gold.Chemscore.Hbonds>
donor molecule, donor type, donor heavy atom, donor atom, acceptor molecule, acceptor atom, score
      L1  H    10    23       P1  2527  1.00

> <Gold.PLP.Chemscore.Internal.Correction>
   9.000000E+99

