#       Name:                CT1002167954
#       Creating user name   hitesit
#       Creation time:       Sun Apr 16 22:50:39 2023


#       File generated by GOLD software.
#

@<TRIPOS>MOLECULE
CT1002167954|ligand_prepared|mol2|1|dock5
    29    30     1
SMALL
NO_CHARGES


@<TRIPOS>ATOM
      1 C1          20.4182   9.3808  -1.4779 C.3            1 RES1               0.0000
      2 C2          21.2705  10.6488  -1.2667 C.ar           1 RES1               0.0000
      3 C3          21.4021   8.2304  -1.6699 C.2            1 RES1               0.0000
      4 C4          19.5386   9.2470  -0.2397 C.2            1 RES1               0.0000
      5 C5          19.4937   9.4483  -2.7157 C.3            1 RES1               0.0000
      6 C6          21.9149  11.2563  -2.3402 C.ar           1 RES1               0.0000
      7 C7          21.4192  11.2231  -0.0071 C.ar           1 RES1               0.0000
      8 N8          21.5516   7.3483  -0.6406 N.am           1 RES1               0.0000
      9 O9          22.0659   8.1214  -2.6935 O.2            1 RES1               0.0000
     10 N10         19.7462   8.1703   0.5821 N.am           1 RES1               0.0000
     11 O11         18.6787  10.0731   0.0404 O.2            1 RES1               0.0000
     12 C12         18.5285   8.2784  -2.8246 C.3            1 RES1               0.0000
     13 C13         22.6779  12.3983  -2.1616 C.ar           1 RES1               0.0000
     14 C14         22.1830  12.3651   0.1694 C.ar           1 RES1               0.0000
     15 C15         20.7333   7.2314   0.4542 C.2            1 RES1               0.0000
     16 C16         22.8121  12.9537  -0.9069 C.ar           1 RES1               0.0000
     17 O17         20.8903   6.3228   1.2647 O.2            1 RES1               0.0000
     18 H18         18.9162  10.3800  -2.6747 H              1 RES1               0.0000
     19 H19         20.1151   9.4785  -3.6193 H              1 RES1               0.0000
     20 H20         21.8228  10.8322  -3.3346 H              1 RES1               0.0000
     21 H21         20.9343  10.7766   0.8543 H              1 RES1               0.0000
     22 H22         22.3451   6.7173  -0.6892 H              1 RES1               0.0000
     23 H23         19.1054   8.0582   1.3613 H              1 RES1               0.0000
     24 H24         17.9036   8.3751  -3.7100 H              1 RES1               0.0000
     25 H25         19.0695   7.3369  -2.8928 H              1 RES1               0.0000
     26 H26         17.8777   8.2331  -1.9538 H              1 RES1               0.0000
     27 H27         23.1722  12.8570  -3.0116 H              1 RES1               0.0000
     28 H28         22.2863  12.7983   1.1588 H              1 RES1               0.0000
     29 H29         23.4096  13.8485  -0.7672 H              1 RES1               0.0000
@<TRIPOS>BOND
    1    1    2 1     
    2    1    3 1     
    3    1    4 1     
    4    1    5 1     
    5    2    6 ar    
    6    2    7 ar    
    7    3    8 1     
    8    3    9 2     
    9    4   10 1     
   10    4   11 2     
   11    5   12 1     
   12    5   18 1     
   13    5   19 1     
   14    6   13 ar    
   15    6   20 1     
   16    7   14 ar    
   17    7   21 1     
   18    8   15 1     
   19    8   22 1     
   20   10   15 1     
   21   10   23 1     
   22   12   24 1     
   23   12   25 1     
   24   12   26 1     
   25   13   16 ar    
   26   13   27 1     
   27   14   16 ar    
   28   14   28 1     
   29   15   17 2     
   30   16   29 1     
@<TRIPOS>SUBSTRUCTURE
      1 RES1           1
@<TRIPOS>SET
DONOR_HYDROGENS      STATIC     ATOMS    <user>   **** ""
2 22 23
ATOM$RED        STATIC     ATOMS    COLORGROUP SYSTEM
2 22 23
@<TRIPOS>COMMENT
> <Gold.Version>
2022.3.0

> <Gold.Id.Protein>
unknown|3oog_clean|pdb

> <Gold.Protein.RotatedTorsions>
[ 3557 3548 3547 3545 ] final  -11.98 input   60.02 | X-H torsion
[ 3477 3468 3467 3465 ] final  156.43 input   60.01 | X-H torsion
[ 3738 3729 3728 3726 ] final -103.14 input   59.99 | X-H torsion
[ 3042 3035 3033 3030 ] final  -16.19 input   59.98 | X-H torsion
[ 4996 4987 4986 4984 ] final  -58.50 input   60.02 | X-H torsion
[ 2507 2496 2495 2494 ] final   82.92 input   60.00 | X-H torsion
[ 1848 1843 1842 1839 ] final   29.74 input   60.03 | X-H torsion
[ 3090 3083 3082 3080 ] final  155.62 input   60.01 | X-H torsion
[  557  552  551  548 ] final  -94.40 input   60.01 | X-H torsion

> <Gold.Protein.ActiveResidues>
 LEU49   GLY50   THR51   GLY52   SER53   PHE54   LEU82   GLN84   HIS87   GLY126 
 GLU127  MET128  PHE129  SER130  HIS131  LEU132  ARG133  ARG134  ILE135  GLY136 
 ARG137  ARG165  ASP166  LEU167  LYS168  PRO169  GLU170  ASN171  LEU173  ASP184 
 GLY186  PHE187  TPO197  LEU198  CYS199  GLY200  THR201  PRO202  GLU203  TYR204 
 LEU205  ILE209  ILE210  VAL226  LEU227  TYR229  GLU230  ALA233  GLY234  TYR235 
 PRO236  PRO237  PHE238  PHE239  ALA240  ASP241  GLN242  PRO243  ILE244  GLN245 
 ILE246  TYR247  ARG256  PHE257  PRO258  SER259  ASN326  PHE327  ASP328  ASP329 
 TYR330 

> <Gold.Protein.RotatedAtoms>
   17.9559   11.5574    1.7835 H   0  0  0  0  0  0  0  0  0  0  0  0  # atno 557  bound_to 552 
   25.2622    4.3983  -11.2023 H   0  0  0  0  0  0  0  0  0  0  0  0  # atno 1848 bound_to 1843
   18.9366    3.9680    0.2494 H   0  0  0  0  0  0  0  0  0  0  0  0  # atno 2507 bound_to 2496
   19.2230    5.0389   -0.9824 H   0  0  0  0  0  0  0  0  0  0  0  0  # atno 2508 bound_to 2496
   18.4072    3.6270   -1.2841 H   0  0  0  0  0  0  0  0  0  0  0  0  # atno 2509 bound_to 2496
   17.0210    2.8526    1.2132 H   0  0  0  0  0  0  0  0  0  0  0  0  # atno 3042 bound_to 3035
   21.9683   -4.7678   -3.3203 H   0  0  0  0  0  0  0  0  0  0  0  0  # atno 3090 bound_to 3083
   16.0399  -15.1263   -7.4647 H   0  0  0  0  0  0  0  0  0  0  0  0  # atno 3477 bound_to 3468
   15.7507  -14.1368  -11.1212 H   0  0  0  0  0  0  0  0  0  0  0  0  # atno 3557 bound_to 3548
    9.3699    0.6725    3.5966 H   0  0  0  0  0  0  0  0  0  0  0  0  # atno 3738 bound_to 3729
   22.8084   10.0189  -10.1654 H   0  0  0  0  0  0  0  0  0  0  0  0  # atno 4996 bound_to 4987
   16.8765  -13.9943  -12.2878 LP  0  0  0  0  0  0  0  0  0  0  0  0  # atno 5299 bound_to 3548
   15.2946  -13.8097  -12.6488 LP  0  0  0  0  0  0  0  0  0  0  0  0  # atno 5300 bound_to 3548
   16.0979  -13.8333   -8.4514 LP  0  0  0  0  0  0  0  0  0  0  0  0  # atno 5307 bound_to 3468
   15.1543  -13.8054   -7.1189 LP  0  0  0  0  0  0  0  0  0  0  0  0  # atno 5308 bound_to 3468
    8.4966    0.9291    2.2481 LP  0  0  0  0  0  0  0  0  0  0  0  0  # atno 5361 bound_to 3729
    9.9905    0.2777    2.1453 LP  0  0  0  0  0  0  0  0  0  0  0  0  # atno 5362 bound_to 3729
   17.7465    2.6587   -0.2301 LP  0  0  0  0  0  0  0  0  0  0  0  0  # atno 5363 bound_to 3035
   18.4327    2.0490    1.1204 LP  0  0  0  0  0  0  0  0  0  0  0  0  # atno 5364 bound_to 3035
   21.7239   10.2826   -8.9815 LP  0  0  0  0  0  0  0  0  0  0  0  0  # atno 5373 bound_to 4987
   23.3224   10.4033   -8.6702 LP  0  0  0  0  0  0  0  0  0  0  0  0  # atno 5374 bound_to 4987
   25.1905    5.2531  -12.5854 LP  0  0  0  0  0  0  0  0  0  0  0  0  # atno 5381 bound_to 1843
   26.4787    5.4062  -11.5936 LP  0  0  0  0  0  0  0  0  0  0  0  0  # atno 5382 bound_to 1843
   21.0594   -3.6942   -4.1386 LP  0  0  0  0  0  0  0  0  0  0  0  0  # atno 5411 bound_to 3083
   20.5781   -5.2498   -4.0155 LP  0  0  0  0  0  0  0  0  0  0  0  0  # atno 5412 bound_to 3083
   17.7051   12.1535    3.2767 LP  0  0  0  0  0  0  0  0  0  0  0  0  # atno 5419 bound_to 552 
   18.4340   13.0715    2.1398 LP  0  0  0  0  0  0  0  0  0  0  0  0  # atno 5420 bound_to 552 

> <Gold.Score>
     Fitness  S(hb_ext) S(vdw_ext)  S(hb_int)    S(int)      intcor
     28.59       4.94      18.11       0.00      -1.25      -0.76

> <Gold.Goldscore.Fitness>
28.5924

> <Gold.Goldscore.Internal.Vdw>
-1.5603

> <Gold.Goldscore.Internal.Torsion>
-0.4497

> <Gold.Goldscore.External.Vdw>
18.1088

> <Gold.Goldscore.Internal.HBond>
0.0000

> <Gold.Goldscore.External.HBond>
4.9443

> <Gold.Goldscore.Internal.Correction>
-0.7585

> <Gold.Goldscore.Hbonds>
donor molecule, donor type, donor heavy atom, donor atom, acceptor molecule, acceptor atom, score
      P1  H  2545  2551       L1    17  0.45
      P1  H   547   554       L1    11  0.70
      P1  H   552   557       L1    11  0.43
      L1  H     8    22       P1  2546  0.89

> <Gold.Goldscore.Internal.Vdw.Weighted>
-1.5603

> <Gold.Goldscore.Internal.Torsion.Weighted>
-0.4497

> <Gold.Goldscore.External.Vdw.Weighted>
24.8996

> <Gold.Goldscore.Internal.HBond.Weighted>
0.0000

> <Gold.Goldscore.External.HBond.Weighted>
4.9443

> <Gold.Goldscore.Internal.Correction.Weighted>
-0.7585

> <Gold.Rescore>
     Score     S(PLP)   S(hbond)     S(cho)   S(metal)  DE(clash)   DE(tors)     intcor
     29.25     -24.52       2.12       0.00       0.00       1.03       0.30       ----

> <Gold.PLP.Fitness>
29.2542

> <Gold.PLP.PLP>
-24.5183

> <Gold.PLP.part.hbond>
-3.0000

> <Gold.PLP.part.metal>
0.0000

> <Gold.PLP.part.buried>
-4.3384

> <Gold.PLP.part.nonpolar>
-18.1565

> <Gold.PLP.part.repulsive>
0.4144

> <Gold.PLP.ligand.clash>
1.0280

> <Gold.PLP.ligand.torsion>
0.3046

> <Gold.PLP.Chemscore.Hbond>
2.1244

> <Gold.PLP.Chemscore.CHOScore>
0.0000

> <Gold.PLP.Chemscore.Metal>
0.0000

> <Gold.Chemscore.Hbonds>
donor molecule, donor type, donor heavy atom, donor atom, acceptor molecule, acceptor atom, score
      L1  H     8    22       P1  2546  0.06
      P1  H   552   557       L1    11  0.24

> <Gold.PLP.Chemscore.Internal.Correction>
   9.000000E+99

