#       Name:                CT1002167954
#       Creating user name   hitesit
#       Creation time:       Sun Apr 16 22:50:35 2023


#       File generated by GOLD software.
#

@<TRIPOS>MOLECULE
CT1002167954|ligand_prepared|mol2|1|dock2
    29    30     1
SMALL
NO_CHARGES


@<TRIPOS>ATOM
      1 C1          22.3251   9.3112  -3.0076 C.3            1 RES1               0.0000
      2 C2          22.7475  10.6415  -2.3513 C.ar           1 RES1               0.0000
      3 C3          21.0491   9.6060  -3.7907 C.2            1 RES1               0.0000
      4 C4          23.4996   8.8713  -3.8746 C.2            1 RES1               0.0000
      5 C5          22.0295   8.1809  -1.9944 C.3            1 RES1               0.0000
      6 C6          23.0295  11.7586  -3.1320 C.ar           1 RES1               0.0000
      7 C7          22.8569  10.7675  -0.9690 C.ar           1 RES1               0.0000
      8 N8          21.1417   9.6655  -5.1501 N.am           1 RES1               0.0000
      9 O9          19.9860   9.8220  -3.2222 O.2            1 RES1               0.0000
     10 N10         23.3177   8.8360  -5.2323 N.am           1 RES1               0.0000
     11 O11         24.5861   8.5710  -3.3953 O.2            1 RES1               0.0000
     12 C12         21.5905   6.8768  -2.6415 C.3            1 RES1               0.0000
     13 C13         23.4043  12.9590  -2.5517 C.ar           1 RES1               0.0000
     14 C14         23.2321  11.9689  -0.3908 C.ar           1 RES1               0.0000
     15 C15         22.2015   9.2426  -5.9113 C.2            1 RES1               0.0000
     16 C16         23.5054  13.0652  -1.1809 C.ar           1 RES1               0.0000
     17 O17         22.1331   9.2321  -7.1371 O.2            1 RES1               0.0000
     18 H18         22.9327   7.9939  -1.4005 H              1 RES1               0.0000
     19 H19         21.2416   8.5178  -1.3094 H              1 RES1               0.0000
     20 H20         22.9576  11.6934  -4.2125 H              1 RES1               0.0000
     21 H21         22.6477   9.9180  -0.3278 H              1 RES1               0.0000
     22 H22         20.3496  10.0611  -5.6465 H              1 RES1               0.0000
     23 H23         24.0854   8.4728  -5.7882 H              1 RES1               0.0000
     24 H24         21.3960   6.1179  -1.8865 H              1 RES1               0.0000
     25 H25         20.6802   7.0204  -3.2199 H              1 RES1               0.0000
     26 H26         22.3612   6.4996  -3.3105 H              1 RES1               0.0000
     27 H27         23.6196  13.8185  -3.1779 H              1 RES1               0.0000
     28 H28         23.3110  12.0477   0.6885 H              1 RES1               0.0000
     29 H29         23.7987  14.0058  -0.7265 H              1 RES1               0.0000
@<TRIPOS>BOND
    1    1    2 1     
    2    1    3 1     
    3    1    4 1     
    4    1    5 1     
    5    2    6 ar    
    6    2    7 ar    
    7    3    8 1     
    8    3    9 2     
    9    4   10 1     
   10    4   11 2     
   11    5   12 1     
   12    5   18 1     
   13    5   19 1     
   14    6   13 ar    
   15    6   20 1     
   16    7   14 ar    
   17    7   21 1     
   18    8   15 1     
   19    8   22 1     
   20   10   15 1     
   21   10   23 1     
   22   12   24 1     
   23   12   25 1     
   24   12   26 1     
   25   13   16 ar    
   26   13   27 1     
   27   14   16 ar    
   28   14   28 1     
   29   15   17 2     
   30   16   29 1     
@<TRIPOS>SUBSTRUCTURE
      1 RES1           1
@<TRIPOS>SET
DONOR_HYDROGENS      STATIC     ATOMS    <user>   **** ""
2 22 23
ATOM$RED        STATIC     ATOMS    COLORGROUP SYSTEM
2 22 23
@<TRIPOS>COMMENT
> <Gold.Version>
2022.3.0

> <Gold.Id.Protein>
unknown|3oog_clean|pdb

> <Gold.Protein.RotatedTorsions>
[ 3557 3548 3547 3545 ] final   23.51 input   60.02 | X-H torsion
[ 3477 3468 3467 3465 ] final -161.52 input   60.01 | X-H torsion
[ 3738 3729 3728 3726 ] final -139.12 input   59.99 | X-H torsion
[ 3042 3035 3033 3030 ] final   35.23 input   59.98 | X-H torsion
[ 4996 4987 4986 4984 ] final -133.01 input   60.02 | X-H torsion
[ 2507 2496 2495 2494 ] final  -18.50 input   60.00 | X-H torsion
[ 1848 1843 1842 1839 ] final   72.48 input   60.03 | X-H torsion
[ 3090 3083 3082 3080 ] final -130.95 input   60.01 | X-H torsion
[  557  552  551  548 ] final   22.61 input   60.01 | X-H torsion

> <Gold.Protein.ActiveResidues>
 LEU49   GLY50   THR51   GLY52   SER53   PHE54   LEU82   GLN84   HIS87   GLY126 
 GLU127  MET128  PHE129  SER130  HIS131  LEU132  ARG133  ARG134  ILE135  GLY136 
 ARG137  ARG165  ASP166  LEU167  LYS168  PRO169  GLU170  ASN171  LEU173  ASP184 
 GLY186  PHE187  TPO197  LEU198  CYS199  GLY200  THR201  PRO202  GLU203  TYR204 
 LEU205  ILE209  ILE210  VAL226  LEU227  TYR229  GLU230  ALA233  GLY234  TYR235 
 PRO236  PRO237  PHE238  PHE239  ALA240  ASP241  GLN242  PRO243  ILE244  GLN245 
 ILE246  TYR247  ARG256  PHE257  PRO258  SER259  ASN326  PHE327  ASP328  ASP329 
 TYR330 

> <Gold.Protein.RotatedAtoms>
   18.4364   13.0472    2.0967 H   0  0  0  0  0  0  0  0  0  0  0  0  # atno 557  bound_to 552 
   25.8650    4.6221  -10.9731 H   0  0  0  0  0  0  0  0  0  0  0  0  # atno 1848 bound_to 1843
   18.3783    3.4610   -1.0248 H   0  0  0  0  0  0  0  0  0  0  0  0  # atno 2507 bound_to 2496
   19.0824    4.2397    0.2573 H   0  0  0  0  0  0  0  0  0  0  0  0  # atno 2508 bound_to 2496
   19.1065    4.9333   -1.2489 H   0  0  0  0  0  0  0  0  0  0  0  0  # atno 2509 bound_to 2496
   17.5957    2.4541    1.6260 H   0  0  0  0  0  0  0  0  0  0  0  0  # atno 3042 bound_to 3035
   21.1569   -5.4819   -3.6118 H   0  0  0  0  0  0  0  0  0  0  0  0  # atno 3090 bound_to 3083
   15.6070  -14.8916   -7.0076 H   0  0  0  0  0  0  0  0  0  0  0  0  # atno 3477 bound_to 3468
   15.2654  -14.0460  -11.4078 H   0  0  0  0  0  0  0  0  0  0  0  0  # atno 3557 bound_to 3548
    8.8507    0.8828    3.4536 H   0  0  0  0  0  0  0  0  0  0  0  0  # atno 3738 bound_to 3729
   21.7865   10.1112   -9.6846 H   0  0  0  0  0  0  0  0  0  0  0  0  # atno 4996 bound_to 4987
   16.8609  -14.1028  -11.7236 LP  0  0  0  0  0  0  0  0  0  0  0  0  # atno 5299 bound_to 3548
   15.7987  -13.7926  -12.9244 LP  0  0  0  0  0  0  0  0  0  0  0  0  # atno 5300 bound_to 3548
   16.3544  -14.4558   -8.3860 LP  0  0  0  0  0  0  0  0  0  0  0  0  # atno 5307 bound_to 3468
   15.3336  -13.4191   -7.6444 LP  0  0  0  0  0  0  0  0  0  0  0  0  # atno 5308 bound_to 3468
    8.8574    0.7368    1.8331 LP  0  0  0  0  0  0  0  0  0  0  0  0  # atno 5361 bound_to 3729
   10.1529    0.2580    2.7044 LP  0  0  0  0  0  0  0  0  0  0  0  0  # atno 5362 bound_to 3729
   17.1020    2.9717    0.1647 LP  0  0  0  0  0  0  0  0  0  0  0  0  # atno 5363 bound_to 3035
   18.4982    2.1374    0.3098 LP  0  0  0  0  0  0  0  0  0  0  0  0  # atno 5364 bound_to 3035
   22.6650   10.4627   -8.3610 LP  0  0  0  0  0  0  0  0  0  0  0  0  # atno 5373 bound_to 4987
   23.4109   10.1303   -9.7751 LP  0  0  0  0  0  0  0  0  0  0  0  0  # atno 5374 bound_to 4987
   24.8325    4.7949  -12.2194 LP  0  0  0  0  0  0  0  0  0  0  0  0  # atno 5381 bound_to 1843
   26.2300    5.6391  -12.1903 LP  0  0  0  0  0  0  0  0  0  0  0  0  # atno 5382 bound_to 1843
   21.9355   -4.0553   -3.5279 LP  0  0  0  0  0  0  0  0  0  0  0  0  # atno 5411 bound_to 3083
   20.5192   -4.1696   -4.3326 LP  0  0  0  0  0  0  0  0  0  0  0  0  # atno 5412 bound_to 3083
   17.9352   11.5251    1.8146 LP  0  0  0  0  0  0  0  0  0  0  0  0  # atno 5419 bound_to 552 
   17.7198   12.1992    3.2863 LP  0  0  0  0  0  0  0  0  0  0  0  0  # atno 5420 bound_to 552 

> <Gold.Score>
     Fitness  S(hb_ext) S(vdw_ext)  S(hb_int)    S(int)      intcor
     30.44       3.64      19.50       0.00      -0.01      -0.79

> <Gold.Goldscore.Fitness>
30.4377

> <Gold.Goldscore.Internal.Vdw>
-0.4297

> <Gold.Goldscore.Internal.Torsion>
-0.3691

> <Gold.Goldscore.External.Vdw>
19.5024

> <Gold.Goldscore.Internal.HBond>
0.0000

> <Gold.Goldscore.External.HBond>
3.6357

> <Gold.Goldscore.Internal.Correction>
-0.7850

> <Gold.Goldscore.Hbonds>
donor molecule, donor type, donor heavy atom, donor atom, acceptor molecule, acceptor atom, score
      L1  H    10    23       P1  1794  0.61

> <Gold.Goldscore.Internal.Vdw.Weighted>
-0.4297

> <Gold.Goldscore.Internal.Torsion.Weighted>
-0.3691

> <Gold.Goldscore.External.Vdw.Weighted>
26.8158

> <Gold.Goldscore.Internal.HBond.Weighted>
0.0000

> <Gold.Goldscore.External.HBond.Weighted>
3.6357

> <Gold.Goldscore.Internal.Correction.Weighted>
-0.7850

> <Gold.Rescore>
     Score     S(PLP)   S(hbond)     S(cho)   S(metal)  DE(clash)   DE(tors)     intcor
     30.80     -27.96       1.02       0.00       0.00       0.00       0.11       ----

> <Gold.PLP.Fitness>
30.7980

> <Gold.PLP.PLP>
-27.9570

> <Gold.PLP.part.hbond>
-3.0000

> <Gold.PLP.part.metal>
0.0000

> <Gold.PLP.part.buried>
-4.1911

> <Gold.PLP.part.nonpolar>
-22.2278

> <Gold.PLP.part.repulsive>
0.7531

> <Gold.PLP.ligand.clash>
0.0000

> <Gold.PLP.ligand.torsion>
0.1052

> <Gold.PLP.Chemscore.Hbond>
1.0172

> <Gold.PLP.Chemscore.CHOScore>
0.0000

> <Gold.PLP.Chemscore.Metal>
0.0000

> <Gold.Chemscore.Hbonds>
donor molecule, donor type, donor heavy atom, donor atom, acceptor molecule, acceptor atom, score
      L1  H    10    23       P1  1794  0.83

> <Gold.PLP.Chemscore.Internal.Correction>
   9.000000E+99

