@<TRIPOS>MOLECULE
B:Q1T800
    49    50     1     0     1
SMALL
NO_CHARGES
****
Generated from the CSD

@<TRIPOS>ATOM
     1 N01    118.1290 244.7130 324.6810   N.ar      1 Q1T800   0.0000
     2 C02    119.3290 244.6210 324.0830   C.ar      1 Q1T800   0.0000
     3 N02    120.2210 243.7220 324.5730   N.pl3     1 Q1T800   0.0000
     4 C03    119.6200 245.4410 322.9880   C.ar      1 Q1T800   0.0000
     5 C04    118.6510 246.3410 322.5440   C.ar      1 Q1T800   0.0000
     6 C05    117.4330 246.4150 323.1920   C.ar      1 Q1T800   0.0000
     7 C06    117.1960 245.5880 324.2800   C.ar      1 Q1T800   0.0000
     8 C07    118.8930 247.2580 321.3760   C.3       1 Q1T800   0.0000
     9 C08    115.8610 245.6060 324.9730   C.3       1 Q1T800   0.0000
    10 C09    115.0990 244.4980 324.2380   C.3       1 Q1T800   0.0000
    11 C11    113.7840 244.1960 324.9060   C.ar      1 Q1T800   0.0000
    12 C12    112.6120 244.4620 324.2130   C.ar      1 Q1T800   0.0000
    13 C13    111.3860 244.1930 324.8020   C.ar      1 Q1T800   0.0000
    14 C14    111.3260 243.6490 326.0880   C.ar      1 Q1T800   0.0000
    15 C15    112.5070 243.3710 326.7900   C.ar      1 Q1T800   0.0000
    16 C16    113.7400 243.6450 326.1920   C.ar      1 Q1T800   0.0000
    17 C17    110.3110 244.4670 324.1380   C.1       1 Q1T800   0.0000
    18 N18    109.3230 244.7170 323.5690   N.1       1 Q1T800   0.0000
    19 C19    113.6390 242.2020 328.6960   C.3       1 Q1T800   0.0000
    20 N19    112.4550 242.8180 328.0890   N.pl3     1 Q1T800   0.0000
    21 C20    111.1860 242.8470 328.8250   C.3       1 Q1T800   0.0000
    22 C21    111.4030 243.6640 330.0970   C.3       1 Q1T800   0.0000
    23 N22    111.6270 245.0710 329.7970   N.3       1 Q1T800   0.0000
    24 C23    110.5870 245.8900 329.1930   C.3       1 Q1T800   0.0000
    25 H1     114.4362 242.9405 328.7673   H         1 Q1T800   0.0000
    26 H2     113.3894 241.8399 329.6923   H         1 Q1T800   0.0000
    27 H3     113.9708 241.3681 328.0793   H         1 Q1T800   0.0000
    28 H4     116.6692 247.1133 322.8530   H         1 Q1T800   0.0000
    29 H5     115.3678 246.5697 324.8547   H         1 Q1T800   0.0000
    30 H6     115.9634 245.3784 326.0330   H         1 Q1T800   0.0000
    31 H7     112.2712 243.2724 330.6250   H         1 Q1T800   0.0000
    32 H8     110.5217 243.5734 330.7302   H         1 Q1T800   0.0000
    33 H9     120.5866 245.3780 322.4904   H         1 Q1T800   0.0000
    34 H10    121.1357 243.6288 324.1431   H         1 Q1T800   0.0000
    35 H11    119.9730 243.1433 325.3691   H         1 Q1T800   0.0000
    36 H12    110.3600 243.4407 326.5455   H         1 Q1T800   0.0000
    37 H13    109.7153 245.9091 329.8454   H         1 Q1T800   0.0000
    38 H14    110.9586 246.9041 329.0539   H         1 Q1T800   0.0000
    39 H15    110.3088 245.4697 328.2277   H         1 Q1T800   0.0000
    40 H16    112.4228 245.1074 329.1681   H         1 Q1T800   0.0000
    41 H17    114.6648 243.4303 326.7255   H         1 Q1T800   0.0000
    42 H18    112.6548 244.8811 323.2088   H         1 Q1T800   0.0000
    43 H19    119.1014 246.6655 320.4864   H         1 Q1T800   0.0000
    44 H20    118.0084 247.8699 321.2055   H         1 Q1T800   0.0000
    45 H21    119.7443 247.9023 321.5907   H         1 Q1T800   0.0000
    46 H22    115.7077 243.5950 324.2304   H         1 Q1T800   0.0000
    47 H23    114.9106 244.8174 323.2141   H         1 Q1T800   0.0000
    48 H24    110.8840 241.8330 329.0829   H         1 Q1T800   0.0000
    49 H25    110.4136 243.3113 328.2136   H         1 Q1T800   0.0000
@<TRIPOS>BOND
     1     1     2   ar
     2     2     3    1
     3     2     4   ar
     4     4     5   ar
     5     5     6   ar
     6     1     7   ar
     7     6     7   ar
     8     5     8    1
     9     7     9    1
    10     9    10    1
    11    10    11    1
    12    11    12   ar
    13    12    13   ar
    14    13    14   ar
    15    14    15   ar
    16    11    16   ar
    17    15    16   ar
    18    13    17    1
    19    17    18    3
    20    15    20    1
    21    19    20    1
    22    20    21    1
    23    21    22    1
    24    22    23    1
    25    23    24    1
    26    19    25    1
    27    19    26    1
    28    19    27    1
    29     6    28    1
    30     9    29    1
    31     9    30    1
    32    22    31    1
    33    22    32    1
    34     4    33    1
    35     3    34    1
    36     3    35    1
    37    14    36    1
    38    24    37    1
    39    24    38    1
    40    24    39    1
    41    23    40    1
    42    16    41    1
    43    12    42    1
    44     8    43    1
    45     8    44    1
    46     8    45    1
    47    10    46    1
    48    10    47    1
    49    21    48    1
    50    21    49    1
@<TRIPOS>SUBSTRUCTURE
     1 Q1T800      1 GROUP             0 B     Q1T     0  
@<TRIPOS>SET
CCDC_LIGAND STATIC ATOMS
49 1 2 3 4 5 6 7 8 9 \
10 11 12 13 14 15 16 17 18 19 \
20 21 22 23 24 25 26 27 28 29 \
30 31 32 33 34 35 36 37 38 39 \
40 41 42 43 44 45 46 47 48 49 
