@<TRIPOS>MOLECULE
A:Q1T800
    49    50     1     0     1
SMALL
NO_CHARGES
****
Generated from the CSD

@<TRIPOS>ATOM
     1 N01    117.5640 245.0910 359.1060   N.ar      1 Q1T800   0.0000
     2 C02    116.4830 244.4930 359.6500   C.ar      1 Q1T800   0.0000
     3 N02    116.0440 243.3170 359.1460   N.pl3     1 Q1T800   0.0000
     4 C03    115.8270 245.0920 360.7230   C.ar      1 Q1T800   0.0000
     5 C04    116.3100 246.2990 361.2180   C.ar      1 Q1T800   0.0000
     6 C05    117.4200 246.8950 360.6360   C.ar      1 Q1T800   0.0000
     7 C06    118.0370 246.2680 359.5620   C.ar      1 Q1T800   0.0000
     8 C07    115.6230 246.9740 362.3660   C.3       1 Q1T800   0.0000
     9 C08    119.2770 246.8680 358.9380   C.3       1 Q1T800   0.0000
    10 C09    120.4250 246.1220 359.6370   C.3       1 Q1T800   0.0000
    11 C11    121.7710 246.4810 359.0340   C.ar      1 Q1T800   0.0000
    12 C12    122.6830 247.2540 359.7410   C.ar      1 Q1T800   0.0000
    13 C13    123.9150 247.5690 359.1830   C.ar      1 Q1T800   0.0000
    14 C14    124.2600 247.1180 357.8800   C.ar      1 Q1T800   0.0000
    15 C15    123.3370 246.3310 357.1740   C.ar      1 Q1T800   0.0000
    16 C16    122.1080 246.0210 357.7610   C.ar      1 Q1T800   0.0000
    17 C17    124.7110 248.3230 359.8780   C.1       1 Q1T800   0.0000
    18 N18    125.4820 248.9630 360.4770   N.1       1 Q1T800   0.0000
    19 C19    122.7710 244.6770 355.4180   C.3       1 Q1T800   0.0000
    20 N19    123.5790 245.8060 355.8870   N.pl3     1 Q1T800   0.0000
    21 C20    124.6300 246.3330 355.0200   C.3       1 Q1T800   0.0000
    22 C21    123.9310 246.8020 353.7460   C.3       1 Q1T800   0.0000
    23 N22    123.3310 248.1080 353.9380   N.3       1 Q1T800   0.0000
    24 C23    124.0480 249.1300 354.6910   C.3       1 Q1T800   0.0000
    25 H1     121.7205 244.9637 355.4033   H         1 Q1T800   0.0000
    26 H2     123.0853 244.3983 354.4133   H         1 Q1T800   0.0000
    27 H3     122.9068 243.8300 356.0889   H         1 Q1T800   0.0000
    28 H4     117.8017 247.8413 361.0165   H         1 Q1T800   0.0000
    29 H5     115.6321 246.3149 363.2328   H         1 Q1T800   0.0000
    30 H6     116.1443 247.8991 362.6079   H         1 Q1T800   0.0000
    31 H7     114.5934 247.1986 362.0916   H         1 Q1T800   0.0000
    32 H8     124.9969 249.3432 354.2010   H         1 Q1T800   0.0000
    33 H9     123.4485 250.0382 354.7320   H         1 Q1T800   0.0000
    34 H10    124.2341 248.7720 355.7025   H         1 Q1T800   0.0000
    35 H11    114.9502 244.6230 361.1671   H         1 Q1T800   0.0000
    36 H12    122.4468 247.9584 354.4135   H         1 Q1T800   0.0000
    37 H13    115.2317 242.8629 359.5511   H         1 Q1T800   0.0000
    38 H14    116.5269 242.8887 358.3627   H         1 Q1T800   0.0000
    39 H15    122.4309 247.6146 360.7372   H         1 Q1T800   0.0000
    40 H16    121.3965 245.4059 357.2121   H         1 Q1T800   0.0000
    41 H17    123.1530 246.0872 353.4819   H         1 Q1T800   0.0000
    42 H18    124.6602 246.8594 352.9393   H         1 Q1T800   0.0000
    43 H19    125.3552 245.5542 354.7886   H         1 Q1T800   0.0000
    44 H20    125.1355 247.1678 355.5032   H         1 Q1T800   0.0000
    45 H21    120.2654 245.0498 359.5329   H         1 Q1T800   0.0000
    46 H22    120.4283 246.3877 360.6931   H         1 Q1T800   0.0000
    47 H23    119.3322 247.9381 359.1326   H         1 Q1T800   0.0000
    48 H24    119.2960 246.6930 357.8633   H         1 Q1T800   0.0000
    49 H25    125.2210 247.3778 357.4385   H         1 Q1T800   0.0000
@<TRIPOS>BOND
     1     1     2   ar
     2     2     3    1
     3     2     4   ar
     4     4     5   ar
     5     5     6   ar
     6     1     7   ar
     7     6     7   ar
     8     5     8    1
     9     7     9    1
    10     9    10    1
    11    10    11    1
    12    11    12   ar
    13    12    13   ar
    14    13    14   ar
    15    14    15   ar
    16    11    16   ar
    17    15    16   ar
    18    13    17    1
    19    17    18    3
    20    15    20    1
    21    19    20    1
    22    20    21    1
    23    21    22    1
    24    22    23    1
    25    23    24    1
    26    19    25    1
    27    19    26    1
    28    19    27    1
    29     6    28    1
    30     8    29    1
    31     8    30    1
    32     8    31    1
    33    24    32    1
    34    24    33    1
    35    24    34    1
    36     4    35    1
    37    23    36    1
    38     3    37    1
    39     3    38    1
    40    12    39    1
    41    16    40    1
    42    22    41    1
    43    22    42    1
    44    21    43    1
    45    21    44    1
    46    10    45    1
    47    10    46    1
    48     9    47    1
    49     9    48    1
    50    14    49    1
@<TRIPOS>SUBSTRUCTURE
     1 Q1T800      1 GROUP             0 A     Q1T     0  
@<TRIPOS>SET
CCDC_LIGAND STATIC ATOMS
49 1 2 3 4 5 6 7 8 9 \
10 11 12 13 14 15 16 17 18 19 \
20 21 22 23 24 25 26 27 28 29 \
30 31 32 33 34 35 36 37 38 39 \
40 41 42 43 44 45 46 47 48 49 
