#       Name:                CT1002167954
#       Creating user name   hitesit
#       Creation time:       Sun Apr 16 22:51:07 2023


#       File generated by GOLD software.
#

@<TRIPOS>MOLECULE
CT1002167954|ligand_prepared|mol2|1|dock2
    29    30     1
SMALL
NO_CHARGES


@<TRIPOS>ATOM
      1 C1         117.6982 245.7855 359.5574 C.3            1 RES1               0.0000
      2 C2         118.4415 246.9667 358.9007 C.ar           1 RES1               0.0000
      3 C3         118.4893 245.4255 360.8115 C.2            1 RES1               0.0000
      4 C4         116.2810 246.2746 359.8348 C.2            1 RES1               0.0000
      5 C5         117.6032 244.5302 358.6593 C.3            1 RES1               0.0000
      6 C6         118.1173 248.2793 359.2305 C.ar           1 RES1               0.0000
      7 C7         119.4536 246.7598 357.9672 C.ar           1 RES1               0.0000
      8 N8         117.9564 245.7759 362.0170 N.am           1 RES1               0.0000
      9 O9         119.5826 244.8778 360.7421 O.2            1 RES1               0.0000
     10 N10        115.8860 246.3905 361.1418 N.am           1 RES1               0.0000
     11 O11        115.5082 246.5764 358.9336 O.2            1 RES1               0.0000
     12 C12        116.6400 243.4751 359.1801 C.3            1 RES1               0.0000
     13 C13        118.7828 249.3464 358.6503 C.ar           1 RES1               0.0000
     14 C14        120.1177 247.8285 357.3880 C.ar           1 RES1               0.0000
     15 C15        116.6697 246.1927 362.2459 C.2            1 RES1               0.0000
     16 C16        119.7836 249.1218 357.7291 C.ar           1 RES1               0.0000
     17 O17        116.2581 246.3698 363.3889 O.2            1 RES1               0.0000
     18 H18        117.2821 244.8371 357.6563 H              1 RES1               0.0000
     19 H19        118.6012 244.0836 358.5699 H              1 RES1               0.0000
     20 H20        117.3308 248.4756 359.9516 H              1 RES1               0.0000
     21 H21        119.7325 245.7509 357.6828 H              1 RES1               0.0000
     22 H22        118.5714 245.7233 362.8227 H              1 RES1               0.0000
     23 H23        114.9182 246.6481 361.3070 H              1 RES1               0.0000
     24 H24        116.6113 242.6161 358.5131 H              1 RES1               0.0000
     25 H25        116.9435 243.1288 360.1659 H              1 RES1               0.0000
     26 H26        115.6321 243.8777 359.2577 H              1 RES1               0.0000
     27 H27        118.5152 250.3624 358.9211 H              1 RES1               0.0000
     28 H28        120.9042 247.6470 356.6630 H              1 RES1               0.0000
     29 H29        120.3050 249.9580 357.2750 H              1 RES1               0.0000
@<TRIPOS>BOND
    1    1    2 1     
    2    1    3 1     
    3    1    4 1     
    4    1    5 1     
    5    2    6 ar    
    6    2    7 ar    
    7    3    8 1     
    8    3    9 2     
    9    4   10 1     
   10    4   11 2     
   11    5   12 1     
   12    5   18 1     
   13    5   19 1     
   14    6   13 ar    
   15    6   20 1     
   16    7   14 ar    
   17    7   21 1     
   18    8   15 1     
   19    8   22 1     
   20   10   15 1     
   21   10   23 1     
   22   12   24 1     
   23   12   25 1     
   24   12   26 1     
   25   13   16 ar    
   26   13   27 1     
   27   14   16 ar    
   28   14   28 1     
   29   15   17 2     
   30   16   29 1     
@<TRIPOS>SUBSTRUCTURE
      1 RES1           1
@<TRIPOS>SET
DONOR_HYDROGENS      STATIC     ATOMS    <user>   **** ""
2 22 23
ATOM$RED        STATIC     ATOMS    COLORGROUP SYSTEM
2 22 23
@<TRIPOS>COMMENT
> <Gold.Version>
2022.3.0

> <Gold.Id.Protein>
unknown|5adf_clean|pdb

> <Gold.Protein.RotatedTorsions>
[ 9091 9061 9060 9058 ] final  -47.65 input   60.03 | X-H torsion
[ 8987 8971 8970 8967 ] final  152.30 input   59.98 | X-H torsion
[ 12876 12851 12850 12848 ] final  -97.44 input   59.99 | X-H torsion
[ 5555 5539 5538 5535 ] final -165.71 input   60.00 | X-H torsion
[ 8337 8307 8306 8304 ] final  178.21 input   59.97 | X-H torsion
[ 8491 8475 8474 8471 ] final -137.07 input   60.02 | X-H torsion

> <Gold.Protein.ActiveResidues>
 MET341  HIS342  TRP414  ALA417  ARG419  CYS420  VAL421  GLY422  LEU460  SER462 
 ASN481  SER482  GLN483  LEU484  ARG486  ALA502  ASN503  TRP566  TYR567  GLY568 
 LEU569  PRO570  ALA571  VAL572  SER573  ASN574  MET575  LEU576  PHE589  SER590 
 GLY591  TRP592  TYR593  MET594  GLY595  GLU597  ILE598  ARG601  ASP602  ARG608 
 ILE653  VAL654  TRP683  PHE709  GLU710  TYR711  GLN712  ASP714  HEM750  H4B760 

> <Gold.Protein.RotatedAtoms>
  128.4764  248.8717  361.5354 H   0  0  0  0  0  0  0  0  0  0  0  0  # atno 5555 bound_to 5539
  126.5261  241.7172  361.7086 H   0  0  0  0  0  0  0  0  0  0  0  0  # atno 8337 bound_to 8307
  124.5592  249.3529  367.0860 H   0  0  0  0  0  0  0  0  0  0  0  0  # atno 8491 bound_to 8475
  115.9961  243.4703  368.5068 H   0  0  0  0  0  0  0  0  0  0  0  0  # atno 8987 bound_to 8971
  123.4757  240.5784  359.9857 H   0  0  0  0  0  0  0  0  0  0  0  0  # atno 9091 bound_to 9061
  121.8409  253.6863  354.0018 H   0  0  0  0  0  0  0  0  0  0  0  0  # atno 12876 bound_to 12851
  123.3224  240.0529  361.5184 LP  0  0  0  0  0  0  0  0  0  0  0  0  # atno 13471 bound_to 9061
  122.6491  241.4706  361.0671 LP  0  0  0  0  0  0  0  0  0  0  0  0  # atno 13472 bound_to 9061
  114.8561  244.3757  367.7797 LP  0  0  0  0  0  0  0  0  0  0  0  0  # atno 13487 bound_to 8971
  116.0286  245.0897  368.6641 LP  0  0  0  0  0  0  0  0  0  0  0  0  # atno 13488 bound_to 8971
  120.2910  254.1496  353.8259 LP  0  0  0  0  0  0  0  0  0  0  0  0  # atno 13503 bound_to 12851
  120.7344  253.2421  355.1090 LP  0  0  0  0  0  0  0  0  0  0  0  0  # atno 13504 bound_to 12851
  127.1567  248.2349  362.2430 LP  0  0  0  0  0  0  0  0  0  0  0  0  # atno 13506 bound_to 5539
  128.3866  248.7970  363.1584 LP  0  0  0  0  0  0  0  0  0  0  0  0  # atno 13507 bound_to 5539
  125.3848  242.5533  362.5127 LP  0  0  0  0  0  0  0  0  0  0  0  0  # atno 13510 bound_to 8307
  124.9697  241.6101  361.2459 LP  0  0  0  0  0  0  0  0  0  0  0  0  # atno 13511 bound_to 8307
  124.8944  250.9379  367.2384 LP  0  0  0  0  0  0  0  0  0  0  0  0  # atno 13522 bound_to 8475
  124.2811  250.3609  365.8393 LP  0  0  0  0  0  0  0  0  0  0  0  0  # atno 13523 bound_to 8475

> <Gold.Score>
     Fitness  S(hb_ext) S(vdw_ext)  S(hb_int)    S(int)      intcor
     58.90      10.24      35.71       0.00      -0.44      -0.79

> <Gold.Goldscore.Fitness>
58.9003

> <Gold.Goldscore.Internal.Vdw>
-0.6461

> <Gold.Goldscore.Internal.Torsion>
-0.5796

> <Gold.Goldscore.External.Vdw>
35.7113

> <Gold.Goldscore.Internal.HBond>
0.0000

> <Gold.Goldscore.External.HBond>
10.2371

> <Gold.Goldscore.Internal.Correction>
-0.7859

> <Gold.Goldscore.Hbonds>
donor molecule, donor type, donor heavy atom, donor atom, acceptor molecule, acceptor atom, score
      P1  H  8438  8461       L1    17  0.12
      P1  M 13283 13537       L1    11  1.00

> <Gold.Goldscore.Internal.Vdw.Weighted>
-0.6461

> <Gold.Goldscore.Internal.Torsion.Weighted>
-0.5796

> <Gold.Goldscore.External.Vdw.Weighted>
49.1030

> <Gold.Goldscore.Internal.HBond.Weighted>
0.0000

> <Gold.Goldscore.External.HBond.Weighted>
10.2371

> <Gold.Goldscore.Internal.Correction.Weighted>
-0.7859

> <Gold.Rescore>
     Score     S(PLP)   S(hbond)     S(cho)   S(metal)  DE(clash)   DE(tors)     intcor
     49.80     -44.81       0.59       0.00       1.00       1.85       0.46       ----

> <Gold.PLP.Fitness>
49.7995

> <Gold.PLP.PLP>
-44.8125

> <Gold.PLP.part.hbond>
-1.7586

> <Gold.PLP.part.metal>
-1.0000

> <Gold.PLP.part.buried>
6.9981

> <Gold.PLP.part.nonpolar>
-58.3848

> <Gold.PLP.part.repulsive>
6.2689

> <Gold.PLP.ligand.clash>
1.8473

> <Gold.PLP.ligand.torsion>
0.4603

> <Gold.PLP.Chemscore.Hbond>
0.5850

> <Gold.PLP.Chemscore.CHOScore>
0.0000

> <Gold.PLP.Chemscore.Metal>
1.0000

> <Gold.Chemscore.Hbonds>
donor molecule, donor type, donor heavy atom, donor atom, acceptor molecule, acceptor atom, score
      P1  M 13283 13283       L1    11  1.00

> <Gold.PLP.Chemscore.Internal.Correction>
   9.000000E+99

#       Name:                CT1002167954
#       Creating user name   hitesit
#       Creation time:       Sun Apr 16 22:51:08 2023


#       File generated by GOLD software.
#

@<TRIPOS>MOLECULE
CT1002167954|ligand_prepared|mol2|1|dock3
    29    30     1
SMALL
NO_CHARGES


@<TRIPOS>ATOM
      1 C1         117.7596 245.4305 359.6988 C.3            1 RES1               0.0000
      2 C2         118.4547 246.5950 358.9642 C.ar           1 RES1               0.0000
      3 C3         118.4046 245.3489 361.0792 C.2            1 RES1               0.0000
      4 C4         116.2733 245.7694 359.7255 C.2            1 RES1               0.0000
      5 C5         117.9250 244.0620 358.9977 C.3            1 RES1               0.0000
      6 C6         119.5091 246.3522 358.0891 C.ar           1 RES1               0.0000
      7 C7         118.0516 247.9148 359.1492 C.ar           1 RES1               0.0000
      8 N8         117.6761 245.7909 362.1441 N.am           1 RES1               0.0000
      9 O9         119.5497 244.9398 361.2264 O.2            1 RES1               0.0000
     10 N10        115.6920 246.0125 360.9424 N.am           1 RES1               0.0000
     11 O11        115.6041 245.8445 358.7024 O.2            1 RES1               0.0000
     12 C12        116.8892 243.0301 359.4152 C.3            1 RES1               0.0000
     13 C13        120.1360 247.3907 357.4207 C.ar           1 RES1               0.0000
     14 C14        118.6800 248.9520 358.4799 C.ar           1 RES1               0.0000
     15 C15        116.3328 246.0688 362.1501 C.2            1 RES1               0.0000
     16 C16        119.7217 248.6911 357.6153 C.ar           1 RES1               0.0000
     17 O17        115.7511 246.3473 363.1946 O.2            1 RES1               0.0000
     18 H18        117.8580 244.2107 357.9129 H              1 RES1               0.0000
     19 H19        118.9246 243.6693 359.2212 H              1 RES1               0.0000
     20 H20        119.8506 245.3355 357.9252 H              1 RES1               0.0000
     21 H21        117.2350 248.1438 359.8254 H              1 RES1               0.0000
     22 H22        118.1764 245.9275 363.0166 H              1 RES1               0.0000
     23 H23        114.6886 246.1656 360.9485 H              1 RES1               0.0000
     24 H24        117.0507 242.0888 358.8941 H              1 RES1               0.0000
     25 H25        116.9445 242.8390 360.4849 H              1 RES1               0.0000
     26 H26        115.8842 243.3771 359.1844 H              1 RES1               0.0000
     27 H27        120.9562 247.1803 356.7424 H              1 RES1               0.0000
     28 H28        118.3510 249.9740 358.6366 H              1 RES1               0.0000
     29 H29        120.2126 249.5045 357.0913 H              1 RES1               0.0000
@<TRIPOS>BOND
    1    1    2 1     
    2    1    3 1     
    3    1    4 1     
    4    1    5 1     
    5    2    6 ar    
    6    2    7 ar    
    7    3    8 1     
    8    3    9 2     
    9    4   10 1     
   10    4   11 2     
   11    5   12 1     
   12    5   18 1     
   13    5   19 1     
   14    6   13 ar    
   15    6   20 1     
   16    7   14 ar    
   17    7   21 1     
   18    8   15 1     
   19    8   22 1     
   20   10   15 1     
   21   10   23 1     
   22   12   24 1     
   23   12   25 1     
   24   12   26 1     
   25   13   16 ar    
   26   13   27 1     
   27   14   16 ar    
   28   14   28 1     
   29   15   17 2     
   30   16   29 1     
@<TRIPOS>SUBSTRUCTURE
      1 RES1           1
@<TRIPOS>SET
DONOR_HYDROGENS      STATIC     ATOMS    <user>   **** ""
2 22 23
ATOM$RED        STATIC     ATOMS    COLORGROUP SYSTEM
2 22 23
@<TRIPOS>COMMENT
> <Gold.Version>
2022.3.0

> <Gold.Id.Protein>
unknown|5adf_clean|pdb

> <Gold.Protein.RotatedTorsions>
[ 9091 9061 9060 9058 ] final -175.84 input   60.03 | X-H torsion
[ 8987 8971 8970 8967 ] final  150.90 input   59.98 | X-H torsion
[ 12876 12851 12850 12848 ] final   57.98 input   59.99 | X-H torsion
[ 5555 5539 5538 5535 ] final   38.13 input   60.00 | X-H torsion
[ 8337 8307 8306 8304 ] final   15.36 input   59.97 | X-H torsion
[ 8491 8475 8474 8471 ] final  144.01 input   60.02 | X-H torsion

> <Gold.Protein.ActiveResidues>
 MET341  HIS342  TRP414  ALA417  ARG419  CYS420  VAL421  GLY422  LEU460  SER462 
 ASN481  SER482  GLN483  LEU484  ARG486  ALA502  ASN503  TRP566  TYR567  GLY568 
 LEU569  PRO570  ALA571  VAL572  SER573  ASN574  MET575  LEU576  PHE589  SER590 
 GLY591  TRP592  TYR593  MET594  GLY595  GLU597  ILE598  ARG601  ASP602  ARG608 
 ILE653  VAL654  TRP683  PHE709  GLU710  TYR711  GLN712  ASP714  HEM750  H4B760 

> <Gold.Protein.RotatedAtoms>
  127.2932  248.2904  362.8072 H   0  0  0  0  0  0  0  0  0  0  0  0  # atno 5555 bound_to 5539
  124.8416  242.3485  362.1465 H   0  0  0  0  0  0  0  0  0  0  0  0  # atno 8337 bound_to 8307
  124.9184  250.3741  367.5796 H   0  0  0  0  0  0  0  0  0  0  0  0  # atno 8491 bound_to 8475
  115.9796  243.4605  368.4943 H   0  0  0  0  0  0  0  0  0  0  0  0  # atno 8987 bound_to 8971
  123.2493  240.1355  361.5956 H   0  0  0  0  0  0  0  0  0  0  0  0  # atno 9091 bound_to 9061
  120.2606  253.4852  354.9013 H   0  0  0  0  0  0  0  0  0  0  0  0  # atno 12876 bound_to 12851
  122.6672  241.5060  360.9385 LP  0  0  0  0  0  0  0  0  0  0  0  0  # atno 13471 bound_to 9061
  123.5321  240.4633  360.0266 LP  0  0  0  0  0  0  0  0  0  0  0  0  # atno 13472 bound_to 9061
  114.8568  244.3986  367.7820 LP  0  0  0  0  0  0  0  0  0  0  0  0  # atno 13487 bound_to 8971
  116.0446  245.0765  368.6743 LP  0  0  0  0  0  0  0  0  0  0  0  0  # atno 13488 bound_to 8971
  121.8303  253.3816  354.4852 LP  0  0  0  0  0  0  0  0  0  0  0  0  # atno 13503 bound_to 12851
  120.7862  254.2126  353.5440 LP  0  0  0  0  0  0  0  0  0  0  0  0  # atno 13504 bound_to 12851
  128.7647  248.9828  362.7520 LP  0  0  0  0  0  0  0  0  0  0  0  0  # atno 13506 bound_to 5539
  127.9706  248.6347  361.3682 LP  0  0  0  0  0  0  0  0  0  0  0  0  # atno 13507 bound_to 5539
  125.5964  241.3752  361.0829 LP  0  0  0  0  0  0  0  0  0  0  0  0  # atno 13510 bound_to 8307
  126.4546  242.1524  362.2346 LP  0  0  0  0  0  0  0  0  0  0  0  0  # atno 13511 bound_to 8307
  124.4808  250.9288  366.1137 LP  0  0  0  0  0  0  0  0  0  0  0  0  # atno 13522 bound_to 8475
  124.3327  249.3413  366.4669 LP  0  0  0  0  0  0  0  0  0  0  0  0  # atno 13523 bound_to 8475

> <Gold.Score>
     Fitness  S(hb_ext) S(vdw_ext)  S(hb_int)    S(int)      intcor
     50.56       6.36      33.14       0.00      -1.37      -0.79

> <Gold.Goldscore.Fitness>
50.5569

> <Gold.Goldscore.Internal.Vdw>
-1.2151

> <Gold.Goldscore.Internal.Torsion>
-0.9413

> <Gold.Goldscore.External.Vdw>
33.1379

> <Gold.Goldscore.Internal.HBond>
0.0000

> <Gold.Goldscore.External.HBond>
6.3636

> <Gold.Goldscore.Internal.Correction>
-0.7850

> <Gold.Goldscore.Hbonds>
donor molecule, donor type, donor heavy atom, donor atom, acceptor molecule, acceptor atom, score
      P1  M 13283 13537       L1    11  0.64

> <Gold.Goldscore.Internal.Vdw.Weighted>
-1.2151

> <Gold.Goldscore.Internal.Torsion.Weighted>
-0.9413

> <Gold.Goldscore.External.Vdw.Weighted>
45.5646

> <Gold.Goldscore.Internal.HBond.Weighted>
0.0000

> <Gold.Goldscore.External.HBond.Weighted>
6.3636

> <Gold.Goldscore.Internal.Correction.Weighted>
-0.7850

> <Gold.Rescore>
     Score     S(PLP)   S(hbond)     S(cho)   S(metal)  DE(clash)   DE(tors)     intcor
     50.63     -46.13       0.01       0.00       1.00       0.00       0.76       ----

> <Gold.PLP.Fitness>
50.6280

> <Gold.PLP.PLP>
-46.1344

> <Gold.PLP.part.hbond>
-3.0000

> <Gold.PLP.part.metal>
-0.8285

> <Gold.PLP.part.buried>
12.1149

> <Gold.PLP.part.nonpolar>
-59.1568

> <Gold.PLP.part.repulsive>
3.0811

> <Gold.PLP.ligand.clash>
0.0000

> <Gold.PLP.ligand.torsion>
0.7637

> <Gold.PLP.Chemscore.Hbond>
0.0070

> <Gold.PLP.Chemscore.CHOScore>
0.0000

> <Gold.PLP.Chemscore.Metal>
1.0000

> <Gold.Chemscore.Hbonds>
donor molecule, donor type, donor heavy atom, donor atom, acceptor molecule, acceptor atom, score
      P1  M 13283 13283       L1    11  1.00

> <Gold.PLP.Chemscore.Internal.Correction>
   9.000000E+99

#       Name:                CT1002167954
#       Creating user name   hitesit
#       Creation time:       Sun Apr 16 22:51:06 2023


#       File generated by GOLD software.
#

@<TRIPOS>MOLECULE
CT1002167954|ligand_prepared|mol2|1|dock1
    29    30     1
SMALL
NO_CHARGES


@<TRIPOS>ATOM
      1 C1         117.9237 245.7196 359.6208 C.3            1 RES1               0.0000
      2 C2         119.3938 245.4187 359.2646 C.ar           1 RES1               0.0000
      3 C3         117.0727 244.8723 358.6795 C.2            1 RES1               0.0000
      4 C4         117.7609 245.3658 361.0949 C.2            1 RES1               0.0000
      5 C5         117.5278 247.2035 359.4392 C.3            1 RES1               0.0000
      6 C6         119.8845 244.1176 359.3206 C.ar           1 RES1               0.0000
      7 C7         120.2691 246.4296 358.8764 C.ar           1 RES1               0.0000
      8 N8         116.4494 243.7782 359.2036 N.am           1 RES1               0.0000
      9 O9         116.9818 245.1374 357.4872 O.2            1 RES1               0.0000
     10 N10        116.9348 244.3210 361.4171 N.am           1 RES1               0.0000
     11 O11        118.3535 245.9717 361.9793 O.2            1 RES1               0.0000
     12 C12        116.0610 247.4860 359.7235 C.3            1 RES1               0.0000
     13 C13        121.2016 243.8367 358.9973 C.ar           1 RES1               0.0000
     14 C14        121.5860 246.1465 358.5537 C.ar           1 RES1               0.0000
     15 C15        116.2957 243.4916 360.5362 C.2            1 RES1               0.0000
     16 C16        122.0531 244.8507 358.6133 C.ar           1 RES1               0.0000
     17 O17        115.6131 242.5390 360.9017 O.2            1 RES1               0.0000
     18 H18        118.1420 247.8174 360.1094 H              1 RES1               0.0000
     19 H19        117.7522 247.5051 358.4086 H              1 RES1               0.0000
     20 H20        119.2299 243.3070 359.6230 H              1 RES1               0.0000
     21 H21        119.9238 247.4565 358.8235 H              1 RES1               0.0000
     22 H22        116.0619 243.1115 358.5436 H              1 RES1               0.0000
     23 H23        116.7821 244.1453 362.4051 H              1 RES1               0.0000
     24 H24        115.8368 248.5411 359.5811 H              1 RES1               0.0000
     25 H25        115.4213 246.9108 359.0574 H              1 RES1               0.0000
     26 H26        115.8088 247.2211 360.7482 H              1 RES1               0.0000
     27 H27        121.5647 242.8155 359.0471 H              1 RES1               0.0000
     28 H28        122.2527 246.9477 358.2526 H              1 RES1               0.0000
     29 H29        123.0848 244.6303 358.3597 H              1 RES1               0.0000
@<TRIPOS>BOND
    1    1    2 1     
    2    1    3 1     
    3    1    4 1     
    4    1    5 1     
    5    2    6 ar    
    6    2    7 ar    
    7    3    8 1     
    8    3    9 2     
    9    4   10 1     
   10    4   11 2     
   11    5   12 1     
   12    5   18 1     
   13    5   19 1     
   14    6   13 ar    
   15    6   20 1     
   16    7   14 ar    
   17    7   21 1     
   18    8   15 1     
   19    8   22 1     
   20   10   15 1     
   21   10   23 1     
   22   12   24 1     
   23   12   25 1     
   24   12   26 1     
   25   13   16 ar    
   26   13   27 1     
   27   14   16 ar    
   28   14   28 1     
   29   15   17 2     
   30   16   29 1     
@<TRIPOS>SUBSTRUCTURE
      1 RES1           1
@<TRIPOS>SET
DONOR_HYDROGENS      STATIC     ATOMS    <user>   **** ""
2 22 23
ATOM$RED        STATIC     ATOMS    COLORGROUP SYSTEM
2 22 23
@<TRIPOS>COMMENT
> <Gold.Version>
2022.3.0

> <Gold.Id.Protein>
unknown|5adf_clean|pdb

> <Gold.Protein.RotatedTorsions>
[ 9091 9061 9060 9058 ] final  -52.98 input   60.03 | X-H torsion
[ 8987 8971 8970 8967 ] final -127.73 input   59.98 | X-H torsion
[ 12876 12851 12850 12848 ] final   92.88 input   59.99 | X-H torsion
[ 5555 5539 5538 5535 ] final   48.43 input   60.00 | X-H torsion
[ 8337 8307 8306 8304 ] final  -32.03 input   59.97 | X-H torsion
[ 8491 8475 8474 8471 ] final -161.37 input   60.02 | X-H torsion

> <Gold.Protein.ActiveResidues>
 MET341  HIS342  TRP414  ALA417  ARG419  CYS420  VAL421  GLY422  LEU460  SER462 
 ASN481  SER482  GLN483  LEU484  ARG486  ALA502  ASN503  TRP566  TYR567  GLY568 
 LEU569  PRO570  ALA571  VAL572  SER573  ASN574  MET575  LEU576  PHE589  SER590 
 GLY591  TRP592  TYR593  MET594  GLY595  GLU597  ILE598  ARG601  ASP602  ARG608 
 ILE653  VAL654  TRP683  PHE709  GLU710  TYR711  GLN712  ASP714  HEM750  H4B760 

> <Gold.Protein.RotatedAtoms>
  127.2233  248.2604  362.6574 H   0  0  0  0  0  0  0  0  0  0  0  0  # atno 5555 bound_to 5539
  124.7337  241.8946  361.5561 H   0  0  0  0  0  0  0  0  0  0  0  0  # atno 8337 bound_to 8307
  124.7054  249.5654  367.3839 H   0  0  0  0  0  0  0  0  0  0  0  0  # atno 8491 bound_to 8475
  116.3545  244.5666  368.8488 H   0  0  0  0  0  0  0  0  0  0  0  0  # atno 8987 bound_to 8971
  123.5102  240.5033  360.0135 H   0  0  0  0  0  0  0  0  0  0  0  0  # atno 9091 bound_to 9061
  120.0435  253.7954  354.4866 H   0  0  0  0  0  0  0  0  0  0  0  0  # atno 12876 bound_to 12851
  123.2770  240.1036  361.5739 LP  0  0  0  0  0  0  0  0  0  0  0  0  # atno 13471 bound_to 9061
  122.6597  241.4954  360.9837 LP  0  0  0  0  0  0  0  0  0  0  0  0  # atno 13472 bound_to 9061
  115.4754  243.3972  368.1361 LP  0  0  0  0  0  0  0  0  0  0  0  0  # atno 13487 bound_to 8971
  115.0483  244.9638  367.9631 LP  0  0  0  0  0  0  0  0  0  0  0  0  # atno 13488 bound_to 8971
  121.4977  253.1957  354.9031 LP  0  0  0  0  0  0  0  0  0  0  0  0  # atno 13503 bound_to 12851
  121.3374  254.0860  353.5436 LP  0  0  0  0  0  0  0  0  0  0  0  0  # atno 13504 bound_to 12851
  128.6822  248.9413  362.8937 LP  0  0  0  0  0  0  0  0  0  0  0  0  # atno 13506 bound_to 5539
  128.1235  248.7065  361.3774 LP  0  0  0  0  0  0  0  0  0  0  0  0  # atno 13507 bound_to 5539
  126.2946  241.4790  361.3586 LP  0  0  0  0  0  0  0  0  0  0  0  0  # atno 13510 bound_to 8307
  125.8650  242.5057  362.5535 LP  0  0  0  0  0  0  0  0  0  0  0  0  # atno 13511 bound_to 8307
  124.7999  251.1149  366.8959 LP  0  0  0  0  0  0  0  0  0  0  0  0  # atno 13522 bound_to 8475
  124.2283  249.9698  365.8817 LP  0  0  0  0  0  0  0  0  0  0  0  0  # atno 13523 bound_to 8475

> <Gold.Score>
     Fitness  S(hb_ext) S(vdw_ext)  S(hb_int)    S(int)      intcor
     40.77       0.14      29.58       0.00      -0.04      -0.80

> <Gold.Goldscore.Fitness>
40.7715

> <Gold.Goldscore.Internal.Vdw>
-0.4587

> <Gold.Goldscore.Internal.Torsion>
-0.3819

> <Gold.Goldscore.External.Vdw>
29.5811

> <Gold.Goldscore.Internal.HBond>
0.0000

> <Gold.Goldscore.External.HBond>
0.1404

> <Gold.Goldscore.Internal.Correction>
-0.7977

> <Gold.Goldscore.Hbonds>
donor molecule, donor type, donor heavy atom, donor atom, acceptor molecule, acceptor atom, score
      P1  H  8438  8461       L1    11  0.07

> <Gold.Goldscore.Internal.Vdw.Weighted>
-0.4587

> <Gold.Goldscore.Internal.Torsion.Weighted>
-0.3819

> <Gold.Goldscore.External.Vdw.Weighted>
40.6740

> <Gold.Goldscore.Internal.HBond.Weighted>
0.0000

> <Gold.Goldscore.External.HBond.Weighted>
0.1404

> <Gold.Goldscore.Internal.Correction.Weighted>
-0.7977

> <Gold.Rescore>
     Score     S(PLP)   S(hbond)     S(cho)   S(metal)  DE(clash)   DE(tors)     intcor
     32.70     -30.07       1.34       0.00       0.00       0.00       0.70       ----

> <Gold.PLP.Fitness>
32.6962

> <Gold.PLP.PLP>
-30.0712

> <Gold.PLP.part.hbond>
-4.0000

> <Gold.PLP.part.metal>
0.0000

> <Gold.PLP.part.buried>
12.5525

> <Gold.PLP.part.nonpolar>
-41.7483

> <Gold.PLP.part.repulsive>
1.1622

> <Gold.PLP.ligand.clash>
0.0000

> <Gold.PLP.ligand.torsion>
0.6960

> <Gold.PLP.Chemscore.Hbond>
1.3390

> <Gold.PLP.Chemscore.CHOScore>
0.0000

> <Gold.PLP.Chemscore.Metal>
0.0000

> <Gold.Chemscore.Hbonds>
donor molecule, donor type, donor heavy atom, donor atom, acceptor molecule, acceptor atom, score
      L1  H    10    23       P1  8393  0.10
      P1  H  8438  8461       L1    11  0.16

> <Gold.PLP.Chemscore.Internal.Correction>
   9.000000E+99

#       Name:                CT1002167954
#       Creating user name   hitesit
#       Creation time:       Sun Apr 16 22:51:09 2023


#       File generated by GOLD software.
#

@<TRIPOS>MOLECULE
CT1002167954|ligand_prepared|mol2|1|dock4
    29    30     1
SMALL
NO_CHARGES


@<TRIPOS>ATOM
      1 C1         118.0664 245.5155 359.4474 C.3            1 RES1               0.0000
      2 C2         119.5281 245.1209 359.1533 C.ar           1 RES1               0.0000
      3 C3         117.2075 244.7625 358.4357 C.2            1 RES1               0.0000
      4 C4         117.8034 245.1269 360.8981 C.2            1 RES1               0.0000
      5 C5         117.7860 247.0291 359.2998 C.3            1 RES1               0.0000
      6 C6         119.8901 243.7827 359.0317 C.ar           1 RES1               0.0000
      7 C7         120.5233 246.0823 358.9986 C.ar           1 RES1               0.0000
      8 N8         116.4826 243.7000 358.8889 N.am           1 RES1               0.0000
      9 O9         117.1971 245.0719 357.2506 O.2            1 RES1               0.0000
     10 N10        116.8903 244.1346 361.1417 N.am           1 RES1               0.0000
     11 O11        118.3908 245.6597 361.8316 O.2            1 RES1               0.0000
     12 C12        116.3407 247.4144 359.5734 C.3            1 RES1               0.0000
     13 C13        121.1990 243.4187 358.7623 C.ar           1 RES1               0.0000
     14 C14        121.8317 245.7161 358.7294 C.ar           1 RES1               0.0000
     15 C15        116.2406 243.3824 360.2013 C.2            1 RES1               0.0000
     16 C16        122.1705 244.3850 358.6105 C.ar           1 RES1               0.0000
     17 O17        115.4746 242.4702 360.4984 O.2            1 RES1               0.0000
     18 H18        118.4350 247.5777 359.9935 H              1 RES1               0.0000
     19 H19        118.0470 247.3388 358.2803 H              1 RES1               0.0000
     20 H20        119.1398 243.0082 359.1504 H              1 RES1               0.0000
     21 H21        120.2800 247.1355 359.0889 H              1 RES1               0.0000
     22 H22        116.0836 243.0846 358.1872 H              1 RES1               0.0000
     23 H23        116.6748 243.9386 362.1140 H              1 RES1               0.0000
     24 H24        116.1985 248.4867 359.4560 H              1 RES1               0.0000
     25 H25        115.6690 246.9062 358.8847 H              1 RES1               0.0000
     26 H26        116.0547 247.1437 360.5876 H              1 RES1               0.0000
     27 H27        121.4608 242.3697 358.6710 H              1 RES1               0.0000
     28 H28        122.5932 246.4800 358.6113 H              1 RES1               0.0000
     29 H29        123.1958 244.0997 358.3991 H              1 RES1               0.0000
@<TRIPOS>BOND
    1    1    2 1     
    2    1    3 1     
    3    1    4 1     
    4    1    5 1     
    5    2    6 ar    
    6    2    7 ar    
    7    3    8 1     
    8    3    9 2     
    9    4   10 1     
   10    4   11 2     
   11    5   12 1     
   12    5   18 1     
   13    5   19 1     
   14    6   13 ar    
   15    6   20 1     
   16    7   14 ar    
   17    7   21 1     
   18    8   15 1     
   19    8   22 1     
   20   10   15 1     
   21   10   23 1     
   22   12   24 1     
   23   12   25 1     
   24   12   26 1     
   25   13   16 ar    
   26   13   27 1     
   27   14   16 ar    
   28   14   28 1     
   29   15   17 2     
   30   16   29 1     
@<TRIPOS>SUBSTRUCTURE
      1 RES1           1
@<TRIPOS>SET
DONOR_HYDROGENS      STATIC     ATOMS    <user>   **** ""
2 22 23
ATOM$RED        STATIC     ATOMS    COLORGROUP SYSTEM
2 22 23
@<TRIPOS>COMMENT
> <Gold.Version>
2022.3.0

> <Gold.Id.Protein>
unknown|5adf_clean|pdb

> <Gold.Protein.RotatedTorsions>
[ 9091 9061 9060 9058 ] final  110.08 input   60.03 | X-H torsion
[ 8987 8971 8970 8967 ] final  -61.36 input   59.98 | X-H torsion
[ 12876 12851 12850 12848 ] final  -43.28 input   59.99 | X-H torsion
[ 5555 5539 5538 5535 ] final   76.26 input   60.00 | X-H torsion
[ 8337 8307 8306 8304 ] final  -55.82 input   59.97 | X-H torsion
[ 8491 8475 8474 8471 ] final -139.04 input   60.02 | X-H torsion

> <Gold.Protein.ActiveResidues>
 MET341  HIS342  TRP414  ALA417  ARG419  CYS420  VAL421  GLY422  LEU460  SER462 
 ASN481  SER482  GLN483  LEU484  ARG486  ALA502  ASN503  TRP566  TYR567  GLY568 
 LEU569  PRO570  ALA571  VAL572  SER573  ASN574  MET575  LEU576  PHE589  SER590 
 GLY591  TRP592  TYR593  MET594  GLY595  GLU597  ILE598  ARG601  ASP602  ARG608 
 ILE653  VAL654  TRP683  PHE709  GLU710  TYR711  GLN712  ASP714  HEM750  H4B760 

> <Gold.Protein.RotatedAtoms>
  127.1645  248.2410  362.2115 H   0  0  0  0  0  0  0  0  0  0  0  0  # atno 5555 bound_to 5539
  124.9091  241.6626  361.3025 H   0  0  0  0  0  0  0  0  0  0  0  0  # atno 8337 bound_to 8307
  124.5713  249.3648  367.1134 H   0  0  0  0  0  0  0  0  0  0  0  0  # atno 8491 bound_to 8475
  115.6951  245.2357  368.4389 H   0  0  0  0  0  0  0  0  0  0  0  0  # atno 8987 bound_to 8971
  122.6990  241.1198  361.5609 H   0  0  0  0  0  0  0  0  0  0  0  0  # atno 9091 bound_to 9061
  121.6810  253.2679  354.7269 H   0  0  0  0  0  0  0  0  0  0  0  0  # atno 12876 bound_to 12851
  123.1733  241.1052  360.0041 LP  0  0  0  0  0  0  0  0  0  0  0  0  # atno 13471 bound_to 9061
  123.5800  239.8733  360.9959 LP  0  0  0  0  0  0  0  0  0  0  0  0  # atno 13472 bound_to 9061
  116.2596  243.7348  368.7162 LP  0  0  0  0  0  0  0  0  0  0  0  0  # atno 13487 bound_to 8971
  114.9283  243.9523  367.7960 LP  0  0  0  0  0  0  0  0  0  0  0  0  # atno 13488 bound_to 8971
  121.0876  254.1665  353.5070 LP  0  0  0  0  0  0  0  0  0  0  0  0  # atno 13503 bound_to 12851
  120.0987  253.6464  354.6978 LP  0  0  0  0  0  0  0  0  0  0  0  0  # atno 13504 bound_to 12851
  128.3603  248.7844  363.1720 LP  0  0  0  0  0  0  0  0  0  0  0  0  # atno 13506 bound_to 5539
  128.5047  248.8829  361.5484 LP  0  0  0  0  0  0  0  0  0  0  0  0  # atno 13507 bound_to 5539
  126.5029  241.6619  361.6310 LP  0  0  0  0  0  0  0  0  0  0  0  0  # atno 13510 bound_to 8307
  125.4801  242.5565  362.5366 LP  0  0  0  0  0  0  0  0  0  0  0  0  # atno 13511 bound_to 8307
  124.8886  250.9576  367.2133 LP  0  0  0  0  0  0  0  0  0  0  0  0  # atno 13522 bound_to 8475
  124.2746  250.3292  365.8368 LP  0  0  0  0  0  0  0  0  0  0  0  0  # atno 13523 bound_to 8475

> <Gold.Score>
     Fitness  S(hb_ext) S(vdw_ext)  S(hb_int)    S(int)      intcor
     38.37       0.05      28.29       0.00      -0.59      -0.78

> <Gold.Goldscore.Fitness>
38.3657

> <Gold.Goldscore.Internal.Vdw>
-0.9964

> <Gold.Goldscore.Internal.Torsion>
-0.3677

> <Gold.Goldscore.External.Vdw>
28.2950

> <Gold.Goldscore.Internal.HBond>
0.0000

> <Gold.Goldscore.External.HBond>
0.0490

> <Gold.Goldscore.Internal.Correction>
-0.7752

> <Gold.Goldscore.Hbonds>
donor molecule, donor type, donor heavy atom, donor atom, acceptor molecule, acceptor atom, score
      P1  H  8438  8461       L1    11  0.02

> <Gold.Goldscore.Internal.Vdw.Weighted>
-0.9964

> <Gold.Goldscore.Internal.Torsion.Weighted>
-0.3677

> <Gold.Goldscore.External.Vdw.Weighted>
38.9056

> <Gold.Goldscore.Internal.HBond.Weighted>
0.0000

> <Gold.Goldscore.External.HBond.Weighted>
0.0490

> <Gold.Goldscore.Internal.Correction.Weighted>
-0.7752

> <Gold.Rescore>
     Score     S(PLP)   S(hbond)     S(cho)   S(metal)  DE(clash)   DE(tors)     intcor
     33.24     -31.37       1.14       0.00       0.00       0.00       0.78       ----

> <Gold.PLP.Fitness>
33.2427

> <Gold.PLP.PLP>
-31.3723

> <Gold.PLP.part.hbond>
-4.0000

> <Gold.PLP.part.metal>
0.0000

> <Gold.PLP.part.buried>
12.1192

> <Gold.PLP.part.nonpolar>
-42.6989

> <Gold.PLP.part.repulsive>
0.9734

> <Gold.PLP.ligand.clash>
0.0000

> <Gold.PLP.ligand.torsion>
0.7818

> <Gold.PLP.Chemscore.Hbond>
1.1446

> <Gold.PLP.Chemscore.CHOScore>
0.0000

> <Gold.PLP.Chemscore.Metal>
0.0000

> <Gold.PLP.Chemscore.Internal.Correction>
   9.000000E+99

#       Name:                CT1002167954
#       Creating user name   hitesit
#       Creation time:       Sun Apr 16 22:51:13 2023


#       File generated by GOLD software.
#

@<TRIPOS>MOLECULE
CT1002167954|ligand_prepared|mol2|1|dock9
    29    30     1
SMALL
NO_CHARGES


@<TRIPOS>ATOM
      1 C1         123.5073 244.1422 357.4063 C.3            1 RES1               0.0000
      2 C2         123.6883 244.4301 355.9020 C.ar           1 RES1               0.0000
      3 C3         123.7420 242.6454 357.5874 C.2            1 RES1               0.0000
      4 C4         124.5172 245.0228 358.1338 C.2            1 RES1               0.0000
      5 C5         122.0986 244.4870 357.9433 C.3            1 RES1               0.0000
      6 C6         124.8664 244.9979 355.4259 C.ar           1 RES1               0.0000
      7 C7         122.6892 244.1314 354.9794 C.ar           1 RES1               0.0000
      8 N8         124.9127 242.2552 358.1680 N.am           1 RES1               0.0000
      9 O9         122.9299 241.8187 357.1910 O.2            1 RES1               0.0000
     10 N10        125.5351 244.4061 358.8129 N.am           1 RES1               0.0000
     11 O11        124.4502 246.2456 358.1112 O.2            1 RES1               0.0000
     12 C12        121.5806 245.8400 357.4816 C.3            1 RES1               0.0000
     13 C13        125.0405 245.2551 354.0762 C.ar           1 RES1               0.0000
     14 C14        122.8653 244.3896 353.6301 C.ar           1 RES1               0.0000
     15 C15        125.7963 243.0632 358.8375 C.2            1 RES1               0.0000
     16 C16        124.0404 244.9508 353.1774 C.ar           1 RES1               0.0000
     17 O17        126.7633 242.5885 359.4262 O.2            1 RES1               0.0000
     18 H18        121.3964 243.7100 357.6170 H              1 RES1               0.0000
     19 H19        122.1260 244.4750 359.0399 H              1 RES1               0.0000
     20 H20        125.6635 245.2464 356.1186 H              1 RES1               0.0000
     21 H21        121.7560 243.6905 355.3130 H              1 RES1               0.0000
     22 H22        125.1535 241.2716 358.0979 H              1 RES1               0.0000
     23 H23        126.1557 245.0034 359.3500 H              1 RES1               0.0000
     24 H24        120.5893 246.0322 357.8866 H              1 RES1               0.0000
     25 H25        122.2419 246.6390 357.8106 H              1 RES1               0.0000
     26 H26        121.5166 245.8785 356.3961 H              1 RES1               0.0000
     27 H27        125.9667 245.6981 353.7252 H              1 RES1               0.0000
     28 H28        122.0753 244.1491 352.9263 H              1 RES1               0.0000
     29 H29        124.1772 245.1520 352.1200 H              1 RES1               0.0000
@<TRIPOS>BOND
    1    1    2 1     
    2    1    3 1     
    3    1    4 1     
    4    1    5 1     
    5    2    6 ar    
    6    2    7 ar    
    7    3    8 1     
    8    3    9 2     
    9    4   10 1     
   10    4   11 2     
   11    5   12 1     
   12    5   18 1     
   13    5   19 1     
   14    6   13 ar    
   15    6   20 1     
   16    7   14 ar    
   17    7   21 1     
   18    8   15 1     
   19    8   22 1     
   20   10   15 1     
   21   10   23 1     
   22   12   24 1     
   23   12   25 1     
   24   12   26 1     
   25   13   16 ar    
   26   13   27 1     
   27   14   16 ar    
   28   14   28 1     
   29   15   17 2     
   30   16   29 1     
@<TRIPOS>SUBSTRUCTURE
      1 RES1           1
@<TRIPOS>SET
DONOR_HYDROGENS      STATIC     ATOMS    <user>   **** ""
2 22 23
ATOM$RED        STATIC     ATOMS    COLORGROUP SYSTEM
2 22 23
@<TRIPOS>COMMENT
> <Gold.Version>
2022.3.0

> <Gold.Id.Protein>
unknown|5adf_clean|pdb

> <Gold.Protein.RotatedTorsions>
[ 9091 9061 9060 9058 ] final  -92.05 input   60.03 | X-H torsion
[ 8987 8971 8970 8967 ] final -136.17 input   59.98 | X-H torsion
[ 12876 12851 12850 12848 ] final  152.17 input   59.99 | X-H torsion
[ 5555 5539 5538 5535 ] final -140.34 input   60.00 | X-H torsion
[ 8337 8307 8306 8304 ] final  -48.26 input   59.97 | X-H torsion
[ 8491 8475 8474 8471 ] final  -64.59 input   60.02 | X-H torsion

> <Gold.Protein.ActiveResidues>
 MET341  HIS342  TRP414  ALA417  ARG419  CYS420  VAL421  GLY422  LEU460  SER462 
 ASN481  SER482  GLN483  LEU484  ARG486  ALA502  ASN503  TRP566  TYR567  GLY568 
 LEU569  PRO570  ALA571  VAL572  SER573  ASN574  MET575  LEU576  PHE589  SER590 
 GLY591  TRP592  TYR593  MET594  GLY595  GLU597  ILE598  ARG601  ASP602  ARG608 
 ILE653  VAL654  TRP683  PHE709  GLU710  TYR711  GLN712  ASP714  HEM750  H4B760 

> <Gold.Protein.RotatedAtoms>
  128.7332  248.9870  361.8349 H   0  0  0  0  0  0  0  0  0  0  0  0  # atno 5555 bound_to 5539
  124.8382  241.7326  361.3753 H   0  0  0  0  0  0  0  0  0  0  0  0  # atno 8337 bound_to 8307
  124.2362  249.6403  366.0672 H   0  0  0  0  0  0  0  0  0  0  0  0  # atno 8491 bound_to 8475
  116.3825  244.4321  368.8576 H   0  0  0  0  0  0  0  0  0  0  0  0  # atno 8987 bound_to 8971
  123.6524  240.0440  360.4150 H   0  0  0  0  0  0  0  0  0  0  0  0  # atno 9091 bound_to 9061
  120.4118  254.1848  353.7313 H   0  0  0  0  0  0  0  0  0  0  0  0  # atno 12876 bound_to 12851
  122.9376  240.5982  361.7681 LP  0  0  0  0  0  0  0  0  0  0  0  0  # atno 13471 bound_to 9061
  122.8560  241.4631  360.3854 LP  0  0  0  0  0  0  0  0  0  0  0  0  # atno 13472 bound_to 9061
  115.3661  243.4406  368.0626 LP  0  0  0  0  0  0  0  0  0  0  0  0  # atno 13487 bound_to 8971
  115.1294  245.0560  368.0278 LP  0  0  0  0  0  0  0  0  0  0  0  0  # atno 13488 bound_to 8971
  120.5875  253.2933  355.0812 LP  0  0  0  0  0  0  0  0  0  0  0  0  # atno 13503 bound_to 12851
  121.8767  253.5964  354.1259 LP  0  0  0  0  0  0  0  0  0  0  0  0  # atno 13504 bound_to 12851
  127.2620  248.2919  361.8467 LP  0  0  0  0  0  0  0  0  0  0  0  0  # atno 13506 bound_to 5539
  128.0226  248.6238  363.2530 LP  0  0  0  0  0  0  0  0  0  0  0  0  # atno 13507 bound_to 5539
  126.4516  241.5965  361.5385 LP  0  0  0  0  0  0  0  0  0  0  0  0  # atno 13510 bound_to 8307
  125.6028  242.5513  362.5557 LP  0  0  0  0  0  0  0  0  0  0  0  0  # atno 13511 bound_to 8307
  124.8280  249.8741  367.5649 LP  0  0  0  0  0  0  0  0  0  0  0  0  # atno 13522 bound_to 8475
  124.6727  251.1352  366.5391 LP  0  0  0  0  0  0  0  0  0  0  0  0  # atno 13523 bound_to 8475

> <Gold.Score>
     Fitness  S(hb_ext) S(vdw_ext)  S(hb_int)    S(int)      intcor
     33.15       2.21      24.85       0.00      -3.22      -0.76

> <Gold.Goldscore.Fitness>
33.1455

> <Gold.Goldscore.Internal.Vdw>
-3.3099

> <Gold.Goldscore.Internal.Torsion>
-0.6800

> <Gold.Goldscore.External.Vdw>
24.8466

> <Gold.Goldscore.Internal.HBond>
0.0000

> <Gold.Goldscore.External.HBond>
2.2064

> <Gold.Goldscore.Internal.Correction>
-0.7650

> <Gold.Goldscore.Hbonds>
donor molecule, donor type, donor heavy atom, donor atom, acceptor molecule, acceptor atom, score
      P1  H  9502  9538       L1    17  0.05
      L1  H     8    22       P1  9337  0.32

> <Gold.Goldscore.Internal.Vdw.Weighted>
-3.3099

> <Gold.Goldscore.Internal.Torsion.Weighted>
-0.6800

> <Gold.Goldscore.External.Vdw.Weighted>
34.1640

> <Gold.Goldscore.Internal.HBond.Weighted>
0.0000

> <Gold.Goldscore.External.HBond.Weighted>
2.2064

> <Gold.Goldscore.Internal.Correction.Weighted>
-0.7650

> <Gold.Rescore>
     Score     S(PLP)   S(hbond)     S(cho)   S(metal)  DE(clash)   DE(tors)     intcor
     22.95     -19.72       2.00       0.00       0.00       2.07       0.35       ----

> <Gold.PLP.Fitness>
22.9476

> <Gold.PLP.PLP>
-19.7232

> <Gold.PLP.part.hbond>
-5.4210

> <Gold.PLP.part.metal>
0.0000

> <Gold.PLP.part.buried>
7.3806

> <Gold.PLP.part.nonpolar>
-25.0829

> <Gold.PLP.part.repulsive>
1.2600

> <Gold.PLP.ligand.clash>
2.0730

> <Gold.PLP.ligand.torsion>
0.3501

> <Gold.PLP.Chemscore.Hbond>
1.9992

> <Gold.PLP.Chemscore.CHOScore>
0.0000

> <Gold.PLP.Chemscore.Metal>
0.0000

> <Gold.Chemscore.Hbonds>
donor molecule, donor type, donor heavy atom, donor atom, acceptor molecule, acceptor atom, score
      L1  H     8    22       P1  9337  0.48
      P1  H  5676  5702       L1    17  0.20
      P1  H  9502  9538       L1    17  0.39

> <Gold.PLP.Chemscore.Internal.Correction>
   9.000000E+99

#       Name:                CT1002167954
#       Creating user name   hitesit
#       Creation time:       Sun Apr 16 22:51:11 2023


#       File generated by GOLD software.
#

@<TRIPOS>MOLECULE
CT1002167954|ligand_prepared|mol2|1|dock7
    29    30     1
SMALL
NO_CHARGES


@<TRIPOS>ATOM
      1 C1         123.5118 244.0273 356.9523 C.3            1 RES1               0.0000
      2 C2         122.2366 244.5625 357.6351 C.ar           1 RES1               0.0000
      3 C3         124.6887 244.6836 357.6682 C.2            1 RES1               0.0000
      4 C4         123.4661 242.5098 357.0926 C.2            1 RES1               0.0000
      5 C5         123.6028 244.3653 355.4460 C.3            1 RES1               0.0000
      6 C6         121.5418 243.7793 358.5520 C.ar           1 RES1               0.0000
      7 C7         121.7452 245.8360 357.3608 C.ar           1 RES1               0.0000
      8 N8         125.4242 243.9089 358.5160 N.am           1 RES1               0.0000
      9 O9         124.9434 245.8727 357.5215 O.2            1 RES1               0.0000
     10 N10        124.4233 241.9074 357.8663 N.am           1 RES1               0.0000
     11 O11        122.5999 241.8319 356.5537 O.2            1 RES1               0.0000
     12 C12        124.7985 243.7368 354.7477 C.3            1 RES1               0.0000
     13 C13        120.3988 244.2531 359.1743 C.ar           1 RES1               0.0000
     14 C14        120.6018 246.3078 357.9842 C.ar           1 RES1               0.0000
     15 C15        125.3819 242.5409 358.6092 C.2            1 RES1               0.0000
     16 C16        119.9283 245.5177 358.8913 C.ar           1 RES1               0.0000
     17 O17        126.1736 241.9328 359.3237 O.2            1 RES1               0.0000
     18 H18        122.6852 244.0236 354.9514 H              1 RES1               0.0000
     19 H19        123.6596 245.4549 355.3314 H              1 RES1               0.0000
     20 H20        121.8956 242.7807 358.7855 H              1 RES1               0.0000
     21 H21        122.2581 246.4748 356.6498 H              1 RES1               0.0000
     22 H22        126.0649 244.3912 359.1382 H              1 RES1               0.0000
     23 H23        124.4211 240.8926 357.8906 H              1 RES1               0.0000
     24 H24        124.8147 244.0057 353.6936 H              1 RES1               0.0000
     25 H25        125.7296 244.0747 355.1980 H              1 RES1               0.0000
     26 H26        124.7610 242.6519 354.8202 H              1 RES1               0.0000
     27 H27        119.8716 243.6268 359.8864 H              1 RES1               0.0000
     28 H28        120.2347 247.3034 357.7579 H              1 RES1               0.0000
     29 H29        119.0331 245.8887 359.3793 H              1 RES1               0.0000
@<TRIPOS>BOND
    1    1    2 1     
    2    1    3 1     
    3    1    4 1     
    4    1    5 1     
    5    2    6 ar    
    6    2    7 ar    
    7    3    8 1     
    8    3    9 2     
    9    4   10 1     
   10    4   11 2     
   11    5   12 1     
   12    5   18 1     
   13    5   19 1     
   14    6   13 ar    
   15    6   20 1     
   16    7   14 ar    
   17    7   21 1     
   18    8   15 1     
   19    8   22 1     
   20   10   15 1     
   21   10   23 1     
   22   12   24 1     
   23   12   25 1     
   24   12   26 1     
   25   13   16 ar    
   26   13   27 1     
   27   14   16 ar    
   28   14   28 1     
   29   15   17 2     
   30   16   29 1     
@<TRIPOS>SUBSTRUCTURE
      1 RES1           1
@<TRIPOS>SET
DONOR_HYDROGENS      STATIC     ATOMS    <user>   **** ""
2 22 23
ATOM$RED        STATIC     ATOMS    COLORGROUP SYSTEM
2 22 23
@<TRIPOS>COMMENT
> <Gold.Version>
2022.3.0

> <Gold.Id.Protein>
unknown|5adf_clean|pdb

> <Gold.Protein.RotatedTorsions>
[ 9091 9061 9060 9058 ] final    6.48 input   60.03 | X-H torsion
[ 8987 8971 8970 8967 ] final -158.89 input   59.98 | X-H torsion
[ 12876 12851 12850 12848 ] final   75.29 input   59.99 | X-H torsion
[ 5555 5539 5538 5535 ] final  -96.67 input   60.00 | X-H torsion
[ 8337 8307 8306 8304 ] final   69.54 input   59.97 | X-H torsion
[ 8491 8475 8474 8471 ] final  -41.04 input   60.02 | X-H torsion

> <Gold.Protein.ActiveResidues>
 MET341  HIS342  TRP414  ALA417  ARG419  CYS420  VAL421  GLY422  LEU460  SER462 
 ASN481  SER482  GLN483  LEU484  ARG486  ALA502  ASN503  TRP566  TYR567  GLY568 
 LEU569  PRO570  ALA571  VAL572  SER573  ASN574  MET575  LEU576  PHE589  SER590 
 GLY591  TRP592  TYR593  MET594  GLY595  GLU597  ILE598  ARG601  ASP602  ARG608 
 ILE653  VAL654  TRP683  PHE709  GLU710  TYR711  GLN712  ASP714  HEM750  H4B760 

> <Gold.Protein.RotatedAtoms>
  128.8334  249.0213  362.5232 H   0  0  0  0  0  0  0  0  0  0  0  0  # atno 5555 bound_to 5539
  125.5671  242.5480  362.5477 H   0  0  0  0  0  0  0  0  0  0  0  0  # atno 8337 bound_to 8307
  124.2290  249.9771  365.8868 H   0  0  0  0  0  0  0  0  0  0  0  0  # atno 8491 bound_to 8475
  116.3764  244.0649  368.8233 H   0  0  0  0  0  0  0  0  0  0  0  0  # atno 8987 bound_to 8971
  123.0273  241.2874  360.1357 H   0  0  0  0  0  0  0  0  0  0  0  0  # atno 9091 bound_to 9061
  120.1140  253.6364  354.7140 H   0  0  0  0  0  0  0  0  0  0  0  0  # atno 12876 bound_to 12851
  123.6400  239.9040  360.7355 LP  0  0  0  0  0  0  0  0  0  0  0  0  # atno 13471 bound_to 9061
  122.7829  240.9059  361.6990 LP  0  0  0  0  0  0  0  0  0  0  0  0  # atno 13472 bound_to 9061
  115.1060  243.6471  367.8962 LP  0  0  0  0  0  0  0  0  0  0  0  0  # atno 13487 bound_to 8971
  115.3957  245.2194  368.2288 LP  0  0  0  0  0  0  0  0  0  0  0  0  # atno 13488 bound_to 8971
  121.6994  253.2699  354.7110 LP  0  0  0  0  0  0  0  0  0  0  0  0  # atno 13503 bound_to 12851
  121.0646  254.1719  353.5068 LP  0  0  0  0  0  0  0  0  0  0  0  0  # atno 13504 bound_to 12851
  127.7540  248.5319  361.4082 LP  0  0  0  0  0  0  0  0  0  0  0  0  # atno 13506 bound_to 5539
  127.4296  248.3493  362.9982 LP  0  0  0  0  0  0  0  0  0  0  0  0  # atno 13507 bound_to 5539
  124.8524  241.7118  361.3485 LP  0  0  0  0  0  0  0  0  0  0  0  0  # atno 13510 bound_to 8307
  126.4680  241.6149  361.5649 LP  0  0  0  0  0  0  0  0  0  0  0  0  # atno 13511 bound_to 8307
  124.7065  249.5566  367.3845 LP  0  0  0  0  0  0  0  0  0  0  0  0  # atno 13522 bound_to 8475
  124.8015  251.1135  366.9011 LP  0  0  0  0  0  0  0  0  0  0  0  0  # atno 13523 bound_to 8475

> <Gold.Score>
     Fitness  S(hb_ext) S(vdw_ext)  S(hb_int)    S(int)      intcor
     33.04       0.54      24.68       0.00      -1.43      -0.78

> <Gold.Goldscore.Fitness>
33.0368

> <Gold.Goldscore.Internal.Vdw>
-1.7981

> <Gold.Goldscore.Internal.Torsion>
-0.4059

> <Gold.Goldscore.External.Vdw>
24.6758

> <Gold.Goldscore.Internal.HBond>
0.0000

> <Gold.Goldscore.External.HBond>
0.5362

> <Gold.Goldscore.Internal.Correction>
-0.7752

> <Gold.Goldscore.Hbonds>
donor molecule, donor type, donor heavy atom, donor atom, acceptor molecule, acceptor atom, score
      P1  H  9502  9538       L1    17  0.03
      L1  H    10    23       P1  9337  0.06

> <Gold.Goldscore.Internal.Vdw.Weighted>
-1.7981

> <Gold.Goldscore.Internal.Torsion.Weighted>
-0.4059

> <Gold.Goldscore.External.Vdw.Weighted>
33.9293

> <Gold.Goldscore.Internal.HBond.Weighted>
0.0000

> <Gold.Goldscore.External.HBond.Weighted>
0.5362

> <Gold.Goldscore.Internal.Correction.Weighted>
-0.7752

> <Gold.Rescore>
     Score     S(PLP)   S(hbond)     S(cho)   S(metal)  DE(clash)   DE(tors)     intcor
     28.19     -25.33       1.72       0.00       0.00       1.76       0.26       ----

> <Gold.PLP.Fitness>
28.1945

> <Gold.PLP.PLP>
-25.3295

> <Gold.PLP.part.hbond>
-5.0000

> <Gold.PLP.part.metal>
0.0000

> <Gold.PLP.part.buried>
5.0932

> <Gold.PLP.part.nonpolar>
-28.2390

> <Gold.PLP.part.repulsive>
1.0078

> <Gold.PLP.ligand.clash>
1.7613

> <Gold.PLP.ligand.torsion>
0.2603

> <Gold.PLP.Chemscore.Hbond>
1.7156

> <Gold.PLP.Chemscore.CHOScore>
0.0000

> <Gold.PLP.Chemscore.Metal>
0.0000

> <Gold.Chemscore.Hbonds>
donor molecule, donor type, donor heavy atom, donor atom, acceptor molecule, acceptor atom, score
      L1  H    10    23       P1  9337  0.69

> <Gold.PLP.Chemscore.Internal.Correction>
   9.000000E+99

#       Name:                CT1002167954
#       Creating user name   hitesit
#       Creation time:       Sun Apr 16 22:51:10 2023


#       File generated by GOLD software.
#

@<TRIPOS>MOLECULE
CT1002167954|ligand_prepared|mol2|1|dock5
    29    30     1
SMALL
NO_CHARGES


@<TRIPOS>ATOM
      1 C1         123.3418 244.6755 357.3036 C.3            1 RES1               0.0000
      2 C2         123.6028 245.1476 355.8586 C.ar           1 RES1               0.0000
      3 C3         123.3800 243.1505 357.2696 C.2            1 RES1               0.0000
      4 C4         124.4326 245.3062 358.1620 C.2            1 RES1               0.0000
      5 C5         121.9725 245.1201 357.8684 C.3            1 RES1               0.0000
      6 C6         123.2825 246.4443 355.4680 C.ar           1 RES1               0.0000
      7 C7         124.1646 244.3001 354.9075 C.ar           1 RES1               0.0000
      8 N8         124.4741 242.5339 357.8013 N.am           1 RES1               0.0000
      9 O9         122.4822 242.5003 356.7487 O.2            1 RES1               0.0000
     10 N10        125.3437 244.4732 358.7567 N.am           1 RES1               0.0000
     11 O11        124.5214 246.5182 358.3152 O.2            1 RES1               0.0000
     12 C12        121.5546 244.3708 359.1238 C.3            1 RES1               0.0000
     13 C13        123.5181 246.8792 354.1743 C.ar           1 RES1               0.0000
     14 C14        124.3992 244.7369 353.6142 C.ar           1 RES1               0.0000
     15 C15        125.4322 243.1179 358.5903 C.2            1 RES1               0.0000
     16 C16        124.0770 246.0260 353.2467 C.ar           1 RES1               0.0000
     17 O17        126.3135 242.4436 359.1156 O.2            1 RES1               0.0000
     18 H18        122.0154 246.1925 358.0951 H              1 RES1               0.0000
     19 H19        121.2070 244.9709 357.0969 H              1 RES1               0.0000
     20 H20        122.8397 247.1292 356.1836 H              1 RES1               0.0000
     21 H21        124.4252 243.2814 355.1738 H              1 RES1               0.0000
     22 H22        124.5907 241.5474 357.5928 H              1 RES1               0.0000
     23 H23        126.0183 244.9032 359.3815 H              1 RES1               0.0000
     24 H24        120.5875 244.7212 359.4782 H              1 RES1               0.0000
     25 H25        121.4774 243.3033 358.9282 H              1 RES1               0.0000
     26 H26        122.2810 244.5177 359.9204 H              1 RES1               0.0000
     27 H27        123.2614 247.8942 353.8898 H              1 RES1               0.0000
     28 H28        124.8386 244.0618 352.8872 H              1 RES1               0.0000
     29 H29        124.2618 246.3670 352.2334 H              1 RES1               0.0000
@<TRIPOS>BOND
    1    1    2 1     
    2    1    3 1     
    3    1    4 1     
    4    1    5 1     
    5    2    6 ar    
    6    2    7 ar    
    7    3    8 1     
    8    3    9 2     
    9    4   10 1     
   10    4   11 2     
   11    5   12 1     
   12    5   18 1     
   13    5   19 1     
   14    6   13 ar    
   15    6   20 1     
   16    7   14 ar    
   17    7   21 1     
   18    8   15 1     
   19    8   22 1     
   20   10   15 1     
   21   10   23 1     
   22   12   24 1     
   23   12   25 1     
   24   12   26 1     
   25   13   16 ar    
   26   13   27 1     
   27   14   16 ar    
   28   14   28 1     
   29   15   17 2     
   30   16   29 1     
@<TRIPOS>SUBSTRUCTURE
      1 RES1           1
@<TRIPOS>SET
DONOR_HYDROGENS      STATIC     ATOMS    <user>   **** ""
2 22 23
ATOM$RED        STATIC     ATOMS    COLORGROUP SYSTEM
2 22 23
@<TRIPOS>COMMENT
> <Gold.Version>
2022.3.0

> <Gold.Id.Protein>
unknown|5adf_clean|pdb

> <Gold.Protein.RotatedTorsions>
[ 9091 9061 9060 9058 ] final  177.29 input   60.03 | X-H torsion
[ 8987 8971 8970 8967 ] final -133.32 input   59.98 | X-H torsion
[ 12876 12851 12850 12848 ] final  133.15 input   59.99 | X-H torsion
[ 5555 5539 5538 5535 ] final -144.45 input   60.00 | X-H torsion
[ 8337 8307 8306 8304 ] final  -36.55 input   59.97 | X-H torsion
[ 8491 8475 8474 8471 ] final   93.28 input   60.02 | X-H torsion

> <Gold.Protein.ActiveResidues>
 MET341  HIS342  TRP414  ALA417  ARG419  CYS420  VAL421  GLY422  LEU460  SER462 
 ASN481  SER482  GLN483  LEU484  ARG486  ALA502  ASN503  TRP566  TYR567  GLY568 
 LEU569  PRO570  ALA571  VAL572  SER573  ASN574  MET575  LEU576  PHE589  SER590 
 GLY591  TRP592  TYR593  MET594  GLY595  GLU597  ILE598  ARG601  ASP602  ARG608 
 ILE653  VAL654  TRP683  PHE709  GLU710  TYR711  GLN712  ASP714  HEM750  H4B760 

> <Gold.Protein.RotatedAtoms>
  128.7001  248.9725  361.7784 H   0  0  0  0  0  0  0  0  0  0  0  0  # atno 5555 bound_to 5539
  124.7559  241.8484  361.5030 H   0  0  0  0  0  0  0  0  0  0  0  0  # atno 8337 bound_to 8307
  124.8587  251.0204  367.1082 H   0  0  0  0  0  0  0  0  0  0  0  0  # atno 8491 bound_to 8475
  116.3748  244.4780  368.8559 H   0  0  0  0  0  0  0  0  0  0  0  0  # atno 8987 bound_to 8971
  123.1893  240.2111  361.6528 H   0  0  0  0  0  0  0  0  0  0  0  0  # atno 9091 bound_to 9061
  120.2008  254.1014  353.9415 H   0  0  0  0  0  0  0  0  0  0  0  0  # atno 12876 bound_to 12851
  122.6900  241.5230  360.8291 LP  0  0  0  0  0  0  0  0  0  0  0  0  # atno 13471 bound_to 9061
  123.5698  240.3702  360.0784 LP  0  0  0  0  0  0  0  0  0  0  0  0  # atno 13472 bound_to 9061
  115.4025  243.4238  368.0869 LP  0  0  0  0  0  0  0  0  0  0  0  0  # atno 13487 bound_to 8971
  115.1007  245.0265  368.0052 LP  0  0  0  0  0  0  0  0  0  0  0  0  # atno 13488 bound_to 8971
  120.8841  253.2042  355.1145 LP  0  0  0  0  0  0  0  0  0  0  0  0  # atno 13503 bound_to 12851
  121.7926  253.7695  353.8810 LP  0  0  0  0  0  0  0  0  0  0  0  0  # atno 13504 bound_to 12851
  127.2343  248.2777  361.9066 LP  0  0  0  0  0  0  0  0  0  0  0  0  # atno 13506 bound_to 5539
  128.0836  248.6526  363.2500 LP  0  0  0  0  0  0  0  0  0  0  0  0  # atno 13507 bound_to 5539
  126.3443  241.5082  361.4055 LP  0  0  0  0  0  0  0  0  0  0  0  0  # atno 13510 bound_to 8307
  125.7931  242.5230  362.5601 LP  0  0  0  0  0  0  0  0  0  0  0  0  # atno 13511 bound_to 8307
  124.2530  250.2047  365.8372 LP  0  0  0  0  0  0  0  0  0  0  0  0  # atno 13522 bound_to 8475
  124.6207  249.4145  367.2182 LP  0  0  0  0  0  0  0  0  0  0  0  0  # atno 13523 bound_to 8475

> <Gold.Score>
     Fitness  S(hb_ext) S(vdw_ext)  S(hb_int)    S(int)      intcor
     32.65       4.91      21.20       0.00      -1.41      -0.78

> <Gold.Goldscore.Fitness>
32.6498

> <Gold.Goldscore.Internal.Vdw>
-1.4539

> <Gold.Goldscore.Internal.Torsion>
-0.7271

> <Gold.Goldscore.External.Vdw>
21.1959

> <Gold.Goldscore.Internal.HBond>
0.0000

> <Gold.Goldscore.External.HBond>
4.9113

> <Gold.Goldscore.Internal.Correction>
-0.7752

> <Gold.Goldscore.Hbonds>
donor molecule, donor type, donor heavy atom, donor atom, acceptor molecule, acceptor atom, score
      P1  H  9502  9538       L1    17  0.11
      L1  H     8    22       P1  9337  0.71

> <Gold.Goldscore.Internal.Vdw.Weighted>
-1.4539

> <Gold.Goldscore.Internal.Torsion.Weighted>
-0.7271

> <Gold.Goldscore.External.Vdw.Weighted>
29.1444

> <Gold.Goldscore.Internal.HBond.Weighted>
0.0000

> <Gold.Goldscore.External.HBond.Weighted>
4.9113

> <Gold.Goldscore.Internal.Correction.Weighted>
-0.7752

> <Gold.Rescore>
     Score     S(PLP)   S(hbond)     S(cho)   S(metal)  DE(clash)   DE(tors)     intcor
     17.14     -16.16       0.99       0.00       0.00       1.25       0.38       ----

> <Gold.PLP.Fitness>
17.1363

> <Gold.PLP.PLP>
-16.1639

> <Gold.PLP.part.hbond>
-3.1799

> <Gold.PLP.part.metal>
0.0000

> <Gold.PLP.part.buried>
1.2017

> <Gold.PLP.part.nonpolar>
-17.4935

> <Gold.PLP.part.repulsive>
2.2537

> <Gold.PLP.ligand.clash>
1.2511

> <Gold.PLP.ligand.torsion>
0.3751

> <Gold.PLP.Chemscore.Hbond>
0.9913

> <Gold.PLP.Chemscore.CHOScore>
0.0000

> <Gold.PLP.Chemscore.Metal>
0.0000

> <Gold.Chemscore.Hbonds>
donor molecule, donor type, donor heavy atom, donor atom, acceptor molecule, acceptor atom, score
      L1  H     8    22       P1  9337  0.55
      P1  H  9502  9538       L1    17  0.42

> <Gold.PLP.Chemscore.Internal.Correction>
   9.000000E+99

#       Name:                CT1002167954
#       Creating user name   hitesit
#       Creation time:       Sun Apr 16 22:51:14 2023


#       File generated by GOLD software.
#

@<TRIPOS>MOLECULE
CT1002167954|ligand_prepared|mol2|1|dock10
    29    30     1
SMALL
NO_CHARGES


@<TRIPOS>ATOM
      1 C1         123.8009 244.6460 356.5439 C.3            1 RES1               0.0000
      2 C2         124.1209 245.3238 355.1959 C.ar           1 RES1               0.0000
      3 C3         123.9123 245.7342 357.6077 C.2            1 RES1               0.0000
      4 C4         122.4027 244.0547 356.4028 C.2            1 RES1               0.0000
      5 C5         124.7701 243.4984 356.9118 C.3            1 RES1               0.0000
      6 C6         123.5647 246.5581 354.8737 C.ar           1 RES1               0.0000
      7 C7         124.9711 244.7293 354.2672 C.ar           1 RES1               0.0000
      8 N8         122.7541 246.2116 358.1468 N.am           1 RES1               0.0000
      9 O9         124.9977 246.1944 357.9399 O.2            1 RES1               0.0000
     10 N10        121.4031 244.5770 357.1810 N.am           1 RES1               0.0000
     11 O11        122.1541 243.1523 355.6127 O.2            1 RES1               0.0000
     12 C12        124.5539 242.9374 358.3084 C.3            1 RES1               0.0000
     13 C13        123.8503 247.1772 353.6681 C.ar           1 RES1               0.0000
     14 C14        125.2552 245.3501 353.0620 C.ar           1 RES1               0.0000
     15 C15        121.5089 245.6493 358.0244 C.2            1 RES1               0.0000
     16 C16        124.6959 246.5739 352.7618 C.ar           1 RES1               0.0000
     17 O17        120.5513 246.0953 358.6498 O.2            1 RES1               0.0000
     18 H18        124.6499 242.6874 356.1830 H              1 RES1               0.0000
     19 H19        125.8001 243.8680 356.8354 H              1 RES1               0.0000
     20 H20        122.8950 247.0469 355.5735 H              1 RES1               0.0000
     21 H21        125.4216 243.7662 354.4816 H              1 RES1               0.0000
     22 H22        122.8199 247.0657 358.6914 H              1 RES1               0.0000
     23 H23        120.4961 244.1246 357.1267 H              1 RES1               0.0000
     24 H24        125.2595 242.1355 358.5155 H              1 RES1               0.0000
     25 H25        124.6905 243.7116 359.0606 H              1 RES1               0.0000
     26 H26        123.5471 242.5380 358.4121 H              1 RES1               0.0000
     27 H27        123.4065 248.1397 353.4360 H              1 RES1               0.0000
     28 H28        125.9208 244.8713 352.3514 H              1 RES1               0.0000
     29 H29        124.9198 247.0593 351.8176 H              1 RES1               0.0000
@<TRIPOS>BOND
    1    1    2 1     
    2    1    3 1     
    3    1    4 1     
    4    1    5 1     
    5    2    6 ar    
    6    2    7 ar    
    7    3    8 1     
    8    3    9 2     
    9    4   10 1     
   10    4   11 2     
   11    5   12 1     
   12    5   18 1     
   13    5   19 1     
   14    6   13 ar    
   15    6   20 1     
   16    7   14 ar    
   17    7   21 1     
   18    8   15 1     
   19    8   22 1     
   20   10   15 1     
   21   10   23 1     
   22   12   24 1     
   23   12   25 1     
   24   12   26 1     
   25   13   16 ar    
   26   13   27 1     
   27   14   16 ar    
   28   14   28 1     
   29   15   17 2     
   30   16   29 1     
@<TRIPOS>SUBSTRUCTURE
      1 RES1           1
@<TRIPOS>SET
DONOR_HYDROGENS      STATIC     ATOMS    <user>   **** ""
2 22 23
ATOM$RED        STATIC     ATOMS    COLORGROUP SYSTEM
2 22 23
@<TRIPOS>COMMENT
> <Gold.Version>
2022.3.0

> <Gold.Id.Protein>
unknown|5adf_clean|pdb

> <Gold.Protein.RotatedTorsions>
[ 9091 9061 9060 9058 ] final  -57.75 input   60.03 | X-H torsion
[ 8987 8971 8970 8967 ] final -115.54 input   59.98 | X-H torsion
[ 12876 12851 12850 12848 ] final  -16.68 input   59.99 | X-H torsion
[ 5555 5539 5538 5535 ] final   65.00 input   60.00 | X-H torsion
[ 8337 8307 8306 8304 ] final   -1.30 input   59.97 | X-H torsion
[ 8491 8475 8474 8471 ] final -119.39 input   60.02 | X-H torsion

> <Gold.Protein.ActiveResidues>
 MET341  HIS342  TRP414  ALA417  ARG419  CYS420  VAL421  GLY422  LEU460  SER462 
 ASN481  SER482  GLN483  LEU484  ARG486  ALA502  ASN503  TRP566  TYR567  GLY568 
 LEU569  PRO570  ALA571  VAL572  SER573  ASN574  MET575  LEU576  PHE589  SER590 
 GLY591  TRP592  TYR593  MET594  GLY595  GLU597  ILE598  ARG601  ASP602  ARG608 
 ILE653  VAL654  TRP683  PHE709  GLU710  TYR711  GLN712  ASP714  HEM750  H4B760 

> <Gold.Protein.RotatedAtoms>
  127.1645  248.2376  362.3951 H   0  0  0  0  0  0  0  0  0  0  0  0  # atno 5555 bound_to 5539
  124.7336  242.2044  361.9437 H   0  0  0  0  0  0  0  0  0  0  0  0  # atno 8337 bound_to 8307
  124.4532  249.2932  366.8253 H   0  0  0  0  0  0  0  0  0  0  0  0  # atno 8491 bound_to 8475
  116.2864  244.7505  368.8159 H   0  0  0  0  0  0  0  0  0  0  0  0  # atno 8987 bound_to 8971
  123.5384  240.4375  360.0446 H   0  0  0  0  0  0  0  0  0  0  0  0  # atno 9091 bound_to 9061
  121.3506  253.1795  354.9887 H   0  0  0  0  0  0  0  0  0  0  0  0  # atno 12876 bound_to 12851
  123.2355  240.1533  361.6183 LP  0  0  0  0  0  0  0  0  0  0  0  0  # atno 13471 bound_to 9061
  122.6729  241.5119  360.9080 LP  0  0  0  0  0  0  0  0  0  0  0  0  # atno 13472 bound_to 9061
  115.6386  243.3695  368.2489 LP  0  0  0  0  0  0  0  0  0  0  0  0  # atno 13487 bound_to 8971
  114.9537  244.8063  367.8836 LP  0  0  0  0  0  0  0  0  0  0  0  0  # atno 13488 bound_to 8971
  121.4840  254.0169  353.6000 LP  0  0  0  0  0  0  0  0  0  0  0  0  # atno 13503 bound_to 12851
  120.0350  253.8849  354.3412 LP  0  0  0  0  0  0  0  0  0  0  0  0  # atno 13504 bound_to 12851
  128.5052  248.8544  363.0807 LP  0  0  0  0  0  0  0  0  0  0  0  0  # atno 13506 bound_to 5539
  128.3597  248.8163  361.4546 LP  0  0  0  0  0  0  0  0  0  0  0  0  # atno 13507 bound_to 5539
  125.8656  241.3666  361.1284 LP  0  0  0  0  0  0  0  0  0  0  0  0  # atno 13510 bound_to 8307
  126.2942  242.3061  362.3934 LP  0  0  0  0  0  0  0  0  0  0  0  0  # atno 13511 bound_to 8307
  124.9286  250.7259  367.4330 LP  0  0  0  0  0  0  0  0  0  0  0  0  # atno 13522 bound_to 8475
  124.3536  250.6330  365.9074 LP  0  0  0  0  0  0  0  0  0  0  0  0  # atno 13523 bound_to 8475

> <Gold.Score>
     Fitness  S(hb_ext) S(vdw_ext)  S(hb_int)    S(int)      intcor
     32.49       4.73      20.29       0.00      -0.14      -0.76

> <Gold.Goldscore.Fitness>
32.4917

> <Gold.Goldscore.Internal.Vdw>
-0.4703

> <Gold.Goldscore.Internal.Torsion>
-0.4395

> <Gold.Goldscore.External.Vdw>
20.2930

> <Gold.Goldscore.Internal.HBond>
0.0000

> <Gold.Goldscore.External.HBond>
4.7337

> <Gold.Goldscore.Internal.Correction>
-0.7650

> <Gold.Goldscore.Hbonds>
donor molecule, donor type, donor heavy atom, donor atom, acceptor molecule, acceptor atom, score
      L1  H    10    23       P1  9175  0.79

> <Gold.Goldscore.Internal.Vdw.Weighted>
-0.4703

> <Gold.Goldscore.Internal.Torsion.Weighted>
-0.4395

> <Gold.Goldscore.External.Vdw.Weighted>
27.9029

> <Gold.Goldscore.Internal.HBond.Weighted>
0.0000

> <Gold.Goldscore.External.HBond.Weighted>
4.7337

> <Gold.Goldscore.Internal.Correction.Weighted>
-0.7650

> <Gold.Rescore>
     Score     S(PLP)   S(hbond)     S(cho)   S(metal)  DE(clash)   DE(tors)     intcor
     15.83     -15.07       1.00       0.00       0.00       0.00       1.12       ----

> <Gold.PLP.Fitness>
15.8253

> <Gold.PLP.PLP>
-15.0739

> <Gold.PLP.part.hbond>
-2.9473

> <Gold.PLP.part.metal>
0.0000

> <Gold.PLP.part.buried>
1.5765

> <Gold.PLP.part.nonpolar>
-16.5891

> <Gold.PLP.part.repulsive>
1.6941

> <Gold.PLP.ligand.clash>
0.0000

> <Gold.PLP.ligand.torsion>
1.1243

> <Gold.PLP.Chemscore.Hbond>
1.0000

> <Gold.PLP.Chemscore.CHOScore>
0.0000

> <Gold.PLP.Chemscore.Metal>
0.0000

> <Gold.Chemscore.Hbonds>
donor molecule, donor type, donor heavy atom, donor atom, acceptor molecule, acceptor atom, score
      L1  H    10    23       P1  9175  1.00

> <Gold.PLP.Chemscore.Internal.Correction>
   9.000000E+99

#       Name:                CT1002167954
#       Creating user name   hitesit
#       Creation time:       Sun Apr 16 22:51:12 2023


#       File generated by GOLD software.
#

@<TRIPOS>MOLECULE
CT1002167954|ligand_prepared|mol2|1|dock8
    29    30     1
SMALL
NO_CHARGES


@<TRIPOS>ATOM
      1 C1         123.3689 244.8430 357.1641 C.3            1 RES1               0.0000
      2 C2         122.0851 244.8013 358.0178 C.ar           1 RES1               0.0000
      3 C3         124.4138 245.5792 357.9974 C.2            1 RES1               0.0000
      4 C4         123.7257 243.3924 356.8590 C.2            1 RES1               0.0000
      5 C5         123.2007 245.5867 355.8186 C.3            1 RES1               0.0000
      6 C6         122.0752 244.1576 359.2516 C.ar           1 RES1               0.0000
      7 C7         120.9058 245.4030 357.5867 C.ar           1 RES1               0.0000
      8 N8         125.4126 244.8380 358.5568 N.am           1 RES1               0.0000
      9 O9         124.3402 246.7860 358.1935 O.2            1 RES1               0.0000
     10 N10        124.8854 242.8912 357.3898 N.am           1 RES1               0.0000
     11 O11        123.0048 242.6740 356.1776 O.2            1 RES1               0.0000
     12 C12        124.4127 245.4849 354.9061 C.3            1 RES1               0.0000
     13 C13        120.9287 244.1195 360.0279 C.ar           1 RES1               0.0000
     14 C14        119.7603 245.3635 358.3645 C.ar           1 RES1               0.0000
     15 C15        125.7294 243.5391 358.2501 C.2            1 RES1               0.0000
     16 C16        119.7708 244.7226 359.5852 C.ar           1 RES1               0.0000
     17 O17        126.7249 243.0030 358.7285 O.2            1 RES1               0.0000
     18 H18        122.3288 245.1760 355.2948 H              1 RES1               0.0000
     19 H19        123.0007 246.6458 356.0232 H              1 RES1               0.0000
     20 H20        122.9763 243.6752 359.6154 H              1 RES1               0.0000
     21 H21        120.8739 245.9119 356.6293 H              1 RES1               0.0000
     22 H22        125.9759 245.2914 359.2692 H              1 RES1               0.0000
     23 H23        125.1435 241.9478 357.1183 H              1 RES1               0.0000
     24 H24        124.2419 246.0237 353.9765 H              1 RES1               0.0000
     25 H25        125.2932 245.9073 355.3857 H              1 RES1               0.0000
     26 H26        124.6253 244.4462 354.6616 H              1 RES1               0.0000
     27 H27        120.9418 243.6127 360.9872 H              1 RES1               0.0000
     28 H28        118.8511 245.8390 358.0118 H              1 RES1               0.0000
     29 H29        118.8730 244.6929 360.1936 H              1 RES1               0.0000
@<TRIPOS>BOND
    1    1    2 1     
    2    1    3 1     
    3    1    4 1     
    4    1    5 1     
    5    2    6 ar    
    6    2    7 ar    
    7    3    8 1     
    8    3    9 2     
    9    4   10 1     
   10    4   11 2     
   11    5   12 1     
   12    5   18 1     
   13    5   19 1     
   14    6   13 ar    
   15    6   20 1     
   16    7   14 ar    
   17    7   21 1     
   18    8   15 1     
   19    8   22 1     
   20   10   15 1     
   21   10   23 1     
   22   12   24 1     
   23   12   25 1     
   24   12   26 1     
   25   13   16 ar    
   26   13   27 1     
   27   14   16 ar    
   28   14   28 1     
   29   15   17 2     
   30   16   29 1     
@<TRIPOS>SUBSTRUCTURE
      1 RES1           1
@<TRIPOS>SET
DONOR_HYDROGENS      STATIC     ATOMS    <user>   **** ""
2 22 23
ATOM$RED        STATIC     ATOMS    COLORGROUP SYSTEM
2 22 23
@<TRIPOS>COMMENT
> <Gold.Version>
2022.3.0

> <Gold.Id.Protein>
unknown|5adf_clean|pdb

> <Gold.Protein.RotatedTorsions>
[ 9091 9061 9060 9058 ] final   73.31 input   60.03 | X-H torsion
[ 8987 8971 8970 8967 ] final  108.82 input   59.98 | X-H torsion
[ 12876 12851 12850 12848 ] final  -21.52 input   59.99 | X-H torsion
[ 5555 5539 5538 5535 ] final  176.04 input   60.00 | X-H torsion
[ 8337 8307 8306 8304 ] final   12.90 input   59.97 | X-H torsion
[ 8491 8475 8474 8471 ] final  -74.02 input   60.02 | X-H torsion

> <Gold.Protein.ActiveResidues>
 MET341  HIS342  TRP414  ALA417  ARG419  CYS420  VAL421  GLY422  LEU460  SER462 
 ASN481  SER482  GLN483  LEU484  ARG486  ALA502  ASN503  TRP566  TYR567  GLY568 
 LEU569  PRO570  ALA571  VAL572  SER573  ASN574  MET575  LEU576  PHE589  SER590 
 GLY591  TRP592  TYR593  MET594  GLY595  GLU597  ILE598  ARG601  ASP602  ARG608 
 ILE653  VAL654  TRP683  PHE709  GLU710  TYR711  GLN712  ASP714  HEM750  H4B760 

> <Gold.Protein.RotatedAtoms>
  128.2320  248.7589  361.4100 H   0  0  0  0  0  0  0  0  0  0  0  0  # atno 5555 bound_to 5539
  124.8212  242.3290  362.1178 H   0  0  0  0  0  0  0  0  0  0  0  0  # atno 8337 bound_to 8307
  124.2554  249.5296  366.1724 H   0  0  0  0  0  0  0  0  0  0  0  0  # atno 8491 bound_to 8475
  115.4327  243.4190  368.1056 H   0  0  0  0  0  0  0  0  0  0  0  0  # atno 8987 bound_to 8971
  122.6488  241.4591  361.0799 H   0  0  0  0  0  0  0  0  0  0  0  0  # atno 9091 bound_to 9061
  121.4193  253.1877  354.9505 H   0  0  0  0  0  0  0  0  0  0  0  0  # atno 12876 bound_to 12851
  123.4735  240.5926  359.9763 LP  0  0  0  0  0  0  0  0  0  0  0  0  # atno 13471 bound_to 9061
  123.3303  240.0444  361.5079 LP  0  0  0  0  0  0  0  0  0  0  0  0  # atno 13472 bound_to 9061
  115.0801  245.0034  367.9888 LP  0  0  0  0  0  0  0  0  0  0  0  0  # atno 13487 bound_to 8971
  116.3721  244.5136  368.8591 LP  0  0  0  0  0  0  0  0  0  0  0  0  # atno 13488 bound_to 8971
  121.4180  254.0504  353.5708 LP  0  0  0  0  0  0  0  0  0  0  0  0  # atno 13503 bound_to 12851
  120.0319  253.8432  354.4089 LP  0  0  0  0  0  0  0  0  0  0  0  0  # atno 13504 bound_to 12851
  127.1826  248.2415  362.5409 LP  0  0  0  0  0  0  0  0  0  0  0  0  # atno 13506 bound_to 5539
  128.6070  248.9040  362.9868 LP  0  0  0  0  0  0  0  0  0  0  0  0  # atno 13507 bound_to 5539
  125.6366  241.3708  361.0858 LP  0  0  0  0  0  0  0  0  0  0  0  0  # atno 13510 bound_to 8307
  126.4350  242.1764  362.2606 LP  0  0  0  0  0  0  0  0  0  0  0  0  # atno 13511 bound_to 8307
  124.8660  250.0206  367.5986 LP  0  0  0  0  0  0  0  0  0  0  0  0  # atno 13522 bound_to 8475
  124.6154  251.1002  366.3993 LP  0  0  0  0  0  0  0  0  0  0  0  0  # atno 13523 bound_to 8475

> <Gold.Score>
     Fitness  S(hb_ext) S(vdw_ext)  S(hb_int)    S(int)      intcor
     30.42       4.34      19.60       0.00      -0.87      -0.77

> <Gold.Goldscore.Fitness>
30.4171

> <Gold.Goldscore.Internal.Vdw>
-1.1929

> <Gold.Goldscore.Internal.Torsion>
-0.4412

> <Gold.Goldscore.External.Vdw>
19.5963

> <Gold.Goldscore.Internal.HBond>
0.0000

> <Gold.Goldscore.External.HBond>
4.3376

> <Gold.Goldscore.Internal.Correction>
-0.7686

> <Gold.Goldscore.Hbonds>
donor molecule, donor type, donor heavy atom, donor atom, acceptor molecule, acceptor atom, score
      P1  H  9502  9538       L1    17  0.10
      L1  H    10    23       P1  9336  0.20
      L1  H    10    23       P1  9337  0.43

> <Gold.Goldscore.Internal.Vdw.Weighted>
-1.1929

> <Gold.Goldscore.Internal.Torsion.Weighted>
-0.4412

> <Gold.Goldscore.External.Vdw.Weighted>
26.9449

> <Gold.Goldscore.Internal.HBond.Weighted>
0.0000

> <Gold.Goldscore.External.HBond.Weighted>
4.3376

> <Gold.Goldscore.Internal.Correction.Weighted>
-0.7686

> <Gold.Rescore>
     Score     S(PLP)   S(hbond)     S(cho)   S(metal)  DE(clash)   DE(tors)     intcor
     28.31     -25.71       1.68       0.00       0.00       1.93       0.26       ----

> <Gold.PLP.Fitness>
28.3145

> <Gold.PLP.PLP>
-25.7108

> <Gold.PLP.part.hbond>
-5.0000

> <Gold.PLP.part.metal>
0.0000

> <Gold.PLP.part.buried>
5.3724

> <Gold.PLP.part.nonpolar>
-28.5091

> <Gold.PLP.part.repulsive>
0.9684

> <Gold.PLP.ligand.clash>
1.9269

> <Gold.PLP.ligand.torsion>
0.2556

> <Gold.PLP.Chemscore.Hbond>
1.6806

> <Gold.PLP.Chemscore.CHOScore>
0.0000

> <Gold.PLP.Chemscore.Metal>
0.0000

> <Gold.Chemscore.Hbonds>
donor molecule, donor type, donor heavy atom, donor atom, acceptor molecule, acceptor atom, score
      L1  H    10    23       P1  9336  0.68
      P1  H  5676  5702       L1    17  0.21
      P1  H  9502  9538       L1    17  0.91

> <Gold.PLP.Chemscore.Internal.Correction>
   9.000000E+99

#       Name:                CT1002167954
#       Creating user name   hitesit
#       Creation time:       Sun Apr 16 22:51:10 2023


#       File generated by GOLD software.
#

@<TRIPOS>MOLECULE
CT1002167954|ligand_prepared|mol2|1|dock6
    29    30     1
SMALL
NO_CHARGES


@<TRIPOS>ATOM
      1 C1         121.5480 248.7678 357.8181 C.3            1 RES1               0.0000
      2 C2         120.2496 248.0334 358.2098 C.ar           1 RES1               0.0000
      3 C3         121.8963 249.6780 358.9921 C.2            1 RES1               0.0000
      4 C4         122.5845 247.6841 357.5423 C.2            1 RES1               0.0000
      5 C5         121.4149 249.6365 356.5456 C.3            1 RES1               0.0000
      6 C6         119.0689 248.7413 358.4134 C.ar           1 RES1               0.0000
      7 C7         120.2163 246.6505 358.3684 C.ar           1 RES1               0.0000
      8 N8         122.9404 249.3103 359.7886 N.am           1 RES1               0.0000
      9 O9         121.2398 250.6823 359.2387 O.2            1 RES1               0.0000
     10 N10        123.6656 247.6014 358.3802 N.am           1 RES1               0.0000
     11 O11        122.4662 246.8905 356.6168 O.2            1 RES1               0.0000
     12 C12        122.7073 250.3246 356.1351 C.3            1 RES1               0.0000
     13 C13        117.8966 248.0902 358.7600 C.ar           1 RES1               0.0000
     14 C14        119.0429 246.0013 358.7153 C.ar           1 RES1               0.0000
     15 C15        123.8749 248.3458 359.5091 C.2            1 RES1               0.0000
     16 C16        117.8827 246.7199 358.9108 C.ar           1 RES1               0.0000
     17 O17        124.8447 248.1759 360.2425 O.2            1 RES1               0.0000
     18 H18        121.0749 249.0013 355.7184 H              1 RES1               0.0000
     19 H19        120.6475 250.4010 356.7187 H              1 RES1               0.0000
     20 H20        119.0611 249.8204 358.3016 H              1 RES1               0.0000
     21 H21        121.1173 246.0649 358.2207 H              1 RES1               0.0000
     22 H22        123.0352 249.7975 360.6741 H              1 RES1               0.0000
     23 H23        124.3806 246.9222 358.1401 H              1 RES1               0.0000
     24 H24        122.5585 250.9208 355.2373 H              1 RES1               0.0000
     25 H25        123.0610 250.9840 356.9250 H              1 RES1               0.0000
     26 H26        123.4859 249.5926 355.9306 H              1 RES1               0.0000
     27 H27        116.9865 248.6605 358.9140 H              1 RES1               0.0000
     28 H28        119.0367 244.9228 358.8335 H              1 RES1               0.0000
     29 H29        116.9641 246.2101 359.1819 H              1 RES1               0.0000
@<TRIPOS>BOND
    1    1    2 1     
    2    1    3 1     
    3    1    4 1     
    4    1    5 1     
    5    2    6 ar    
    6    2    7 ar    
    7    3    8 1     
    8    3    9 2     
    9    4   10 1     
   10    4   11 2     
   11    5   12 1     
   12    5   18 1     
   13    5   19 1     
   14    6   13 ar    
   15    6   20 1     
   16    7   14 ar    
   17    7   21 1     
   18    8   15 1     
   19    8   22 1     
   20   10   15 1     
   21   10   23 1     
   22   12   24 1     
   23   12   25 1     
   24   12   26 1     
   25   13   16 ar    
   26   13   27 1     
   27   14   16 ar    
   28   14   28 1     
   29   15   17 2     
   30   16   29 1     
@<TRIPOS>SUBSTRUCTURE
      1 RES1           1
@<TRIPOS>SET
DONOR_HYDROGENS      STATIC     ATOMS    <user>   **** ""
2 22 23
ATOM$RED        STATIC     ATOMS    COLORGROUP SYSTEM
2 22 23
@<TRIPOS>COMMENT
> <Gold.Version>
2022.3.0

> <Gold.Id.Protein>
unknown|5adf_clean|pdb

> <Gold.Protein.RotatedTorsions>
[ 9091 9061 9060 9058 ] final  -59.53 input   60.03 | X-H torsion
[ 8987 8971 8970 8967 ] final  -25.82 input   59.98 | X-H torsion
[ 12876 12851 12850 12848 ] final  159.39 input   59.99 | X-H torsion
[ 5555 5539 5538 5535 ] final  105.82 input   60.00 | X-H torsion
[ 8337 8307 8306 8304 ] final  -74.11 input   59.97 | X-H torsion
[ 8491 8475 8474 8471 ] final -152.80 input   60.02 | X-H torsion

> <Gold.Protein.ActiveResidues>
 MET341  HIS342  TRP414  ALA417  ARG419  CYS420  VAL421  GLY422  LEU460  SER462 
 ASN481  SER482  GLN483  LEU484  ARG486  ALA502  ASN503  TRP566  TYR567  GLY568 
 LEU569  PRO570  ALA571  VAL572  SER573  ASN574  MET575  LEU576  PHE589  SER590 
 GLY591  TRP592  TYR593  MET594  GLY595  GLU597  ILE598  ARG601  ASP602  ARG608 
 ILE653  VAL654  TRP683  PHE709  GLU710  TYR711  GLN712  ASP714  HEM750  H4B760 

> <Gold.Protein.RotatedAtoms>
  127.3150  248.3203  361.7651 H   0  0  0  0  0  0  0  0  0  0  0  0  # atno 5555 bound_to 5539
  125.1295  241.5166  361.1658 H   0  0  0  0  0  0  0  0  0  0  0  0  # atno 8337 bound_to 8307
  124.6552  249.4749  367.2899 H   0  0  0  0  0  0  0  0  0  0  0  0  # atno 8491 bound_to 8475
  115.2391  245.1357  368.1094 H   0  0  0  0  0  0  0  0  0  0  0  0  # atno 8987 bound_to 8971
  123.5482  240.4135  360.0576 H   0  0  0  0  0  0  0  0  0  0  0  0  # atno 9091 bound_to 9061
  120.5090  254.2027  353.6671 H   0  0  0  0  0  0  0  0  0  0  0  0  # atno 12876 bound_to 12851
  123.2199  240.1728  361.6334 LP  0  0  0  0  0  0  0  0  0  0  0  0  # atno 13471 bound_to 9061
  122.6786  241.5166  360.8798 LP  0  0  0  0  0  0  0  0  0  0  0  0  # atno 13472 bound_to 9061
  116.3990  244.2747  368.8586 LP  0  0  0  0  0  0  0  0  0  0  0  0  # atno 13487 bound_to 8971
  115.2482  243.5131  367.9855 LP  0  0  0  0  0  0  0  0  0  0  0  0  # atno 13488 bound_to 8971
  120.4838  253.3392  355.0461 LP  0  0  0  0  0  0  0  0  0  0  0  0  # atno 13503 bound_to 12851
  121.8825  253.5325  354.2257 LP  0  0  0  0  0  0  0  0  0  0  0  0  # atno 13504 bound_to 12851
  127.9312  248.5808  363.2485 LP  0  0  0  0  0  0  0  0  0  0  0  0  # atno 13506 bound_to 5539
  128.7822  249.0066  361.9214 LP  0  0  0  0  0  0  0  0  0  0  0  0  # atno 13507 bound_to 5539
  126.5631  241.8390  361.8651 LP  0  0  0  0  0  0  0  0  0  0  0  0  # atno 13510 bound_to 8307
  125.1980  242.5264  362.4400 LP  0  0  0  0  0  0  0  0  0  0  0  0  # atno 13511 bound_to 8307
  124.8387  251.0696  367.0236 LP  0  0  0  0  0  0  0  0  0  0  0  0  # atno 13522 bound_to 8475
  124.2401  250.1063  365.8488 LP  0  0  0  0  0  0  0  0  0  0  0  0  # atno 13523 bound_to 8475

> <Gold.Score>
     Fitness  S(hb_ext) S(vdw_ext)  S(hb_int)    S(int)      intcor
     27.89       0.00      22.36       0.00      -2.86      -0.78

> <Gold.Goldscore.Fitness>
27.8900

> <Gold.Goldscore.Internal.Vdw>
-3.2594

> <Gold.Goldscore.Internal.Torsion>
-0.3716

> <Gold.Goldscore.External.Vdw>
22.3606

> <Gold.Goldscore.Internal.HBond>
0.0000

> <Gold.Goldscore.External.HBond>
0.0000

> <Gold.Goldscore.Internal.Correction>
-0.7752

> <Gold.Goldscore.Internal.Vdw.Weighted>
-3.2594

> <Gold.Goldscore.Internal.Torsion.Weighted>
-0.3716

> <Gold.Goldscore.External.Vdw.Weighted>
30.7458

> <Gold.Goldscore.Internal.HBond.Weighted>
0.0000

> <Gold.Goldscore.External.HBond.Weighted>
0.0000

> <Gold.Goldscore.Internal.Correction.Weighted>
-0.7752

> <Gold.Rescore>
     Score     S(PLP)   S(hbond)     S(cho)   S(metal)  DE(clash)   DE(tors)     intcor
     32.93     -34.45       0.00       0.00       0.00       1.45       0.03       ----

> <Gold.PLP.Fitness>
32.9317

> <Gold.PLP.PLP>
-34.4464

> <Gold.PLP.part.hbond>
-0.7552

> <Gold.PLP.part.metal>
0.0000

> <Gold.PLP.part.buried>
-2.2468

> <Gold.PLP.part.nonpolar>
-34.2554

> <Gold.PLP.part.repulsive>
1.4580

> <Gold.PLP.ligand.clash>
1.4500

> <Gold.PLP.ligand.torsion>
0.0323

> <Gold.PLP.Chemscore.Hbond>
0.0000

> <Gold.PLP.Chemscore.CHOScore>
0.0000

> <Gold.PLP.Chemscore.Metal>
0.0000

> <Gold.PLP.Chemscore.Internal.Correction>
   9.000000E+99

