#       Name:                CT1002167954
#       Creating user name   hitesit
#       Creation time:       Sun Apr 16 22:51:09 2023


#       File generated by GOLD software.
#

@<TRIPOS>MOLECULE
CT1002167954|ligand_prepared|mol2|1|dock4
    29    30     1
SMALL
NO_CHARGES


@<TRIPOS>ATOM
      1 C1         118.0664 245.5155 359.4474 C.3            1 RES1               0.0000
      2 C2         119.5281 245.1209 359.1533 C.ar           1 RES1               0.0000
      3 C3         117.2075 244.7625 358.4357 C.2            1 RES1               0.0000
      4 C4         117.8034 245.1269 360.8981 C.2            1 RES1               0.0000
      5 C5         117.7860 247.0291 359.2998 C.3            1 RES1               0.0000
      6 C6         119.8901 243.7827 359.0317 C.ar           1 RES1               0.0000
      7 C7         120.5233 246.0823 358.9986 C.ar           1 RES1               0.0000
      8 N8         116.4826 243.7000 358.8889 N.am           1 RES1               0.0000
      9 O9         117.1971 245.0719 357.2506 O.2            1 RES1               0.0000
     10 N10        116.8903 244.1346 361.1417 N.am           1 RES1               0.0000
     11 O11        118.3908 245.6597 361.8316 O.2            1 RES1               0.0000
     12 C12        116.3407 247.4144 359.5734 C.3            1 RES1               0.0000
     13 C13        121.1990 243.4187 358.7623 C.ar           1 RES1               0.0000
     14 C14        121.8317 245.7161 358.7294 C.ar           1 RES1               0.0000
     15 C15        116.2406 243.3824 360.2013 C.2            1 RES1               0.0000
     16 C16        122.1705 244.3850 358.6105 C.ar           1 RES1               0.0000
     17 O17        115.4746 242.4702 360.4984 O.2            1 RES1               0.0000
     18 H18        118.4350 247.5777 359.9935 H              1 RES1               0.0000
     19 H19        118.0470 247.3388 358.2803 H              1 RES1               0.0000
     20 H20        119.1398 243.0082 359.1504 H              1 RES1               0.0000
     21 H21        120.2800 247.1355 359.0889 H              1 RES1               0.0000
     22 H22        116.0836 243.0846 358.1872 H              1 RES1               0.0000
     23 H23        116.6748 243.9386 362.1140 H              1 RES1               0.0000
     24 H24        116.1985 248.4867 359.4560 H              1 RES1               0.0000
     25 H25        115.6690 246.9062 358.8847 H              1 RES1               0.0000
     26 H26        116.0547 247.1437 360.5876 H              1 RES1               0.0000
     27 H27        121.4608 242.3697 358.6710 H              1 RES1               0.0000
     28 H28        122.5932 246.4800 358.6113 H              1 RES1               0.0000
     29 H29        123.1958 244.0997 358.3991 H              1 RES1               0.0000
@<TRIPOS>BOND
    1    1    2 1     
    2    1    3 1     
    3    1    4 1     
    4    1    5 1     
    5    2    6 ar    
    6    2    7 ar    
    7    3    8 1     
    8    3    9 2     
    9    4   10 1     
   10    4   11 2     
   11    5   12 1     
   12    5   18 1     
   13    5   19 1     
   14    6   13 ar    
   15    6   20 1     
   16    7   14 ar    
   17    7   21 1     
   18    8   15 1     
   19    8   22 1     
   20   10   15 1     
   21   10   23 1     
   22   12   24 1     
   23   12   25 1     
   24   12   26 1     
   25   13   16 ar    
   26   13   27 1     
   27   14   16 ar    
   28   14   28 1     
   29   15   17 2     
   30   16   29 1     
@<TRIPOS>SUBSTRUCTURE
      1 RES1           1
@<TRIPOS>SET
DONOR_HYDROGENS      STATIC     ATOMS    <user>   **** ""
2 22 23
ATOM$RED        STATIC     ATOMS    COLORGROUP SYSTEM
2 22 23
@<TRIPOS>COMMENT
> <Gold.Version>
2022.3.0

> <Gold.Id.Protein>
unknown|5adf_clean|pdb

> <Gold.Protein.RotatedTorsions>
[ 9091 9061 9060 9058 ] final  110.08 input   60.03 | X-H torsion
[ 8987 8971 8970 8967 ] final  -61.36 input   59.98 | X-H torsion
[ 12876 12851 12850 12848 ] final  -43.28 input   59.99 | X-H torsion
[ 5555 5539 5538 5535 ] final   76.26 input   60.00 | X-H torsion
[ 8337 8307 8306 8304 ] final  -55.82 input   59.97 | X-H torsion
[ 8491 8475 8474 8471 ] final -139.04 input   60.02 | X-H torsion

> <Gold.Protein.ActiveResidues>
 MET341  HIS342  TRP414  ALA417  ARG419  CYS420  VAL421  GLY422  LEU460  SER462 
 ASN481  SER482  GLN483  LEU484  ARG486  ALA502  ASN503  TRP566  TYR567  GLY568 
 LEU569  PRO570  ALA571  VAL572  SER573  ASN574  MET575  LEU576  PHE589  SER590 
 GLY591  TRP592  TYR593  MET594  GLY595  GLU597  ILE598  ARG601  ASP602  ARG608 
 ILE653  VAL654  TRP683  PHE709  GLU710  TYR711  GLN712  ASP714  HEM750  H4B760 

> <Gold.Protein.RotatedAtoms>
  127.1645  248.2410  362.2115 H   0  0  0  0  0  0  0  0  0  0  0  0  # atno 5555 bound_to 5539
  124.9091  241.6626  361.3025 H   0  0  0  0  0  0  0  0  0  0  0  0  # atno 8337 bound_to 8307
  124.5713  249.3648  367.1134 H   0  0  0  0  0  0  0  0  0  0  0  0  # atno 8491 bound_to 8475
  115.6951  245.2357  368.4389 H   0  0  0  0  0  0  0  0  0  0  0  0  # atno 8987 bound_to 8971
  122.6990  241.1198  361.5609 H   0  0  0  0  0  0  0  0  0  0  0  0  # atno 9091 bound_to 9061
  121.6810  253.2679  354.7269 H   0  0  0  0  0  0  0  0  0  0  0  0  # atno 12876 bound_to 12851
  123.1733  241.1052  360.0041 LP  0  0  0  0  0  0  0  0  0  0  0  0  # atno 13471 bound_to 9061
  123.5800  239.8733  360.9959 LP  0  0  0  0  0  0  0  0  0  0  0  0  # atno 13472 bound_to 9061
  116.2596  243.7348  368.7162 LP  0  0  0  0  0  0  0  0  0  0  0  0  # atno 13487 bound_to 8971
  114.9283  243.9523  367.7960 LP  0  0  0  0  0  0  0  0  0  0  0  0  # atno 13488 bound_to 8971
  121.0876  254.1665  353.5070 LP  0  0  0  0  0  0  0  0  0  0  0  0  # atno 13503 bound_to 12851
  120.0987  253.6464  354.6978 LP  0  0  0  0  0  0  0  0  0  0  0  0  # atno 13504 bound_to 12851
  128.3603  248.7844  363.1720 LP  0  0  0  0  0  0  0  0  0  0  0  0  # atno 13506 bound_to 5539
  128.5047  248.8829  361.5484 LP  0  0  0  0  0  0  0  0  0  0  0  0  # atno 13507 bound_to 5539
  126.5029  241.6619  361.6310 LP  0  0  0  0  0  0  0  0  0  0  0  0  # atno 13510 bound_to 8307
  125.4801  242.5565  362.5366 LP  0  0  0  0  0  0  0  0  0  0  0  0  # atno 13511 bound_to 8307
  124.8886  250.9576  367.2133 LP  0  0  0  0  0  0  0  0  0  0  0  0  # atno 13522 bound_to 8475
  124.2746  250.3292  365.8368 LP  0  0  0  0  0  0  0  0  0  0  0  0  # atno 13523 bound_to 8475

> <Gold.Score>
     Fitness  S(hb_ext) S(vdw_ext)  S(hb_int)    S(int)      intcor
     38.37       0.05      28.29       0.00      -0.59      -0.78

> <Gold.Goldscore.Fitness>
38.3657

> <Gold.Goldscore.Internal.Vdw>
-0.9964

> <Gold.Goldscore.Internal.Torsion>
-0.3677

> <Gold.Goldscore.External.Vdw>
28.2950

> <Gold.Goldscore.Internal.HBond>
0.0000

> <Gold.Goldscore.External.HBond>
0.0490

> <Gold.Goldscore.Internal.Correction>
-0.7752

> <Gold.Goldscore.Hbonds>
donor molecule, donor type, donor heavy atom, donor atom, acceptor molecule, acceptor atom, score
      P1  H  8438  8461       L1    11  0.02

> <Gold.Goldscore.Internal.Vdw.Weighted>
-0.9964

> <Gold.Goldscore.Internal.Torsion.Weighted>
-0.3677

> <Gold.Goldscore.External.Vdw.Weighted>
38.9056

> <Gold.Goldscore.Internal.HBond.Weighted>
0.0000

> <Gold.Goldscore.External.HBond.Weighted>
0.0490

> <Gold.Goldscore.Internal.Correction.Weighted>
-0.7752

> <Gold.Rescore>
     Score     S(PLP)   S(hbond)     S(cho)   S(metal)  DE(clash)   DE(tors)     intcor
     33.24     -31.37       1.14       0.00       0.00       0.00       0.78       ----

> <Gold.PLP.Fitness>
33.2427

> <Gold.PLP.PLP>
-31.3723

> <Gold.PLP.part.hbond>
-4.0000

> <Gold.PLP.part.metal>
0.0000

> <Gold.PLP.part.buried>
12.1192

> <Gold.PLP.part.nonpolar>
-42.6989

> <Gold.PLP.part.repulsive>
0.9734

> <Gold.PLP.ligand.clash>
0.0000

> <Gold.PLP.ligand.torsion>
0.7818

> <Gold.PLP.Chemscore.Hbond>
1.1446

> <Gold.PLP.Chemscore.CHOScore>
0.0000

> <Gold.PLP.Chemscore.Metal>
0.0000

> <Gold.PLP.Chemscore.Internal.Correction>
   9.000000E+99

