#       Name:                CT1002167954
#       Creating user name   hitesit
#       Creation time:       Sun Apr 16 22:51:10 2023


#       File generated by GOLD software.
#

@<TRIPOS>MOLECULE
CT1002167954|ligand_prepared|mol2|1|dock5
    29    30     1
SMALL
NO_CHARGES


@<TRIPOS>ATOM
      1 C1         123.3418 244.6755 357.3036 C.3            1 RES1               0.0000
      2 C2         123.6028 245.1476 355.8586 C.ar           1 RES1               0.0000
      3 C3         123.3800 243.1505 357.2696 C.2            1 RES1               0.0000
      4 C4         124.4326 245.3062 358.1620 C.2            1 RES1               0.0000
      5 C5         121.9725 245.1201 357.8684 C.3            1 RES1               0.0000
      6 C6         123.2825 246.4443 355.4680 C.ar           1 RES1               0.0000
      7 C7         124.1646 244.3001 354.9075 C.ar           1 RES1               0.0000
      8 N8         124.4741 242.5339 357.8013 N.am           1 RES1               0.0000
      9 O9         122.4822 242.5003 356.7487 O.2            1 RES1               0.0000
     10 N10        125.3437 244.4732 358.7567 N.am           1 RES1               0.0000
     11 O11        124.5214 246.5182 358.3152 O.2            1 RES1               0.0000
     12 C12        121.5546 244.3708 359.1238 C.3            1 RES1               0.0000
     13 C13        123.5181 246.8792 354.1743 C.ar           1 RES1               0.0000
     14 C14        124.3992 244.7369 353.6142 C.ar           1 RES1               0.0000
     15 C15        125.4322 243.1179 358.5903 C.2            1 RES1               0.0000
     16 C16        124.0770 246.0260 353.2467 C.ar           1 RES1               0.0000
     17 O17        126.3135 242.4436 359.1156 O.2            1 RES1               0.0000
     18 H18        122.0154 246.1925 358.0951 H              1 RES1               0.0000
     19 H19        121.2070 244.9709 357.0969 H              1 RES1               0.0000
     20 H20        122.8397 247.1292 356.1836 H              1 RES1               0.0000
     21 H21        124.4252 243.2814 355.1738 H              1 RES1               0.0000
     22 H22        124.5907 241.5474 357.5928 H              1 RES1               0.0000
     23 H23        126.0183 244.9032 359.3815 H              1 RES1               0.0000
     24 H24        120.5875 244.7212 359.4782 H              1 RES1               0.0000
     25 H25        121.4774 243.3033 358.9282 H              1 RES1               0.0000
     26 H26        122.2810 244.5177 359.9204 H              1 RES1               0.0000
     27 H27        123.2614 247.8942 353.8898 H              1 RES1               0.0000
     28 H28        124.8386 244.0618 352.8872 H              1 RES1               0.0000
     29 H29        124.2618 246.3670 352.2334 H              1 RES1               0.0000
@<TRIPOS>BOND
    1    1    2 1     
    2    1    3 1     
    3    1    4 1     
    4    1    5 1     
    5    2    6 ar    
    6    2    7 ar    
    7    3    8 1     
    8    3    9 2     
    9    4   10 1     
   10    4   11 2     
   11    5   12 1     
   12    5   18 1     
   13    5   19 1     
   14    6   13 ar    
   15    6   20 1     
   16    7   14 ar    
   17    7   21 1     
   18    8   15 1     
   19    8   22 1     
   20   10   15 1     
   21   10   23 1     
   22   12   24 1     
   23   12   25 1     
   24   12   26 1     
   25   13   16 ar    
   26   13   27 1     
   27   14   16 ar    
   28   14   28 1     
   29   15   17 2     
   30   16   29 1     
@<TRIPOS>SUBSTRUCTURE
      1 RES1           1
@<TRIPOS>SET
DONOR_HYDROGENS      STATIC     ATOMS    <user>   **** ""
2 22 23
ATOM$RED        STATIC     ATOMS    COLORGROUP SYSTEM
2 22 23
@<TRIPOS>COMMENT
> <Gold.Version>
2022.3.0

> <Gold.Id.Protein>
unknown|5adf_clean|pdb

> <Gold.Protein.RotatedTorsions>
[ 9091 9061 9060 9058 ] final  177.29 input   60.03 | X-H torsion
[ 8987 8971 8970 8967 ] final -133.32 input   59.98 | X-H torsion
[ 12876 12851 12850 12848 ] final  133.15 input   59.99 | X-H torsion
[ 5555 5539 5538 5535 ] final -144.45 input   60.00 | X-H torsion
[ 8337 8307 8306 8304 ] final  -36.55 input   59.97 | X-H torsion
[ 8491 8475 8474 8471 ] final   93.28 input   60.02 | X-H torsion

> <Gold.Protein.ActiveResidues>
 MET341  HIS342  TRP414  ALA417  ARG419  CYS420  VAL421  GLY422  LEU460  SER462 
 ASN481  SER482  GLN483  LEU484  ARG486  ALA502  ASN503  TRP566  TYR567  GLY568 
 LEU569  PRO570  ALA571  VAL572  SER573  ASN574  MET575  LEU576  PHE589  SER590 
 GLY591  TRP592  TYR593  MET594  GLY595  GLU597  ILE598  ARG601  ASP602  ARG608 
 ILE653  VAL654  TRP683  PHE709  GLU710  TYR711  GLN712  ASP714  HEM750  H4B760 

> <Gold.Protein.RotatedAtoms>
  128.7001  248.9725  361.7784 H   0  0  0  0  0  0  0  0  0  0  0  0  # atno 5555 bound_to 5539
  124.7559  241.8484  361.5030 H   0  0  0  0  0  0  0  0  0  0  0  0  # atno 8337 bound_to 8307
  124.8587  251.0204  367.1082 H   0  0  0  0  0  0  0  0  0  0  0  0  # atno 8491 bound_to 8475
  116.3748  244.4780  368.8559 H   0  0  0  0  0  0  0  0  0  0  0  0  # atno 8987 bound_to 8971
  123.1893  240.2111  361.6528 H   0  0  0  0  0  0  0  0  0  0  0  0  # atno 9091 bound_to 9061
  120.2008  254.1014  353.9415 H   0  0  0  0  0  0  0  0  0  0  0  0  # atno 12876 bound_to 12851
  122.6900  241.5230  360.8291 LP  0  0  0  0  0  0  0  0  0  0  0  0  # atno 13471 bound_to 9061
  123.5698  240.3702  360.0784 LP  0  0  0  0  0  0  0  0  0  0  0  0  # atno 13472 bound_to 9061
  115.4025  243.4238  368.0869 LP  0  0  0  0  0  0  0  0  0  0  0  0  # atno 13487 bound_to 8971
  115.1007  245.0265  368.0052 LP  0  0  0  0  0  0  0  0  0  0  0  0  # atno 13488 bound_to 8971
  120.8841  253.2042  355.1145 LP  0  0  0  0  0  0  0  0  0  0  0  0  # atno 13503 bound_to 12851
  121.7926  253.7695  353.8810 LP  0  0  0  0  0  0  0  0  0  0  0  0  # atno 13504 bound_to 12851
  127.2343  248.2777  361.9066 LP  0  0  0  0  0  0  0  0  0  0  0  0  # atno 13506 bound_to 5539
  128.0836  248.6526  363.2500 LP  0  0  0  0  0  0  0  0  0  0  0  0  # atno 13507 bound_to 5539
  126.3443  241.5082  361.4055 LP  0  0  0  0  0  0  0  0  0  0  0  0  # atno 13510 bound_to 8307
  125.7931  242.5230  362.5601 LP  0  0  0  0  0  0  0  0  0  0  0  0  # atno 13511 bound_to 8307
  124.2530  250.2047  365.8372 LP  0  0  0  0  0  0  0  0  0  0  0  0  # atno 13522 bound_to 8475
  124.6207  249.4145  367.2182 LP  0  0  0  0  0  0  0  0  0  0  0  0  # atno 13523 bound_to 8475

> <Gold.Score>
     Fitness  S(hb_ext) S(vdw_ext)  S(hb_int)    S(int)      intcor
     32.65       4.91      21.20       0.00      -1.41      -0.78

> <Gold.Goldscore.Fitness>
32.6498

> <Gold.Goldscore.Internal.Vdw>
-1.4539

> <Gold.Goldscore.Internal.Torsion>
-0.7271

> <Gold.Goldscore.External.Vdw>
21.1959

> <Gold.Goldscore.Internal.HBond>
0.0000

> <Gold.Goldscore.External.HBond>
4.9113

> <Gold.Goldscore.Internal.Correction>
-0.7752

> <Gold.Goldscore.Hbonds>
donor molecule, donor type, donor heavy atom, donor atom, acceptor molecule, acceptor atom, score
      P1  H  9502  9538       L1    17  0.11
      L1  H     8    22       P1  9337  0.71

> <Gold.Goldscore.Internal.Vdw.Weighted>
-1.4539

> <Gold.Goldscore.Internal.Torsion.Weighted>
-0.7271

> <Gold.Goldscore.External.Vdw.Weighted>
29.1444

> <Gold.Goldscore.Internal.HBond.Weighted>
0.0000

> <Gold.Goldscore.External.HBond.Weighted>
4.9113

> <Gold.Goldscore.Internal.Correction.Weighted>
-0.7752

> <Gold.Rescore>
     Score     S(PLP)   S(hbond)     S(cho)   S(metal)  DE(clash)   DE(tors)     intcor
     17.14     -16.16       0.99       0.00       0.00       1.25       0.38       ----

> <Gold.PLP.Fitness>
17.1363

> <Gold.PLP.PLP>
-16.1639

> <Gold.PLP.part.hbond>
-3.1799

> <Gold.PLP.part.metal>
0.0000

> <Gold.PLP.part.buried>
1.2017

> <Gold.PLP.part.nonpolar>
-17.4935

> <Gold.PLP.part.repulsive>
2.2537

> <Gold.PLP.ligand.clash>
1.2511

> <Gold.PLP.ligand.torsion>
0.3751

> <Gold.PLP.Chemscore.Hbond>
0.9913

> <Gold.PLP.Chemscore.CHOScore>
0.0000

> <Gold.PLP.Chemscore.Metal>
0.0000

> <Gold.Chemscore.Hbonds>
donor molecule, donor type, donor heavy atom, donor atom, acceptor molecule, acceptor atom, score
      L1  H     8    22       P1  9337  0.55
      P1  H  9502  9538       L1    17  0.42

> <Gold.PLP.Chemscore.Internal.Correction>
   9.000000E+99

