#       Name:                CT1002167954
#       Creating user name   hitesit
#       Creation time:       Sun Apr 16 22:51:07 2023


#       File generated by GOLD software.
#

@<TRIPOS>MOLECULE
CT1002167954|ligand_prepared|mol2|1|dock2
    29    30     1
SMALL
NO_CHARGES


@<TRIPOS>ATOM
      1 C1         117.6982 245.7855 359.5574 C.3            1 RES1               0.0000
      2 C2         118.4415 246.9667 358.9007 C.ar           1 RES1               0.0000
      3 C3         118.4893 245.4255 360.8115 C.2            1 RES1               0.0000
      4 C4         116.2810 246.2746 359.8348 C.2            1 RES1               0.0000
      5 C5         117.6032 244.5302 358.6593 C.3            1 RES1               0.0000
      6 C6         118.1173 248.2793 359.2305 C.ar           1 RES1               0.0000
      7 C7         119.4536 246.7598 357.9672 C.ar           1 RES1               0.0000
      8 N8         117.9564 245.7759 362.0170 N.am           1 RES1               0.0000
      9 O9         119.5826 244.8778 360.7421 O.2            1 RES1               0.0000
     10 N10        115.8860 246.3905 361.1418 N.am           1 RES1               0.0000
     11 O11        115.5082 246.5764 358.9336 O.2            1 RES1               0.0000
     12 C12        116.6400 243.4751 359.1801 C.3            1 RES1               0.0000
     13 C13        118.7828 249.3464 358.6503 C.ar           1 RES1               0.0000
     14 C14        120.1177 247.8285 357.3880 C.ar           1 RES1               0.0000
     15 C15        116.6697 246.1927 362.2459 C.2            1 RES1               0.0000
     16 C16        119.7836 249.1218 357.7291 C.ar           1 RES1               0.0000
     17 O17        116.2581 246.3698 363.3889 O.2            1 RES1               0.0000
     18 H18        117.2821 244.8371 357.6563 H              1 RES1               0.0000
     19 H19        118.6012 244.0836 358.5699 H              1 RES1               0.0000
     20 H20        117.3308 248.4756 359.9516 H              1 RES1               0.0000
     21 H21        119.7325 245.7509 357.6828 H              1 RES1               0.0000
     22 H22        118.5714 245.7233 362.8227 H              1 RES1               0.0000
     23 H23        114.9182 246.6481 361.3070 H              1 RES1               0.0000
     24 H24        116.6113 242.6161 358.5131 H              1 RES1               0.0000
     25 H25        116.9435 243.1288 360.1659 H              1 RES1               0.0000
     26 H26        115.6321 243.8777 359.2577 H              1 RES1               0.0000
     27 H27        118.5152 250.3624 358.9211 H              1 RES1               0.0000
     28 H28        120.9042 247.6470 356.6630 H              1 RES1               0.0000
     29 H29        120.3050 249.9580 357.2750 H              1 RES1               0.0000
@<TRIPOS>BOND
    1    1    2 1     
    2    1    3 1     
    3    1    4 1     
    4    1    5 1     
    5    2    6 ar    
    6    2    7 ar    
    7    3    8 1     
    8    3    9 2     
    9    4   10 1     
   10    4   11 2     
   11    5   12 1     
   12    5   18 1     
   13    5   19 1     
   14    6   13 ar    
   15    6   20 1     
   16    7   14 ar    
   17    7   21 1     
   18    8   15 1     
   19    8   22 1     
   20   10   15 1     
   21   10   23 1     
   22   12   24 1     
   23   12   25 1     
   24   12   26 1     
   25   13   16 ar    
   26   13   27 1     
   27   14   16 ar    
   28   14   28 1     
   29   15   17 2     
   30   16   29 1     
@<TRIPOS>SUBSTRUCTURE
      1 RES1           1
@<TRIPOS>SET
DONOR_HYDROGENS      STATIC     ATOMS    <user>   **** ""
2 22 23
ATOM$RED        STATIC     ATOMS    COLORGROUP SYSTEM
2 22 23
@<TRIPOS>COMMENT
> <Gold.Version>
2022.3.0

> <Gold.Id.Protein>
unknown|5adf_clean|pdb

> <Gold.Protein.RotatedTorsions>
[ 9091 9061 9060 9058 ] final  -47.65 input   60.03 | X-H torsion
[ 8987 8971 8970 8967 ] final  152.30 input   59.98 | X-H torsion
[ 12876 12851 12850 12848 ] final  -97.44 input   59.99 | X-H torsion
[ 5555 5539 5538 5535 ] final -165.71 input   60.00 | X-H torsion
[ 8337 8307 8306 8304 ] final  178.21 input   59.97 | X-H torsion
[ 8491 8475 8474 8471 ] final -137.07 input   60.02 | X-H torsion

> <Gold.Protein.ActiveResidues>
 MET341  HIS342  TRP414  ALA417  ARG419  CYS420  VAL421  GLY422  LEU460  SER462 
 ASN481  SER482  GLN483  LEU484  ARG486  ALA502  ASN503  TRP566  TYR567  GLY568 
 LEU569  PRO570  ALA571  VAL572  SER573  ASN574  MET575  LEU576  PHE589  SER590 
 GLY591  TRP592  TYR593  MET594  GLY595  GLU597  ILE598  ARG601  ASP602  ARG608 
 ILE653  VAL654  TRP683  PHE709  GLU710  TYR711  GLN712  ASP714  HEM750  H4B760 

> <Gold.Protein.RotatedAtoms>
  128.4764  248.8717  361.5354 H   0  0  0  0  0  0  0  0  0  0  0  0  # atno 5555 bound_to 5539
  126.5261  241.7172  361.7086 H   0  0  0  0  0  0  0  0  0  0  0  0  # atno 8337 bound_to 8307
  124.5592  249.3529  367.0860 H   0  0  0  0  0  0  0  0  0  0  0  0  # atno 8491 bound_to 8475
  115.9961  243.4703  368.5068 H   0  0  0  0  0  0  0  0  0  0  0  0  # atno 8987 bound_to 8971
  123.4757  240.5784  359.9857 H   0  0  0  0  0  0  0  0  0  0  0  0  # atno 9091 bound_to 9061
  121.8409  253.6863  354.0018 H   0  0  0  0  0  0  0  0  0  0  0  0  # atno 12876 bound_to 12851
  123.3224  240.0529  361.5184 LP  0  0  0  0  0  0  0  0  0  0  0  0  # atno 13471 bound_to 9061
  122.6491  241.4706  361.0671 LP  0  0  0  0  0  0  0  0  0  0  0  0  # atno 13472 bound_to 9061
  114.8561  244.3757  367.7797 LP  0  0  0  0  0  0  0  0  0  0  0  0  # atno 13487 bound_to 8971
  116.0286  245.0897  368.6641 LP  0  0  0  0  0  0  0  0  0  0  0  0  # atno 13488 bound_to 8971
  120.2910  254.1496  353.8259 LP  0  0  0  0  0  0  0  0  0  0  0  0  # atno 13503 bound_to 12851
  120.7344  253.2421  355.1090 LP  0  0  0  0  0  0  0  0  0  0  0  0  # atno 13504 bound_to 12851
  127.1567  248.2349  362.2430 LP  0  0  0  0  0  0  0  0  0  0  0  0  # atno 13506 bound_to 5539
  128.3866  248.7970  363.1584 LP  0  0  0  0  0  0  0  0  0  0  0  0  # atno 13507 bound_to 5539
  125.3848  242.5533  362.5127 LP  0  0  0  0  0  0  0  0  0  0  0  0  # atno 13510 bound_to 8307
  124.9697  241.6101  361.2459 LP  0  0  0  0  0  0  0  0  0  0  0  0  # atno 13511 bound_to 8307
  124.8944  250.9379  367.2384 LP  0  0  0  0  0  0  0  0  0  0  0  0  # atno 13522 bound_to 8475
  124.2811  250.3609  365.8393 LP  0  0  0  0  0  0  0  0  0  0  0  0  # atno 13523 bound_to 8475

> <Gold.Score>
     Fitness  S(hb_ext) S(vdw_ext)  S(hb_int)    S(int)      intcor
     58.90      10.24      35.71       0.00      -0.44      -0.79

> <Gold.Goldscore.Fitness>
58.9003

> <Gold.Goldscore.Internal.Vdw>
-0.6461

> <Gold.Goldscore.Internal.Torsion>
-0.5796

> <Gold.Goldscore.External.Vdw>
35.7113

> <Gold.Goldscore.Internal.HBond>
0.0000

> <Gold.Goldscore.External.HBond>
10.2371

> <Gold.Goldscore.Internal.Correction>
-0.7859

> <Gold.Goldscore.Hbonds>
donor molecule, donor type, donor heavy atom, donor atom, acceptor molecule, acceptor atom, score
      P1  H  8438  8461       L1    17  0.12
      P1  M 13283 13537       L1    11  1.00

> <Gold.Goldscore.Internal.Vdw.Weighted>
-0.6461

> <Gold.Goldscore.Internal.Torsion.Weighted>
-0.5796

> <Gold.Goldscore.External.Vdw.Weighted>
49.1030

> <Gold.Goldscore.Internal.HBond.Weighted>
0.0000

> <Gold.Goldscore.External.HBond.Weighted>
10.2371

> <Gold.Goldscore.Internal.Correction.Weighted>
-0.7859

> <Gold.Rescore>
     Score     S(PLP)   S(hbond)     S(cho)   S(metal)  DE(clash)   DE(tors)     intcor
     49.80     -44.81       0.59       0.00       1.00       1.85       0.46       ----

> <Gold.PLP.Fitness>
49.7995

> <Gold.PLP.PLP>
-44.8125

> <Gold.PLP.part.hbond>
-1.7586

> <Gold.PLP.part.metal>
-1.0000

> <Gold.PLP.part.buried>
6.9981

> <Gold.PLP.part.nonpolar>
-58.3848

> <Gold.PLP.part.repulsive>
6.2689

> <Gold.PLP.ligand.clash>
1.8473

> <Gold.PLP.ligand.torsion>
0.4603

> <Gold.PLP.Chemscore.Hbond>
0.5850

> <Gold.PLP.Chemscore.CHOScore>
0.0000

> <Gold.PLP.Chemscore.Metal>
1.0000

> <Gold.Chemscore.Hbonds>
donor molecule, donor type, donor heavy atom, donor atom, acceptor molecule, acceptor atom, score
      P1  M 13283 13283       L1    11  1.00

> <Gold.PLP.Chemscore.Internal.Correction>
   9.000000E+99

