#       Name:                CT1002167954
#       Creating user name   hitesit
#       Creation time:       Sun Apr 16 22:51:14 2023


#       File generated by GOLD software.
#

@<TRIPOS>MOLECULE
CT1002167954|ligand_prepared|mol2|1|dock10
    29    30     1
SMALL
NO_CHARGES


@<TRIPOS>ATOM
      1 C1         123.8009 244.6460 356.5439 C.3            1 RES1               0.0000
      2 C2         124.1209 245.3238 355.1959 C.ar           1 RES1               0.0000
      3 C3         123.9123 245.7342 357.6077 C.2            1 RES1               0.0000
      4 C4         122.4027 244.0547 356.4028 C.2            1 RES1               0.0000
      5 C5         124.7701 243.4984 356.9118 C.3            1 RES1               0.0000
      6 C6         123.5647 246.5581 354.8737 C.ar           1 RES1               0.0000
      7 C7         124.9711 244.7293 354.2672 C.ar           1 RES1               0.0000
      8 N8         122.7541 246.2116 358.1468 N.am           1 RES1               0.0000
      9 O9         124.9977 246.1944 357.9399 O.2            1 RES1               0.0000
     10 N10        121.4031 244.5770 357.1810 N.am           1 RES1               0.0000
     11 O11        122.1541 243.1523 355.6127 O.2            1 RES1               0.0000
     12 C12        124.5539 242.9374 358.3084 C.3            1 RES1               0.0000
     13 C13        123.8503 247.1772 353.6681 C.ar           1 RES1               0.0000
     14 C14        125.2552 245.3501 353.0620 C.ar           1 RES1               0.0000
     15 C15        121.5089 245.6493 358.0244 C.2            1 RES1               0.0000
     16 C16        124.6959 246.5739 352.7618 C.ar           1 RES1               0.0000
     17 O17        120.5513 246.0953 358.6498 O.2            1 RES1               0.0000
     18 H18        124.6499 242.6874 356.1830 H              1 RES1               0.0000
     19 H19        125.8001 243.8680 356.8354 H              1 RES1               0.0000
     20 H20        122.8950 247.0469 355.5735 H              1 RES1               0.0000
     21 H21        125.4216 243.7662 354.4816 H              1 RES1               0.0000
     22 H22        122.8199 247.0657 358.6914 H              1 RES1               0.0000
     23 H23        120.4961 244.1246 357.1267 H              1 RES1               0.0000
     24 H24        125.2595 242.1355 358.5155 H              1 RES1               0.0000
     25 H25        124.6905 243.7116 359.0606 H              1 RES1               0.0000
     26 H26        123.5471 242.5380 358.4121 H              1 RES1               0.0000
     27 H27        123.4065 248.1397 353.4360 H              1 RES1               0.0000
     28 H28        125.9208 244.8713 352.3514 H              1 RES1               0.0000
     29 H29        124.9198 247.0593 351.8176 H              1 RES1               0.0000
@<TRIPOS>BOND
    1    1    2 1     
    2    1    3 1     
    3    1    4 1     
    4    1    5 1     
    5    2    6 ar    
    6    2    7 ar    
    7    3    8 1     
    8    3    9 2     
    9    4   10 1     
   10    4   11 2     
   11    5   12 1     
   12    5   18 1     
   13    5   19 1     
   14    6   13 ar    
   15    6   20 1     
   16    7   14 ar    
   17    7   21 1     
   18    8   15 1     
   19    8   22 1     
   20   10   15 1     
   21   10   23 1     
   22   12   24 1     
   23   12   25 1     
   24   12   26 1     
   25   13   16 ar    
   26   13   27 1     
   27   14   16 ar    
   28   14   28 1     
   29   15   17 2     
   30   16   29 1     
@<TRIPOS>SUBSTRUCTURE
      1 RES1           1
@<TRIPOS>SET
DONOR_HYDROGENS      STATIC     ATOMS    <user>   **** ""
2 22 23
ATOM$RED        STATIC     ATOMS    COLORGROUP SYSTEM
2 22 23
@<TRIPOS>COMMENT
> <Gold.Version>
2022.3.0

> <Gold.Id.Protein>
unknown|5adf_clean|pdb

> <Gold.Protein.RotatedTorsions>
[ 9091 9061 9060 9058 ] final  -57.75 input   60.03 | X-H torsion
[ 8987 8971 8970 8967 ] final -115.54 input   59.98 | X-H torsion
[ 12876 12851 12850 12848 ] final  -16.68 input   59.99 | X-H torsion
[ 5555 5539 5538 5535 ] final   65.00 input   60.00 | X-H torsion
[ 8337 8307 8306 8304 ] final   -1.30 input   59.97 | X-H torsion
[ 8491 8475 8474 8471 ] final -119.39 input   60.02 | X-H torsion

> <Gold.Protein.ActiveResidues>
 MET341  HIS342  TRP414  ALA417  ARG419  CYS420  VAL421  GLY422  LEU460  SER462 
 ASN481  SER482  GLN483  LEU484  ARG486  ALA502  ASN503  TRP566  TYR567  GLY568 
 LEU569  PRO570  ALA571  VAL572  SER573  ASN574  MET575  LEU576  PHE589  SER590 
 GLY591  TRP592  TYR593  MET594  GLY595  GLU597  ILE598  ARG601  ASP602  ARG608 
 ILE653  VAL654  TRP683  PHE709  GLU710  TYR711  GLN712  ASP714  HEM750  H4B760 

> <Gold.Protein.RotatedAtoms>
  127.1645  248.2376  362.3951 H   0  0  0  0  0  0  0  0  0  0  0  0  # atno 5555 bound_to 5539
  124.7336  242.2044  361.9437 H   0  0  0  0  0  0  0  0  0  0  0  0  # atno 8337 bound_to 8307
  124.4532  249.2932  366.8253 H   0  0  0  0  0  0  0  0  0  0  0  0  # atno 8491 bound_to 8475
  116.2864  244.7505  368.8159 H   0  0  0  0  0  0  0  0  0  0  0  0  # atno 8987 bound_to 8971
  123.5384  240.4375  360.0446 H   0  0  0  0  0  0  0  0  0  0  0  0  # atno 9091 bound_to 9061
  121.3506  253.1795  354.9887 H   0  0  0  0  0  0  0  0  0  0  0  0  # atno 12876 bound_to 12851
  123.2355  240.1533  361.6183 LP  0  0  0  0  0  0  0  0  0  0  0  0  # atno 13471 bound_to 9061
  122.6729  241.5119  360.9080 LP  0  0  0  0  0  0  0  0  0  0  0  0  # atno 13472 bound_to 9061
  115.6386  243.3695  368.2489 LP  0  0  0  0  0  0  0  0  0  0  0  0  # atno 13487 bound_to 8971
  114.9537  244.8063  367.8836 LP  0  0  0  0  0  0  0  0  0  0  0  0  # atno 13488 bound_to 8971
  121.4840  254.0169  353.6000 LP  0  0  0  0  0  0  0  0  0  0  0  0  # atno 13503 bound_to 12851
  120.0350  253.8849  354.3412 LP  0  0  0  0  0  0  0  0  0  0  0  0  # atno 13504 bound_to 12851
  128.5052  248.8544  363.0807 LP  0  0  0  0  0  0  0  0  0  0  0  0  # atno 13506 bound_to 5539
  128.3597  248.8163  361.4546 LP  0  0  0  0  0  0  0  0  0  0  0  0  # atno 13507 bound_to 5539
  125.8656  241.3666  361.1284 LP  0  0  0  0  0  0  0  0  0  0  0  0  # atno 13510 bound_to 8307
  126.2942  242.3061  362.3934 LP  0  0  0  0  0  0  0  0  0  0  0  0  # atno 13511 bound_to 8307
  124.9286  250.7259  367.4330 LP  0  0  0  0  0  0  0  0  0  0  0  0  # atno 13522 bound_to 8475
  124.3536  250.6330  365.9074 LP  0  0  0  0  0  0  0  0  0  0  0  0  # atno 13523 bound_to 8475

> <Gold.Score>
     Fitness  S(hb_ext) S(vdw_ext)  S(hb_int)    S(int)      intcor
     32.49       4.73      20.29       0.00      -0.14      -0.76

> <Gold.Goldscore.Fitness>
32.4917

> <Gold.Goldscore.Internal.Vdw>
-0.4703

> <Gold.Goldscore.Internal.Torsion>
-0.4395

> <Gold.Goldscore.External.Vdw>
20.2930

> <Gold.Goldscore.Internal.HBond>
0.0000

> <Gold.Goldscore.External.HBond>
4.7337

> <Gold.Goldscore.Internal.Correction>
-0.7650

> <Gold.Goldscore.Hbonds>
donor molecule, donor type, donor heavy atom, donor atom, acceptor molecule, acceptor atom, score
      L1  H    10    23       P1  9175  0.79

> <Gold.Goldscore.Internal.Vdw.Weighted>
-0.4703

> <Gold.Goldscore.Internal.Torsion.Weighted>
-0.4395

> <Gold.Goldscore.External.Vdw.Weighted>
27.9029

> <Gold.Goldscore.Internal.HBond.Weighted>
0.0000

> <Gold.Goldscore.External.HBond.Weighted>
4.7337

> <Gold.Goldscore.Internal.Correction.Weighted>
-0.7650

> <Gold.Rescore>
     Score     S(PLP)   S(hbond)     S(cho)   S(metal)  DE(clash)   DE(tors)     intcor
     15.83     -15.07       1.00       0.00       0.00       0.00       1.12       ----

> <Gold.PLP.Fitness>
15.8253

> <Gold.PLP.PLP>
-15.0739

> <Gold.PLP.part.hbond>
-2.9473

> <Gold.PLP.part.metal>
0.0000

> <Gold.PLP.part.buried>
1.5765

> <Gold.PLP.part.nonpolar>
-16.5891

> <Gold.PLP.part.repulsive>
1.6941

> <Gold.PLP.ligand.clash>
0.0000

> <Gold.PLP.ligand.torsion>
1.1243

> <Gold.PLP.Chemscore.Hbond>
1.0000

> <Gold.PLP.Chemscore.CHOScore>
0.0000

> <Gold.PLP.Chemscore.Metal>
0.0000

> <Gold.Chemscore.Hbonds>
donor molecule, donor type, donor heavy atom, donor atom, acceptor molecule, acceptor atom, score
      L1  H    10    23       P1  9175  1.00

> <Gold.PLP.Chemscore.Internal.Correction>
   9.000000E+99

