#       Name:                CT1002167954
#       Creating user name   hitesit
#       Creation time:       Sun Apr 16 22:51:13 2023


#       File generated by GOLD software.
#

@<TRIPOS>MOLECULE
CT1002167954|ligand_prepared|mol2|1|dock9
    29    30     1
SMALL
NO_CHARGES


@<TRIPOS>ATOM
      1 C1         123.5073 244.1422 357.4063 C.3            1 RES1               0.0000
      2 C2         123.6883 244.4301 355.9020 C.ar           1 RES1               0.0000
      3 C3         123.7420 242.6454 357.5874 C.2            1 RES1               0.0000
      4 C4         124.5172 245.0228 358.1338 C.2            1 RES1               0.0000
      5 C5         122.0986 244.4870 357.9433 C.3            1 RES1               0.0000
      6 C6         124.8664 244.9979 355.4259 C.ar           1 RES1               0.0000
      7 C7         122.6892 244.1314 354.9794 C.ar           1 RES1               0.0000
      8 N8         124.9127 242.2552 358.1680 N.am           1 RES1               0.0000
      9 O9         122.9299 241.8187 357.1910 O.2            1 RES1               0.0000
     10 N10        125.5351 244.4061 358.8129 N.am           1 RES1               0.0000
     11 O11        124.4502 246.2456 358.1112 O.2            1 RES1               0.0000
     12 C12        121.5806 245.8400 357.4816 C.3            1 RES1               0.0000
     13 C13        125.0405 245.2551 354.0762 C.ar           1 RES1               0.0000
     14 C14        122.8653 244.3896 353.6301 C.ar           1 RES1               0.0000
     15 C15        125.7963 243.0632 358.8375 C.2            1 RES1               0.0000
     16 C16        124.0404 244.9508 353.1774 C.ar           1 RES1               0.0000
     17 O17        126.7633 242.5885 359.4262 O.2            1 RES1               0.0000
     18 H18        121.3964 243.7100 357.6170 H              1 RES1               0.0000
     19 H19        122.1260 244.4750 359.0399 H              1 RES1               0.0000
     20 H20        125.6635 245.2464 356.1186 H              1 RES1               0.0000
     21 H21        121.7560 243.6905 355.3130 H              1 RES1               0.0000
     22 H22        125.1535 241.2716 358.0979 H              1 RES1               0.0000
     23 H23        126.1557 245.0034 359.3500 H              1 RES1               0.0000
     24 H24        120.5893 246.0322 357.8866 H              1 RES1               0.0000
     25 H25        122.2419 246.6390 357.8106 H              1 RES1               0.0000
     26 H26        121.5166 245.8785 356.3961 H              1 RES1               0.0000
     27 H27        125.9667 245.6981 353.7252 H              1 RES1               0.0000
     28 H28        122.0753 244.1491 352.9263 H              1 RES1               0.0000
     29 H29        124.1772 245.1520 352.1200 H              1 RES1               0.0000
@<TRIPOS>BOND
    1    1    2 1     
    2    1    3 1     
    3    1    4 1     
    4    1    5 1     
    5    2    6 ar    
    6    2    7 ar    
    7    3    8 1     
    8    3    9 2     
    9    4   10 1     
   10    4   11 2     
   11    5   12 1     
   12    5   18 1     
   13    5   19 1     
   14    6   13 ar    
   15    6   20 1     
   16    7   14 ar    
   17    7   21 1     
   18    8   15 1     
   19    8   22 1     
   20   10   15 1     
   21   10   23 1     
   22   12   24 1     
   23   12   25 1     
   24   12   26 1     
   25   13   16 ar    
   26   13   27 1     
   27   14   16 ar    
   28   14   28 1     
   29   15   17 2     
   30   16   29 1     
@<TRIPOS>SUBSTRUCTURE
      1 RES1           1
@<TRIPOS>SET
DONOR_HYDROGENS      STATIC     ATOMS    <user>   **** ""
2 22 23
ATOM$RED        STATIC     ATOMS    COLORGROUP SYSTEM
2 22 23
@<TRIPOS>COMMENT
> <Gold.Version>
2022.3.0

> <Gold.Id.Protein>
unknown|5adf_clean|pdb

> <Gold.Protein.RotatedTorsions>
[ 9091 9061 9060 9058 ] final  -92.05 input   60.03 | X-H torsion
[ 8987 8971 8970 8967 ] final -136.17 input   59.98 | X-H torsion
[ 12876 12851 12850 12848 ] final  152.17 input   59.99 | X-H torsion
[ 5555 5539 5538 5535 ] final -140.34 input   60.00 | X-H torsion
[ 8337 8307 8306 8304 ] final  -48.26 input   59.97 | X-H torsion
[ 8491 8475 8474 8471 ] final  -64.59 input   60.02 | X-H torsion

> <Gold.Protein.ActiveResidues>
 MET341  HIS342  TRP414  ALA417  ARG419  CYS420  VAL421  GLY422  LEU460  SER462 
 ASN481  SER482  GLN483  LEU484  ARG486  ALA502  ASN503  TRP566  TYR567  GLY568 
 LEU569  PRO570  ALA571  VAL572  SER573  ASN574  MET575  LEU576  PHE589  SER590 
 GLY591  TRP592  TYR593  MET594  GLY595  GLU597  ILE598  ARG601  ASP602  ARG608 
 ILE653  VAL654  TRP683  PHE709  GLU710  TYR711  GLN712  ASP714  HEM750  H4B760 

> <Gold.Protein.RotatedAtoms>
  128.7332  248.9870  361.8349 H   0  0  0  0  0  0  0  0  0  0  0  0  # atno 5555 bound_to 5539
  124.8382  241.7326  361.3753 H   0  0  0  0  0  0  0  0  0  0  0  0  # atno 8337 bound_to 8307
  124.2362  249.6403  366.0672 H   0  0  0  0  0  0  0  0  0  0  0  0  # atno 8491 bound_to 8475
  116.3825  244.4321  368.8576 H   0  0  0  0  0  0  0  0  0  0  0  0  # atno 8987 bound_to 8971
  123.6524  240.0440  360.4150 H   0  0  0  0  0  0  0  0  0  0  0  0  # atno 9091 bound_to 9061
  120.4118  254.1848  353.7313 H   0  0  0  0  0  0  0  0  0  0  0  0  # atno 12876 bound_to 12851
  122.9376  240.5982  361.7681 LP  0  0  0  0  0  0  0  0  0  0  0  0  # atno 13471 bound_to 9061
  122.8560  241.4631  360.3854 LP  0  0  0  0  0  0  0  0  0  0  0  0  # atno 13472 bound_to 9061
  115.3661  243.4406  368.0626 LP  0  0  0  0  0  0  0  0  0  0  0  0  # atno 13487 bound_to 8971
  115.1294  245.0560  368.0278 LP  0  0  0  0  0  0  0  0  0  0  0  0  # atno 13488 bound_to 8971
  120.5875  253.2933  355.0812 LP  0  0  0  0  0  0  0  0  0  0  0  0  # atno 13503 bound_to 12851
  121.8767  253.5964  354.1259 LP  0  0  0  0  0  0  0  0  0  0  0  0  # atno 13504 bound_to 12851
  127.2620  248.2919  361.8467 LP  0  0  0  0  0  0  0  0  0  0  0  0  # atno 13506 bound_to 5539
  128.0226  248.6238  363.2530 LP  0  0  0  0  0  0  0  0  0  0  0  0  # atno 13507 bound_to 5539
  126.4516  241.5965  361.5385 LP  0  0  0  0  0  0  0  0  0  0  0  0  # atno 13510 bound_to 8307
  125.6028  242.5513  362.5557 LP  0  0  0  0  0  0  0  0  0  0  0  0  # atno 13511 bound_to 8307
  124.8280  249.8741  367.5649 LP  0  0  0  0  0  0  0  0  0  0  0  0  # atno 13522 bound_to 8475
  124.6727  251.1352  366.5391 LP  0  0  0  0  0  0  0  0  0  0  0  0  # atno 13523 bound_to 8475

> <Gold.Score>
     Fitness  S(hb_ext) S(vdw_ext)  S(hb_int)    S(int)      intcor
     33.15       2.21      24.85       0.00      -3.22      -0.76

> <Gold.Goldscore.Fitness>
33.1455

> <Gold.Goldscore.Internal.Vdw>
-3.3099

> <Gold.Goldscore.Internal.Torsion>
-0.6800

> <Gold.Goldscore.External.Vdw>
24.8466

> <Gold.Goldscore.Internal.HBond>
0.0000

> <Gold.Goldscore.External.HBond>
2.2064

> <Gold.Goldscore.Internal.Correction>
-0.7650

> <Gold.Goldscore.Hbonds>
donor molecule, donor type, donor heavy atom, donor atom, acceptor molecule, acceptor atom, score
      P1  H  9502  9538       L1    17  0.05
      L1  H     8    22       P1  9337  0.32

> <Gold.Goldscore.Internal.Vdw.Weighted>
-3.3099

> <Gold.Goldscore.Internal.Torsion.Weighted>
-0.6800

> <Gold.Goldscore.External.Vdw.Weighted>
34.1640

> <Gold.Goldscore.Internal.HBond.Weighted>
0.0000

> <Gold.Goldscore.External.HBond.Weighted>
2.2064

> <Gold.Goldscore.Internal.Correction.Weighted>
-0.7650

> <Gold.Rescore>
     Score     S(PLP)   S(hbond)     S(cho)   S(metal)  DE(clash)   DE(tors)     intcor
     22.95     -19.72       2.00       0.00       0.00       2.07       0.35       ----

> <Gold.PLP.Fitness>
22.9476

> <Gold.PLP.PLP>
-19.7232

> <Gold.PLP.part.hbond>
-5.4210

> <Gold.PLP.part.metal>
0.0000

> <Gold.PLP.part.buried>
7.3806

> <Gold.PLP.part.nonpolar>
-25.0829

> <Gold.PLP.part.repulsive>
1.2600

> <Gold.PLP.ligand.clash>
2.0730

> <Gold.PLP.ligand.torsion>
0.3501

> <Gold.PLP.Chemscore.Hbond>
1.9992

> <Gold.PLP.Chemscore.CHOScore>
0.0000

> <Gold.PLP.Chemscore.Metal>
0.0000

> <Gold.Chemscore.Hbonds>
donor molecule, donor type, donor heavy atom, donor atom, acceptor molecule, acceptor atom, score
      L1  H     8    22       P1  9337  0.48
      P1  H  5676  5702       L1    17  0.20
      P1  H  9502  9538       L1    17  0.39

> <Gold.PLP.Chemscore.Internal.Correction>
   9.000000E+99

