#       Name:                CT1002167954
#       Creating user name   hitesit
#       Creation time:       Sun Apr 16 22:51:08 2023


#       File generated by GOLD software.
#

@<TRIPOS>MOLECULE
CT1002167954|ligand_prepared|mol2|1|dock3
    29    30     1
SMALL
NO_CHARGES


@<TRIPOS>ATOM
      1 C1         117.7596 245.4305 359.6988 C.3            1 RES1               0.0000
      2 C2         118.4547 246.5950 358.9642 C.ar           1 RES1               0.0000
      3 C3         118.4046 245.3489 361.0792 C.2            1 RES1               0.0000
      4 C4         116.2733 245.7694 359.7255 C.2            1 RES1               0.0000
      5 C5         117.9250 244.0620 358.9977 C.3            1 RES1               0.0000
      6 C6         119.5091 246.3522 358.0891 C.ar           1 RES1               0.0000
      7 C7         118.0516 247.9148 359.1492 C.ar           1 RES1               0.0000
      8 N8         117.6761 245.7909 362.1441 N.am           1 RES1               0.0000
      9 O9         119.5497 244.9398 361.2264 O.2            1 RES1               0.0000
     10 N10        115.6920 246.0125 360.9424 N.am           1 RES1               0.0000
     11 O11        115.6041 245.8445 358.7024 O.2            1 RES1               0.0000
     12 C12        116.8892 243.0301 359.4152 C.3            1 RES1               0.0000
     13 C13        120.1360 247.3907 357.4207 C.ar           1 RES1               0.0000
     14 C14        118.6800 248.9520 358.4799 C.ar           1 RES1               0.0000
     15 C15        116.3328 246.0688 362.1501 C.2            1 RES1               0.0000
     16 C16        119.7217 248.6911 357.6153 C.ar           1 RES1               0.0000
     17 O17        115.7511 246.3473 363.1946 O.2            1 RES1               0.0000
     18 H18        117.8580 244.2107 357.9129 H              1 RES1               0.0000
     19 H19        118.9246 243.6693 359.2212 H              1 RES1               0.0000
     20 H20        119.8506 245.3355 357.9252 H              1 RES1               0.0000
     21 H21        117.2350 248.1438 359.8254 H              1 RES1               0.0000
     22 H22        118.1764 245.9275 363.0166 H              1 RES1               0.0000
     23 H23        114.6886 246.1656 360.9485 H              1 RES1               0.0000
     24 H24        117.0507 242.0888 358.8941 H              1 RES1               0.0000
     25 H25        116.9445 242.8390 360.4849 H              1 RES1               0.0000
     26 H26        115.8842 243.3771 359.1844 H              1 RES1               0.0000
     27 H27        120.9562 247.1803 356.7424 H              1 RES1               0.0000
     28 H28        118.3510 249.9740 358.6366 H              1 RES1               0.0000
     29 H29        120.2126 249.5045 357.0913 H              1 RES1               0.0000
@<TRIPOS>BOND
    1    1    2 1     
    2    1    3 1     
    3    1    4 1     
    4    1    5 1     
    5    2    6 ar    
    6    2    7 ar    
    7    3    8 1     
    8    3    9 2     
    9    4   10 1     
   10    4   11 2     
   11    5   12 1     
   12    5   18 1     
   13    5   19 1     
   14    6   13 ar    
   15    6   20 1     
   16    7   14 ar    
   17    7   21 1     
   18    8   15 1     
   19    8   22 1     
   20   10   15 1     
   21   10   23 1     
   22   12   24 1     
   23   12   25 1     
   24   12   26 1     
   25   13   16 ar    
   26   13   27 1     
   27   14   16 ar    
   28   14   28 1     
   29   15   17 2     
   30   16   29 1     
@<TRIPOS>SUBSTRUCTURE
      1 RES1           1
@<TRIPOS>SET
DONOR_HYDROGENS      STATIC     ATOMS    <user>   **** ""
2 22 23
ATOM$RED        STATIC     ATOMS    COLORGROUP SYSTEM
2 22 23
@<TRIPOS>COMMENT
> <Gold.Version>
2022.3.0

> <Gold.Id.Protein>
unknown|5adf_clean|pdb

> <Gold.Protein.RotatedTorsions>
[ 9091 9061 9060 9058 ] final -175.84 input   60.03 | X-H torsion
[ 8987 8971 8970 8967 ] final  150.90 input   59.98 | X-H torsion
[ 12876 12851 12850 12848 ] final   57.98 input   59.99 | X-H torsion
[ 5555 5539 5538 5535 ] final   38.13 input   60.00 | X-H torsion
[ 8337 8307 8306 8304 ] final   15.36 input   59.97 | X-H torsion
[ 8491 8475 8474 8471 ] final  144.01 input   60.02 | X-H torsion

> <Gold.Protein.ActiveResidues>
 MET341  HIS342  TRP414  ALA417  ARG419  CYS420  VAL421  GLY422  LEU460  SER462 
 ASN481  SER482  GLN483  LEU484  ARG486  ALA502  ASN503  TRP566  TYR567  GLY568 
 LEU569  PRO570  ALA571  VAL572  SER573  ASN574  MET575  LEU576  PHE589  SER590 
 GLY591  TRP592  TYR593  MET594  GLY595  GLU597  ILE598  ARG601  ASP602  ARG608 
 ILE653  VAL654  TRP683  PHE709  GLU710  TYR711  GLN712  ASP714  HEM750  H4B760 

> <Gold.Protein.RotatedAtoms>
  127.2932  248.2904  362.8072 H   0  0  0  0  0  0  0  0  0  0  0  0  # atno 5555 bound_to 5539
  124.8416  242.3485  362.1465 H   0  0  0  0  0  0  0  0  0  0  0  0  # atno 8337 bound_to 8307
  124.9184  250.3741  367.5796 H   0  0  0  0  0  0  0  0  0  0  0  0  # atno 8491 bound_to 8475
  115.9796  243.4605  368.4943 H   0  0  0  0  0  0  0  0  0  0  0  0  # atno 8987 bound_to 8971
  123.2493  240.1355  361.5956 H   0  0  0  0  0  0  0  0  0  0  0  0  # atno 9091 bound_to 9061
  120.2606  253.4852  354.9013 H   0  0  0  0  0  0  0  0  0  0  0  0  # atno 12876 bound_to 12851
  122.6672  241.5060  360.9385 LP  0  0  0  0  0  0  0  0  0  0  0  0  # atno 13471 bound_to 9061
  123.5321  240.4633  360.0266 LP  0  0  0  0  0  0  0  0  0  0  0  0  # atno 13472 bound_to 9061
  114.8568  244.3986  367.7820 LP  0  0  0  0  0  0  0  0  0  0  0  0  # atno 13487 bound_to 8971
  116.0446  245.0765  368.6743 LP  0  0  0  0  0  0  0  0  0  0  0  0  # atno 13488 bound_to 8971
  121.8303  253.3816  354.4852 LP  0  0  0  0  0  0  0  0  0  0  0  0  # atno 13503 bound_to 12851
  120.7862  254.2126  353.5440 LP  0  0  0  0  0  0  0  0  0  0  0  0  # atno 13504 bound_to 12851
  128.7647  248.9828  362.7520 LP  0  0  0  0  0  0  0  0  0  0  0  0  # atno 13506 bound_to 5539
  127.9706  248.6347  361.3682 LP  0  0  0  0  0  0  0  0  0  0  0  0  # atno 13507 bound_to 5539
  125.5964  241.3752  361.0829 LP  0  0  0  0  0  0  0  0  0  0  0  0  # atno 13510 bound_to 8307
  126.4546  242.1524  362.2346 LP  0  0  0  0  0  0  0  0  0  0  0  0  # atno 13511 bound_to 8307
  124.4808  250.9288  366.1137 LP  0  0  0  0  0  0  0  0  0  0  0  0  # atno 13522 bound_to 8475
  124.3327  249.3413  366.4669 LP  0  0  0  0  0  0  0  0  0  0  0  0  # atno 13523 bound_to 8475

> <Gold.Score>
     Fitness  S(hb_ext) S(vdw_ext)  S(hb_int)    S(int)      intcor
     50.56       6.36      33.14       0.00      -1.37      -0.79

> <Gold.Goldscore.Fitness>
50.5569

> <Gold.Goldscore.Internal.Vdw>
-1.2151

> <Gold.Goldscore.Internal.Torsion>
-0.9413

> <Gold.Goldscore.External.Vdw>
33.1379

> <Gold.Goldscore.Internal.HBond>
0.0000

> <Gold.Goldscore.External.HBond>
6.3636

> <Gold.Goldscore.Internal.Correction>
-0.7850

> <Gold.Goldscore.Hbonds>
donor molecule, donor type, donor heavy atom, donor atom, acceptor molecule, acceptor atom, score
      P1  M 13283 13537       L1    11  0.64

> <Gold.Goldscore.Internal.Vdw.Weighted>
-1.2151

> <Gold.Goldscore.Internal.Torsion.Weighted>
-0.9413

> <Gold.Goldscore.External.Vdw.Weighted>
45.5646

> <Gold.Goldscore.Internal.HBond.Weighted>
0.0000

> <Gold.Goldscore.External.HBond.Weighted>
6.3636

> <Gold.Goldscore.Internal.Correction.Weighted>
-0.7850

> <Gold.Rescore>
     Score     S(PLP)   S(hbond)     S(cho)   S(metal)  DE(clash)   DE(tors)     intcor
     50.63     -46.13       0.01       0.00       1.00       0.00       0.76       ----

> <Gold.PLP.Fitness>
50.6280

> <Gold.PLP.PLP>
-46.1344

> <Gold.PLP.part.hbond>
-3.0000

> <Gold.PLP.part.metal>
-0.8285

> <Gold.PLP.part.buried>
12.1149

> <Gold.PLP.part.nonpolar>
-59.1568

> <Gold.PLP.part.repulsive>
3.0811

> <Gold.PLP.ligand.clash>
0.0000

> <Gold.PLP.ligand.torsion>
0.7637

> <Gold.PLP.Chemscore.Hbond>
0.0070

> <Gold.PLP.Chemscore.CHOScore>
0.0000

> <Gold.PLP.Chemscore.Metal>
1.0000

> <Gold.Chemscore.Hbonds>
donor molecule, donor type, donor heavy atom, donor atom, acceptor molecule, acceptor atom, score
      P1  M 13283 13283       L1    11  1.00

> <Gold.PLP.Chemscore.Internal.Correction>
   9.000000E+99

