#       Name:                CT1002167954
#       Creating user name   hitesit
#       Creation time:       Sun Apr 16 22:51:12 2023


#       File generated by GOLD software.
#

@<TRIPOS>MOLECULE
CT1002167954|ligand_prepared|mol2|1|dock8
    29    30     1
SMALL
NO_CHARGES


@<TRIPOS>ATOM
      1 C1         123.3689 244.8430 357.1641 C.3            1 RES1               0.0000
      2 C2         122.0851 244.8013 358.0178 C.ar           1 RES1               0.0000
      3 C3         124.4138 245.5792 357.9974 C.2            1 RES1               0.0000
      4 C4         123.7257 243.3924 356.8590 C.2            1 RES1               0.0000
      5 C5         123.2007 245.5867 355.8186 C.3            1 RES1               0.0000
      6 C6         122.0752 244.1576 359.2516 C.ar           1 RES1               0.0000
      7 C7         120.9058 245.4030 357.5867 C.ar           1 RES1               0.0000
      8 N8         125.4126 244.8380 358.5568 N.am           1 RES1               0.0000
      9 O9         124.3402 246.7860 358.1935 O.2            1 RES1               0.0000
     10 N10        124.8854 242.8912 357.3898 N.am           1 RES1               0.0000
     11 O11        123.0048 242.6740 356.1776 O.2            1 RES1               0.0000
     12 C12        124.4127 245.4849 354.9061 C.3            1 RES1               0.0000
     13 C13        120.9287 244.1195 360.0279 C.ar           1 RES1               0.0000
     14 C14        119.7603 245.3635 358.3645 C.ar           1 RES1               0.0000
     15 C15        125.7294 243.5391 358.2501 C.2            1 RES1               0.0000
     16 C16        119.7708 244.7226 359.5852 C.ar           1 RES1               0.0000
     17 O17        126.7249 243.0030 358.7285 O.2            1 RES1               0.0000
     18 H18        122.3288 245.1760 355.2948 H              1 RES1               0.0000
     19 H19        123.0007 246.6458 356.0232 H              1 RES1               0.0000
     20 H20        122.9763 243.6752 359.6154 H              1 RES1               0.0000
     21 H21        120.8739 245.9119 356.6293 H              1 RES1               0.0000
     22 H22        125.9759 245.2914 359.2692 H              1 RES1               0.0000
     23 H23        125.1435 241.9478 357.1183 H              1 RES1               0.0000
     24 H24        124.2419 246.0237 353.9765 H              1 RES1               0.0000
     25 H25        125.2932 245.9073 355.3857 H              1 RES1               0.0000
     26 H26        124.6253 244.4462 354.6616 H              1 RES1               0.0000
     27 H27        120.9418 243.6127 360.9872 H              1 RES1               0.0000
     28 H28        118.8511 245.8390 358.0118 H              1 RES1               0.0000
     29 H29        118.8730 244.6929 360.1936 H              1 RES1               0.0000
@<TRIPOS>BOND
    1    1    2 1     
    2    1    3 1     
    3    1    4 1     
    4    1    5 1     
    5    2    6 ar    
    6    2    7 ar    
    7    3    8 1     
    8    3    9 2     
    9    4   10 1     
   10    4   11 2     
   11    5   12 1     
   12    5   18 1     
   13    5   19 1     
   14    6   13 ar    
   15    6   20 1     
   16    7   14 ar    
   17    7   21 1     
   18    8   15 1     
   19    8   22 1     
   20   10   15 1     
   21   10   23 1     
   22   12   24 1     
   23   12   25 1     
   24   12   26 1     
   25   13   16 ar    
   26   13   27 1     
   27   14   16 ar    
   28   14   28 1     
   29   15   17 2     
   30   16   29 1     
@<TRIPOS>SUBSTRUCTURE
      1 RES1           1
@<TRIPOS>SET
DONOR_HYDROGENS      STATIC     ATOMS    <user>   **** ""
2 22 23
ATOM$RED        STATIC     ATOMS    COLORGROUP SYSTEM
2 22 23
@<TRIPOS>COMMENT
> <Gold.Version>
2022.3.0

> <Gold.Id.Protein>
unknown|5adf_clean|pdb

> <Gold.Protein.RotatedTorsions>
[ 9091 9061 9060 9058 ] final   73.31 input   60.03 | X-H torsion
[ 8987 8971 8970 8967 ] final  108.82 input   59.98 | X-H torsion
[ 12876 12851 12850 12848 ] final  -21.52 input   59.99 | X-H torsion
[ 5555 5539 5538 5535 ] final  176.04 input   60.00 | X-H torsion
[ 8337 8307 8306 8304 ] final   12.90 input   59.97 | X-H torsion
[ 8491 8475 8474 8471 ] final  -74.02 input   60.02 | X-H torsion

> <Gold.Protein.ActiveResidues>
 MET341  HIS342  TRP414  ALA417  ARG419  CYS420  VAL421  GLY422  LEU460  SER462 
 ASN481  SER482  GLN483  LEU484  ARG486  ALA502  ASN503  TRP566  TYR567  GLY568 
 LEU569  PRO570  ALA571  VAL572  SER573  ASN574  MET575  LEU576  PHE589  SER590 
 GLY591  TRP592  TYR593  MET594  GLY595  GLU597  ILE598  ARG601  ASP602  ARG608 
 ILE653  VAL654  TRP683  PHE709  GLU710  TYR711  GLN712  ASP714  HEM750  H4B760 

> <Gold.Protein.RotatedAtoms>
  128.2320  248.7589  361.4100 H   0  0  0  0  0  0  0  0  0  0  0  0  # atno 5555 bound_to 5539
  124.8212  242.3290  362.1178 H   0  0  0  0  0  0  0  0  0  0  0  0  # atno 8337 bound_to 8307
  124.2554  249.5296  366.1724 H   0  0  0  0  0  0  0  0  0  0  0  0  # atno 8491 bound_to 8475
  115.4327  243.4190  368.1056 H   0  0  0  0  0  0  0  0  0  0  0  0  # atno 8987 bound_to 8971
  122.6488  241.4591  361.0799 H   0  0  0  0  0  0  0  0  0  0  0  0  # atno 9091 bound_to 9061
  121.4193  253.1877  354.9505 H   0  0  0  0  0  0  0  0  0  0  0  0  # atno 12876 bound_to 12851
  123.4735  240.5926  359.9763 LP  0  0  0  0  0  0  0  0  0  0  0  0  # atno 13471 bound_to 9061
  123.3303  240.0444  361.5079 LP  0  0  0  0  0  0  0  0  0  0  0  0  # atno 13472 bound_to 9061
  115.0801  245.0034  367.9888 LP  0  0  0  0  0  0  0  0  0  0  0  0  # atno 13487 bound_to 8971
  116.3721  244.5136  368.8591 LP  0  0  0  0  0  0  0  0  0  0  0  0  # atno 13488 bound_to 8971
  121.4180  254.0504  353.5708 LP  0  0  0  0  0  0  0  0  0  0  0  0  # atno 13503 bound_to 12851
  120.0319  253.8432  354.4089 LP  0  0  0  0  0  0  0  0  0  0  0  0  # atno 13504 bound_to 12851
  127.1826  248.2415  362.5409 LP  0  0  0  0  0  0  0  0  0  0  0  0  # atno 13506 bound_to 5539
  128.6070  248.9040  362.9868 LP  0  0  0  0  0  0  0  0  0  0  0  0  # atno 13507 bound_to 5539
  125.6366  241.3708  361.0858 LP  0  0  0  0  0  0  0  0  0  0  0  0  # atno 13510 bound_to 8307
  126.4350  242.1764  362.2606 LP  0  0  0  0  0  0  0  0  0  0  0  0  # atno 13511 bound_to 8307
  124.8660  250.0206  367.5986 LP  0  0  0  0  0  0  0  0  0  0  0  0  # atno 13522 bound_to 8475
  124.6154  251.1002  366.3993 LP  0  0  0  0  0  0  0  0  0  0  0  0  # atno 13523 bound_to 8475

> <Gold.Score>
     Fitness  S(hb_ext) S(vdw_ext)  S(hb_int)    S(int)      intcor
     30.42       4.34      19.60       0.00      -0.87      -0.77

> <Gold.Goldscore.Fitness>
30.4171

> <Gold.Goldscore.Internal.Vdw>
-1.1929

> <Gold.Goldscore.Internal.Torsion>
-0.4412

> <Gold.Goldscore.External.Vdw>
19.5963

> <Gold.Goldscore.Internal.HBond>
0.0000

> <Gold.Goldscore.External.HBond>
4.3376

> <Gold.Goldscore.Internal.Correction>
-0.7686

> <Gold.Goldscore.Hbonds>
donor molecule, donor type, donor heavy atom, donor atom, acceptor molecule, acceptor atom, score
      P1  H  9502  9538       L1    17  0.10
      L1  H    10    23       P1  9336  0.20
      L1  H    10    23       P1  9337  0.43

> <Gold.Goldscore.Internal.Vdw.Weighted>
-1.1929

> <Gold.Goldscore.Internal.Torsion.Weighted>
-0.4412

> <Gold.Goldscore.External.Vdw.Weighted>
26.9449

> <Gold.Goldscore.Internal.HBond.Weighted>
0.0000

> <Gold.Goldscore.External.HBond.Weighted>
4.3376

> <Gold.Goldscore.Internal.Correction.Weighted>
-0.7686

> <Gold.Rescore>
     Score     S(PLP)   S(hbond)     S(cho)   S(metal)  DE(clash)   DE(tors)     intcor
     28.31     -25.71       1.68       0.00       0.00       1.93       0.26       ----

> <Gold.PLP.Fitness>
28.3145

> <Gold.PLP.PLP>
-25.7108

> <Gold.PLP.part.hbond>
-5.0000

> <Gold.PLP.part.metal>
0.0000

> <Gold.PLP.part.buried>
5.3724

> <Gold.PLP.part.nonpolar>
-28.5091

> <Gold.PLP.part.repulsive>
0.9684

> <Gold.PLP.ligand.clash>
1.9269

> <Gold.PLP.ligand.torsion>
0.2556

> <Gold.PLP.Chemscore.Hbond>
1.6806

> <Gold.PLP.Chemscore.CHOScore>
0.0000

> <Gold.PLP.Chemscore.Metal>
0.0000

> <Gold.Chemscore.Hbonds>
donor molecule, donor type, donor heavy atom, donor atom, acceptor molecule, acceptor atom, score
      L1  H    10    23       P1  9336  0.68
      P1  H  5676  5702       L1    17  0.21
      P1  H  9502  9538       L1    17  0.91

> <Gold.PLP.Chemscore.Internal.Correction>
   9.000000E+99

