#       Name:                CT1002167954
#       Creating user name   hitesit
#       Creation time:       Sun Apr 16 22:51:10 2023


#       File generated by GOLD software.
#

@<TRIPOS>MOLECULE
CT1002167954|ligand_prepared|mol2|1|dock6
    29    30     1
SMALL
NO_CHARGES


@<TRIPOS>ATOM
      1 C1         121.5480 248.7678 357.8181 C.3            1 RES1               0.0000
      2 C2         120.2496 248.0334 358.2098 C.ar           1 RES1               0.0000
      3 C3         121.8963 249.6780 358.9921 C.2            1 RES1               0.0000
      4 C4         122.5845 247.6841 357.5423 C.2            1 RES1               0.0000
      5 C5         121.4149 249.6365 356.5456 C.3            1 RES1               0.0000
      6 C6         119.0689 248.7413 358.4134 C.ar           1 RES1               0.0000
      7 C7         120.2163 246.6505 358.3684 C.ar           1 RES1               0.0000
      8 N8         122.9404 249.3103 359.7886 N.am           1 RES1               0.0000
      9 O9         121.2398 250.6823 359.2387 O.2            1 RES1               0.0000
     10 N10        123.6656 247.6014 358.3802 N.am           1 RES1               0.0000
     11 O11        122.4662 246.8905 356.6168 O.2            1 RES1               0.0000
     12 C12        122.7073 250.3246 356.1351 C.3            1 RES1               0.0000
     13 C13        117.8966 248.0902 358.7600 C.ar           1 RES1               0.0000
     14 C14        119.0429 246.0013 358.7153 C.ar           1 RES1               0.0000
     15 C15        123.8749 248.3458 359.5091 C.2            1 RES1               0.0000
     16 C16        117.8827 246.7199 358.9108 C.ar           1 RES1               0.0000
     17 O17        124.8447 248.1759 360.2425 O.2            1 RES1               0.0000
     18 H18        121.0749 249.0013 355.7184 H              1 RES1               0.0000
     19 H19        120.6475 250.4010 356.7187 H              1 RES1               0.0000
     20 H20        119.0611 249.8204 358.3016 H              1 RES1               0.0000
     21 H21        121.1173 246.0649 358.2207 H              1 RES1               0.0000
     22 H22        123.0352 249.7975 360.6741 H              1 RES1               0.0000
     23 H23        124.3806 246.9222 358.1401 H              1 RES1               0.0000
     24 H24        122.5585 250.9208 355.2373 H              1 RES1               0.0000
     25 H25        123.0610 250.9840 356.9250 H              1 RES1               0.0000
     26 H26        123.4859 249.5926 355.9306 H              1 RES1               0.0000
     27 H27        116.9865 248.6605 358.9140 H              1 RES1               0.0000
     28 H28        119.0367 244.9228 358.8335 H              1 RES1               0.0000
     29 H29        116.9641 246.2101 359.1819 H              1 RES1               0.0000
@<TRIPOS>BOND
    1    1    2 1     
    2    1    3 1     
    3    1    4 1     
    4    1    5 1     
    5    2    6 ar    
    6    2    7 ar    
    7    3    8 1     
    8    3    9 2     
    9    4   10 1     
   10    4   11 2     
   11    5   12 1     
   12    5   18 1     
   13    5   19 1     
   14    6   13 ar    
   15    6   20 1     
   16    7   14 ar    
   17    7   21 1     
   18    8   15 1     
   19    8   22 1     
   20   10   15 1     
   21   10   23 1     
   22   12   24 1     
   23   12   25 1     
   24   12   26 1     
   25   13   16 ar    
   26   13   27 1     
   27   14   16 ar    
   28   14   28 1     
   29   15   17 2     
   30   16   29 1     
@<TRIPOS>SUBSTRUCTURE
      1 RES1           1
@<TRIPOS>SET
DONOR_HYDROGENS      STATIC     ATOMS    <user>   **** ""
2 22 23
ATOM$RED        STATIC     ATOMS    COLORGROUP SYSTEM
2 22 23
@<TRIPOS>COMMENT
> <Gold.Version>
2022.3.0

> <Gold.Id.Protein>
unknown|5adf_clean|pdb

> <Gold.Protein.RotatedTorsions>
[ 9091 9061 9060 9058 ] final  -59.53 input   60.03 | X-H torsion
[ 8987 8971 8970 8967 ] final  -25.82 input   59.98 | X-H torsion
[ 12876 12851 12850 12848 ] final  159.39 input   59.99 | X-H torsion
[ 5555 5539 5538 5535 ] final  105.82 input   60.00 | X-H torsion
[ 8337 8307 8306 8304 ] final  -74.11 input   59.97 | X-H torsion
[ 8491 8475 8474 8471 ] final -152.80 input   60.02 | X-H torsion

> <Gold.Protein.ActiveResidues>
 MET341  HIS342  TRP414  ALA417  ARG419  CYS420  VAL421  GLY422  LEU460  SER462 
 ASN481  SER482  GLN483  LEU484  ARG486  ALA502  ASN503  TRP566  TYR567  GLY568 
 LEU569  PRO570  ALA571  VAL572  SER573  ASN574  MET575  LEU576  PHE589  SER590 
 GLY591  TRP592  TYR593  MET594  GLY595  GLU597  ILE598  ARG601  ASP602  ARG608 
 ILE653  VAL654  TRP683  PHE709  GLU710  TYR711  GLN712  ASP714  HEM750  H4B760 

> <Gold.Protein.RotatedAtoms>
  127.3150  248.3203  361.7651 H   0  0  0  0  0  0  0  0  0  0  0  0  # atno 5555 bound_to 5539
  125.1295  241.5166  361.1658 H   0  0  0  0  0  0  0  0  0  0  0  0  # atno 8337 bound_to 8307
  124.6552  249.4749  367.2899 H   0  0  0  0  0  0  0  0  0  0  0  0  # atno 8491 bound_to 8475
  115.2391  245.1357  368.1094 H   0  0  0  0  0  0  0  0  0  0  0  0  # atno 8987 bound_to 8971
  123.5482  240.4135  360.0576 H   0  0  0  0  0  0  0  0  0  0  0  0  # atno 9091 bound_to 9061
  120.5090  254.2027  353.6671 H   0  0  0  0  0  0  0  0  0  0  0  0  # atno 12876 bound_to 12851
  123.2199  240.1728  361.6334 LP  0  0  0  0  0  0  0  0  0  0  0  0  # atno 13471 bound_to 9061
  122.6786  241.5166  360.8798 LP  0  0  0  0  0  0  0  0  0  0  0  0  # atno 13472 bound_to 9061
  116.3990  244.2747  368.8586 LP  0  0  0  0  0  0  0  0  0  0  0  0  # atno 13487 bound_to 8971
  115.2482  243.5131  367.9855 LP  0  0  0  0  0  0  0  0  0  0  0  0  # atno 13488 bound_to 8971
  120.4838  253.3392  355.0461 LP  0  0  0  0  0  0  0  0  0  0  0  0  # atno 13503 bound_to 12851
  121.8825  253.5325  354.2257 LP  0  0  0  0  0  0  0  0  0  0  0  0  # atno 13504 bound_to 12851
  127.9312  248.5808  363.2485 LP  0  0  0  0  0  0  0  0  0  0  0  0  # atno 13506 bound_to 5539
  128.7822  249.0066  361.9214 LP  0  0  0  0  0  0  0  0  0  0  0  0  # atno 13507 bound_to 5539
  126.5631  241.8390  361.8651 LP  0  0  0  0  0  0  0  0  0  0  0  0  # atno 13510 bound_to 8307
  125.1980  242.5264  362.4400 LP  0  0  0  0  0  0  0  0  0  0  0  0  # atno 13511 bound_to 8307
  124.8387  251.0696  367.0236 LP  0  0  0  0  0  0  0  0  0  0  0  0  # atno 13522 bound_to 8475
  124.2401  250.1063  365.8488 LP  0  0  0  0  0  0  0  0  0  0  0  0  # atno 13523 bound_to 8475

> <Gold.Score>
     Fitness  S(hb_ext) S(vdw_ext)  S(hb_int)    S(int)      intcor
     27.89       0.00      22.36       0.00      -2.86      -0.78

> <Gold.Goldscore.Fitness>
27.8900

> <Gold.Goldscore.Internal.Vdw>
-3.2594

> <Gold.Goldscore.Internal.Torsion>
-0.3716

> <Gold.Goldscore.External.Vdw>
22.3606

> <Gold.Goldscore.Internal.HBond>
0.0000

> <Gold.Goldscore.External.HBond>
0.0000

> <Gold.Goldscore.Internal.Correction>
-0.7752

> <Gold.Goldscore.Internal.Vdw.Weighted>
-3.2594

> <Gold.Goldscore.Internal.Torsion.Weighted>
-0.3716

> <Gold.Goldscore.External.Vdw.Weighted>
30.7458

> <Gold.Goldscore.Internal.HBond.Weighted>
0.0000

> <Gold.Goldscore.External.HBond.Weighted>
0.0000

> <Gold.Goldscore.Internal.Correction.Weighted>
-0.7752

> <Gold.Rescore>
     Score     S(PLP)   S(hbond)     S(cho)   S(metal)  DE(clash)   DE(tors)     intcor
     32.93     -34.45       0.00       0.00       0.00       1.45       0.03       ----

> <Gold.PLP.Fitness>
32.9317

> <Gold.PLP.PLP>
-34.4464

> <Gold.PLP.part.hbond>
-0.7552

> <Gold.PLP.part.metal>
0.0000

> <Gold.PLP.part.buried>
-2.2468

> <Gold.PLP.part.nonpolar>
-34.2554

> <Gold.PLP.part.repulsive>
1.4580

> <Gold.PLP.ligand.clash>
1.4500

> <Gold.PLP.ligand.torsion>
0.0323

> <Gold.PLP.Chemscore.Hbond>
0.0000

> <Gold.PLP.Chemscore.CHOScore>
0.0000

> <Gold.PLP.Chemscore.Metal>
0.0000

> <Gold.PLP.Chemscore.Internal.Correction>
   9.000000E+99

