#       Name:                CT1002167954
#       Creating user name   hitesit
#       Creation time:       Sun Apr 16 22:51:06 2023


#       File generated by GOLD software.
#

@<TRIPOS>MOLECULE
CT1002167954|ligand_prepared|mol2|1|dock1
    29    30     1
SMALL
NO_CHARGES


@<TRIPOS>ATOM
      1 C1         117.9237 245.7196 359.6208 C.3            1 RES1               0.0000
      2 C2         119.3938 245.4187 359.2646 C.ar           1 RES1               0.0000
      3 C3         117.0727 244.8723 358.6795 C.2            1 RES1               0.0000
      4 C4         117.7609 245.3658 361.0949 C.2            1 RES1               0.0000
      5 C5         117.5278 247.2035 359.4392 C.3            1 RES1               0.0000
      6 C6         119.8845 244.1176 359.3206 C.ar           1 RES1               0.0000
      7 C7         120.2691 246.4296 358.8764 C.ar           1 RES1               0.0000
      8 N8         116.4494 243.7782 359.2036 N.am           1 RES1               0.0000
      9 O9         116.9818 245.1374 357.4872 O.2            1 RES1               0.0000
     10 N10        116.9348 244.3210 361.4171 N.am           1 RES1               0.0000
     11 O11        118.3535 245.9717 361.9793 O.2            1 RES1               0.0000
     12 C12        116.0610 247.4860 359.7235 C.3            1 RES1               0.0000
     13 C13        121.2016 243.8367 358.9973 C.ar           1 RES1               0.0000
     14 C14        121.5860 246.1465 358.5537 C.ar           1 RES1               0.0000
     15 C15        116.2957 243.4916 360.5362 C.2            1 RES1               0.0000
     16 C16        122.0531 244.8507 358.6133 C.ar           1 RES1               0.0000
     17 O17        115.6131 242.5390 360.9017 O.2            1 RES1               0.0000
     18 H18        118.1420 247.8174 360.1094 H              1 RES1               0.0000
     19 H19        117.7522 247.5051 358.4086 H              1 RES1               0.0000
     20 H20        119.2299 243.3070 359.6230 H              1 RES1               0.0000
     21 H21        119.9238 247.4565 358.8235 H              1 RES1               0.0000
     22 H22        116.0619 243.1115 358.5436 H              1 RES1               0.0000
     23 H23        116.7821 244.1453 362.4051 H              1 RES1               0.0000
     24 H24        115.8368 248.5411 359.5811 H              1 RES1               0.0000
     25 H25        115.4213 246.9108 359.0574 H              1 RES1               0.0000
     26 H26        115.8088 247.2211 360.7482 H              1 RES1               0.0000
     27 H27        121.5647 242.8155 359.0471 H              1 RES1               0.0000
     28 H28        122.2527 246.9477 358.2526 H              1 RES1               0.0000
     29 H29        123.0848 244.6303 358.3597 H              1 RES1               0.0000
@<TRIPOS>BOND
    1    1    2 1     
    2    1    3 1     
    3    1    4 1     
    4    1    5 1     
    5    2    6 ar    
    6    2    7 ar    
    7    3    8 1     
    8    3    9 2     
    9    4   10 1     
   10    4   11 2     
   11    5   12 1     
   12    5   18 1     
   13    5   19 1     
   14    6   13 ar    
   15    6   20 1     
   16    7   14 ar    
   17    7   21 1     
   18    8   15 1     
   19    8   22 1     
   20   10   15 1     
   21   10   23 1     
   22   12   24 1     
   23   12   25 1     
   24   12   26 1     
   25   13   16 ar    
   26   13   27 1     
   27   14   16 ar    
   28   14   28 1     
   29   15   17 2     
   30   16   29 1     
@<TRIPOS>SUBSTRUCTURE
      1 RES1           1
@<TRIPOS>SET
DONOR_HYDROGENS      STATIC     ATOMS    <user>   **** ""
2 22 23
ATOM$RED        STATIC     ATOMS    COLORGROUP SYSTEM
2 22 23
@<TRIPOS>COMMENT
> <Gold.Version>
2022.3.0

> <Gold.Id.Protein>
unknown|5adf_clean|pdb

> <Gold.Protein.RotatedTorsions>
[ 9091 9061 9060 9058 ] final  -52.98 input   60.03 | X-H torsion
[ 8987 8971 8970 8967 ] final -127.73 input   59.98 | X-H torsion
[ 12876 12851 12850 12848 ] final   92.88 input   59.99 | X-H torsion
[ 5555 5539 5538 5535 ] final   48.43 input   60.00 | X-H torsion
[ 8337 8307 8306 8304 ] final  -32.03 input   59.97 | X-H torsion
[ 8491 8475 8474 8471 ] final -161.37 input   60.02 | X-H torsion

> <Gold.Protein.ActiveResidues>
 MET341  HIS342  TRP414  ALA417  ARG419  CYS420  VAL421  GLY422  LEU460  SER462 
 ASN481  SER482  GLN483  LEU484  ARG486  ALA502  ASN503  TRP566  TYR567  GLY568 
 LEU569  PRO570  ALA571  VAL572  SER573  ASN574  MET575  LEU576  PHE589  SER590 
 GLY591  TRP592  TYR593  MET594  GLY595  GLU597  ILE598  ARG601  ASP602  ARG608 
 ILE653  VAL654  TRP683  PHE709  GLU710  TYR711  GLN712  ASP714  HEM750  H4B760 

> <Gold.Protein.RotatedAtoms>
  127.2233  248.2604  362.6574 H   0  0  0  0  0  0  0  0  0  0  0  0  # atno 5555 bound_to 5539
  124.7337  241.8946  361.5561 H   0  0  0  0  0  0  0  0  0  0  0  0  # atno 8337 bound_to 8307
  124.7054  249.5654  367.3839 H   0  0  0  0  0  0  0  0  0  0  0  0  # atno 8491 bound_to 8475
  116.3545  244.5666  368.8488 H   0  0  0  0  0  0  0  0  0  0  0  0  # atno 8987 bound_to 8971
  123.5102  240.5033  360.0135 H   0  0  0  0  0  0  0  0  0  0  0  0  # atno 9091 bound_to 9061
  120.0435  253.7954  354.4866 H   0  0  0  0  0  0  0  0  0  0  0  0  # atno 12876 bound_to 12851
  123.2770  240.1036  361.5739 LP  0  0  0  0  0  0  0  0  0  0  0  0  # atno 13471 bound_to 9061
  122.6597  241.4954  360.9837 LP  0  0  0  0  0  0  0  0  0  0  0  0  # atno 13472 bound_to 9061
  115.4754  243.3972  368.1361 LP  0  0  0  0  0  0  0  0  0  0  0  0  # atno 13487 bound_to 8971
  115.0483  244.9638  367.9631 LP  0  0  0  0  0  0  0  0  0  0  0  0  # atno 13488 bound_to 8971
  121.4977  253.1957  354.9031 LP  0  0  0  0  0  0  0  0  0  0  0  0  # atno 13503 bound_to 12851
  121.3374  254.0860  353.5436 LP  0  0  0  0  0  0  0  0  0  0  0  0  # atno 13504 bound_to 12851
  128.6822  248.9413  362.8937 LP  0  0  0  0  0  0  0  0  0  0  0  0  # atno 13506 bound_to 5539
  128.1235  248.7065  361.3774 LP  0  0  0  0  0  0  0  0  0  0  0  0  # atno 13507 bound_to 5539
  126.2946  241.4790  361.3586 LP  0  0  0  0  0  0  0  0  0  0  0  0  # atno 13510 bound_to 8307
  125.8650  242.5057  362.5535 LP  0  0  0  0  0  0  0  0  0  0  0  0  # atno 13511 bound_to 8307
  124.7999  251.1149  366.8959 LP  0  0  0  0  0  0  0  0  0  0  0  0  # atno 13522 bound_to 8475
  124.2283  249.9698  365.8817 LP  0  0  0  0  0  0  0  0  0  0  0  0  # atno 13523 bound_to 8475

> <Gold.Score>
     Fitness  S(hb_ext) S(vdw_ext)  S(hb_int)    S(int)      intcor
     40.77       0.14      29.58       0.00      -0.04      -0.80

> <Gold.Goldscore.Fitness>
40.7715

> <Gold.Goldscore.Internal.Vdw>
-0.4587

> <Gold.Goldscore.Internal.Torsion>
-0.3819

> <Gold.Goldscore.External.Vdw>
29.5811

> <Gold.Goldscore.Internal.HBond>
0.0000

> <Gold.Goldscore.External.HBond>
0.1404

> <Gold.Goldscore.Internal.Correction>
-0.7977

> <Gold.Goldscore.Hbonds>
donor molecule, donor type, donor heavy atom, donor atom, acceptor molecule, acceptor atom, score
      P1  H  8438  8461       L1    11  0.07

> <Gold.Goldscore.Internal.Vdw.Weighted>
-0.4587

> <Gold.Goldscore.Internal.Torsion.Weighted>
-0.3819

> <Gold.Goldscore.External.Vdw.Weighted>
40.6740

> <Gold.Goldscore.Internal.HBond.Weighted>
0.0000

> <Gold.Goldscore.External.HBond.Weighted>
0.1404

> <Gold.Goldscore.Internal.Correction.Weighted>
-0.7977

> <Gold.Rescore>
     Score     S(PLP)   S(hbond)     S(cho)   S(metal)  DE(clash)   DE(tors)     intcor
     32.70     -30.07       1.34       0.00       0.00       0.00       0.70       ----

> <Gold.PLP.Fitness>
32.6962

> <Gold.PLP.PLP>
-30.0712

> <Gold.PLP.part.hbond>
-4.0000

> <Gold.PLP.part.metal>
0.0000

> <Gold.PLP.part.buried>
12.5525

> <Gold.PLP.part.nonpolar>
-41.7483

> <Gold.PLP.part.repulsive>
1.1622

> <Gold.PLP.ligand.clash>
0.0000

> <Gold.PLP.ligand.torsion>
0.6960

> <Gold.PLP.Chemscore.Hbond>
1.3390

> <Gold.PLP.Chemscore.CHOScore>
0.0000

> <Gold.PLP.Chemscore.Metal>
0.0000

> <Gold.Chemscore.Hbonds>
donor molecule, donor type, donor heavy atom, donor atom, acceptor molecule, acceptor atom, score
      L1  H    10    23       P1  8393  0.10
      P1  H  8438  8461       L1    11  0.16

> <Gold.PLP.Chemscore.Internal.Correction>
   9.000000E+99

