#       Name:                CT1002167954
#       Creating user name   hitesit
#       Creation time:       Sun Apr 16 22:51:11 2023


#       File generated by GOLD software.
#

@<TRIPOS>MOLECULE
CT1002167954|ligand_prepared|mol2|1|dock7
    29    30     1
SMALL
NO_CHARGES


@<TRIPOS>ATOM
      1 C1         123.5118 244.0273 356.9523 C.3            1 RES1               0.0000
      2 C2         122.2366 244.5625 357.6351 C.ar           1 RES1               0.0000
      3 C3         124.6887 244.6836 357.6682 C.2            1 RES1               0.0000
      4 C4         123.4661 242.5098 357.0926 C.2            1 RES1               0.0000
      5 C5         123.6028 244.3653 355.4460 C.3            1 RES1               0.0000
      6 C6         121.5418 243.7793 358.5520 C.ar           1 RES1               0.0000
      7 C7         121.7452 245.8360 357.3608 C.ar           1 RES1               0.0000
      8 N8         125.4242 243.9089 358.5160 N.am           1 RES1               0.0000
      9 O9         124.9434 245.8727 357.5215 O.2            1 RES1               0.0000
     10 N10        124.4233 241.9074 357.8663 N.am           1 RES1               0.0000
     11 O11        122.5999 241.8319 356.5537 O.2            1 RES1               0.0000
     12 C12        124.7985 243.7368 354.7477 C.3            1 RES1               0.0000
     13 C13        120.3988 244.2531 359.1743 C.ar           1 RES1               0.0000
     14 C14        120.6018 246.3078 357.9842 C.ar           1 RES1               0.0000
     15 C15        125.3819 242.5409 358.6092 C.2            1 RES1               0.0000
     16 C16        119.9283 245.5177 358.8913 C.ar           1 RES1               0.0000
     17 O17        126.1736 241.9328 359.3237 O.2            1 RES1               0.0000
     18 H18        122.6852 244.0236 354.9514 H              1 RES1               0.0000
     19 H19        123.6596 245.4549 355.3314 H              1 RES1               0.0000
     20 H20        121.8956 242.7807 358.7855 H              1 RES1               0.0000
     21 H21        122.2581 246.4748 356.6498 H              1 RES1               0.0000
     22 H22        126.0649 244.3912 359.1382 H              1 RES1               0.0000
     23 H23        124.4211 240.8926 357.8906 H              1 RES1               0.0000
     24 H24        124.8147 244.0057 353.6936 H              1 RES1               0.0000
     25 H25        125.7296 244.0747 355.1980 H              1 RES1               0.0000
     26 H26        124.7610 242.6519 354.8202 H              1 RES1               0.0000
     27 H27        119.8716 243.6268 359.8864 H              1 RES1               0.0000
     28 H28        120.2347 247.3034 357.7579 H              1 RES1               0.0000
     29 H29        119.0331 245.8887 359.3793 H              1 RES1               0.0000
@<TRIPOS>BOND
    1    1    2 1     
    2    1    3 1     
    3    1    4 1     
    4    1    5 1     
    5    2    6 ar    
    6    2    7 ar    
    7    3    8 1     
    8    3    9 2     
    9    4   10 1     
   10    4   11 2     
   11    5   12 1     
   12    5   18 1     
   13    5   19 1     
   14    6   13 ar    
   15    6   20 1     
   16    7   14 ar    
   17    7   21 1     
   18    8   15 1     
   19    8   22 1     
   20   10   15 1     
   21   10   23 1     
   22   12   24 1     
   23   12   25 1     
   24   12   26 1     
   25   13   16 ar    
   26   13   27 1     
   27   14   16 ar    
   28   14   28 1     
   29   15   17 2     
   30   16   29 1     
@<TRIPOS>SUBSTRUCTURE
      1 RES1           1
@<TRIPOS>SET
DONOR_HYDROGENS      STATIC     ATOMS    <user>   **** ""
2 22 23
ATOM$RED        STATIC     ATOMS    COLORGROUP SYSTEM
2 22 23
@<TRIPOS>COMMENT
> <Gold.Version>
2022.3.0

> <Gold.Id.Protein>
unknown|5adf_clean|pdb

> <Gold.Protein.RotatedTorsions>
[ 9091 9061 9060 9058 ] final    6.48 input   60.03 | X-H torsion
[ 8987 8971 8970 8967 ] final -158.89 input   59.98 | X-H torsion
[ 12876 12851 12850 12848 ] final   75.29 input   59.99 | X-H torsion
[ 5555 5539 5538 5535 ] final  -96.67 input   60.00 | X-H torsion
[ 8337 8307 8306 8304 ] final   69.54 input   59.97 | X-H torsion
[ 8491 8475 8474 8471 ] final  -41.04 input   60.02 | X-H torsion

> <Gold.Protein.ActiveResidues>
 MET341  HIS342  TRP414  ALA417  ARG419  CYS420  VAL421  GLY422  LEU460  SER462 
 ASN481  SER482  GLN483  LEU484  ARG486  ALA502  ASN503  TRP566  TYR567  GLY568 
 LEU569  PRO570  ALA571  VAL572  SER573  ASN574  MET575  LEU576  PHE589  SER590 
 GLY591  TRP592  TYR593  MET594  GLY595  GLU597  ILE598  ARG601  ASP602  ARG608 
 ILE653  VAL654  TRP683  PHE709  GLU710  TYR711  GLN712  ASP714  HEM750  H4B760 

> <Gold.Protein.RotatedAtoms>
  128.8334  249.0213  362.5232 H   0  0  0  0  0  0  0  0  0  0  0  0  # atno 5555 bound_to 5539
  125.5671  242.5480  362.5477 H   0  0  0  0  0  0  0  0  0  0  0  0  # atno 8337 bound_to 8307
  124.2290  249.9771  365.8868 H   0  0  0  0  0  0  0  0  0  0  0  0  # atno 8491 bound_to 8475
  116.3764  244.0649  368.8233 H   0  0  0  0  0  0  0  0  0  0  0  0  # atno 8987 bound_to 8971
  123.0273  241.2874  360.1357 H   0  0  0  0  0  0  0  0  0  0  0  0  # atno 9091 bound_to 9061
  120.1140  253.6364  354.7140 H   0  0  0  0  0  0  0  0  0  0  0  0  # atno 12876 bound_to 12851
  123.6400  239.9040  360.7355 LP  0  0  0  0  0  0  0  0  0  0  0  0  # atno 13471 bound_to 9061
  122.7829  240.9059  361.6990 LP  0  0  0  0  0  0  0  0  0  0  0  0  # atno 13472 bound_to 9061
  115.1060  243.6471  367.8962 LP  0  0  0  0  0  0  0  0  0  0  0  0  # atno 13487 bound_to 8971
  115.3957  245.2194  368.2288 LP  0  0  0  0  0  0  0  0  0  0  0  0  # atno 13488 bound_to 8971
  121.6994  253.2699  354.7110 LP  0  0  0  0  0  0  0  0  0  0  0  0  # atno 13503 bound_to 12851
  121.0646  254.1719  353.5068 LP  0  0  0  0  0  0  0  0  0  0  0  0  # atno 13504 bound_to 12851
  127.7540  248.5319  361.4082 LP  0  0  0  0  0  0  0  0  0  0  0  0  # atno 13506 bound_to 5539
  127.4296  248.3493  362.9982 LP  0  0  0  0  0  0  0  0  0  0  0  0  # atno 13507 bound_to 5539
  124.8524  241.7118  361.3485 LP  0  0  0  0  0  0  0  0  0  0  0  0  # atno 13510 bound_to 8307
  126.4680  241.6149  361.5649 LP  0  0  0  0  0  0  0  0  0  0  0  0  # atno 13511 bound_to 8307
  124.7065  249.5566  367.3845 LP  0  0  0  0  0  0  0  0  0  0  0  0  # atno 13522 bound_to 8475
  124.8015  251.1135  366.9011 LP  0  0  0  0  0  0  0  0  0  0  0  0  # atno 13523 bound_to 8475

> <Gold.Score>
     Fitness  S(hb_ext) S(vdw_ext)  S(hb_int)    S(int)      intcor
     33.04       0.54      24.68       0.00      -1.43      -0.78

> <Gold.Goldscore.Fitness>
33.0368

> <Gold.Goldscore.Internal.Vdw>
-1.7981

> <Gold.Goldscore.Internal.Torsion>
-0.4059

> <Gold.Goldscore.External.Vdw>
24.6758

> <Gold.Goldscore.Internal.HBond>
0.0000

> <Gold.Goldscore.External.HBond>
0.5362

> <Gold.Goldscore.Internal.Correction>
-0.7752

> <Gold.Goldscore.Hbonds>
donor molecule, donor type, donor heavy atom, donor atom, acceptor molecule, acceptor atom, score
      P1  H  9502  9538       L1    17  0.03
      L1  H    10    23       P1  9337  0.06

> <Gold.Goldscore.Internal.Vdw.Weighted>
-1.7981

> <Gold.Goldscore.Internal.Torsion.Weighted>
-0.4059

> <Gold.Goldscore.External.Vdw.Weighted>
33.9293

> <Gold.Goldscore.Internal.HBond.Weighted>
0.0000

> <Gold.Goldscore.External.HBond.Weighted>
0.5362

> <Gold.Goldscore.Internal.Correction.Weighted>
-0.7752

> <Gold.Rescore>
     Score     S(PLP)   S(hbond)     S(cho)   S(metal)  DE(clash)   DE(tors)     intcor
     28.19     -25.33       1.72       0.00       0.00       1.76       0.26       ----

> <Gold.PLP.Fitness>
28.1945

> <Gold.PLP.PLP>
-25.3295

> <Gold.PLP.part.hbond>
-5.0000

> <Gold.PLP.part.metal>
0.0000

> <Gold.PLP.part.buried>
5.0932

> <Gold.PLP.part.nonpolar>
-28.2390

> <Gold.PLP.part.repulsive>
1.0078

> <Gold.PLP.ligand.clash>
1.7613

> <Gold.PLP.ligand.torsion>
0.2603

> <Gold.PLP.Chemscore.Hbond>
1.7156

> <Gold.PLP.Chemscore.CHOScore>
0.0000

> <Gold.PLP.Chemscore.Metal>
0.0000

> <Gold.Chemscore.Hbonds>
donor molecule, donor type, donor heavy atom, donor atom, acceptor molecule, acceptor atom, score
      L1  H    10    23       P1  9337  0.69

> <Gold.PLP.Chemscore.Internal.Correction>
   9.000000E+99

