#       Name:                CT1002167954
#       Creating user name   hitesit
#       Creation time:       Sun Apr 16 22:50:16 2023


#       File generated by GOLD software.
#

@<TRIPOS>MOLECULE
CT1002167954|ligand_prepared|mol2|1|dock9
    29    30     1
SMALL
NO_CHARGES


@<TRIPOS>ATOM
      1 C1          26.3496   8.8834  -2.8234 C.3            1 RES1               0.0000
      2 C2          27.4968   9.5787  -3.5845 C.ar           1 RES1               0.0000
      3 C3          26.8774   7.5120  -2.4124 C.2            1 RES1               0.0000
      4 C4          26.0026   9.7936  -1.6504 C.2            1 RES1               0.0000
      5 C5          25.0698   8.6842  -3.6684 C.3            1 RES1               0.0000
      6 C6          28.8217   9.3723  -3.2119 C.ar           1 RES1               0.0000
      7 C7          27.2465  10.4257  -4.6608 C.ar           1 RES1               0.0000
      8 N8          27.1893   7.3229  -1.0983 N.am           1 RES1               0.0000
      9 O9          27.0546   6.6225  -3.2356 O.2            1 RES1               0.0000
     10 N10         26.2406   9.3277  -0.3839 N.am           1 RES1               0.0000
     11 O11         25.5407  10.9165  -1.8120 O.2            1 RES1               0.0000
     12 C12         24.0354   7.7836  -3.0116 C.3            1 RES1               0.0000
     13 C13         29.8590   9.9878  -3.8926 C.ar           1 RES1               0.0000
     14 C14         28.2853  11.0405  -5.3400 C.ar           1 RES1               0.0000
     15 C15         26.8467   8.1458  -0.0556 C.2            1 RES1               0.0000
     16 C16         29.5916  10.8219  -4.9573 C.ar           1 RES1               0.0000
     17 O17         27.0758   7.8206   1.1058 O.2            1 RES1               0.0000
     18 H18         24.6153   9.6645  -3.8574 H              1 RES1               0.0000
     19 H19         25.3499   8.2520  -4.6370 H              1 RES1               0.0000
     20 H20         29.0513   8.7212  -2.3751 H              1 RES1               0.0000
     21 H21         26.2265  10.6132  -4.9789 H              1 RES1               0.0000
     22 H22         27.7271   6.4929  -0.8698 H              1 RES1               0.0000
     23 H23         25.9376   9.9165   0.3855 H              1 RES1               0.0000
     24 H24         23.1580   7.6774  -3.6460 H              1 RES1               0.0000
     25 H25         24.4457   6.7921  -2.8319 H              1 RES1               0.0000
     26 H26         23.7155   8.1962  -2.0569 H              1 RES1               0.0000
     27 H27         30.8853   9.8136  -3.5866 H              1 RES1               0.0000
     28 H28         28.0702  11.6966  -6.1770 H              1 RES1               0.0000
     29 H29         30.4044  11.3037  -5.4906 H              1 RES1               0.0000
@<TRIPOS>BOND
    1    1    2 1     
    2    1    3 1     
    3    1    4 1     
    4    1    5 1     
    5    2    6 ar    
    6    2    7 ar    
    7    3    8 1     
    8    3    9 2     
    9    4   10 1     
   10    4   11 2     
   11    5   12 1     
   12    5   18 1     
   13    5   19 1     
   14    6   13 ar    
   15    6   20 1     
   16    7   14 ar    
   17    7   21 1     
   18    8   15 1     
   19    8   22 1     
   20   10   15 1     
   21   10   23 1     
   22   12   24 1     
   23   12   25 1     
   24   12   26 1     
   25   13   16 ar    
   26   13   27 1     
   27   14   16 ar    
   28   14   28 1     
   29   15   17 2     
   30   16   29 1     
@<TRIPOS>SUBSTRUCTURE
      1 RES1           1
@<TRIPOS>SET
DONOR_HYDROGENS      STATIC     ATOMS    <user>   **** ""
2 22 23
ATOM$RED        STATIC     ATOMS    COLORGROUP SYSTEM
2 22 23
@<TRIPOS>COMMENT
> <Gold.Version>
2022.3.0

> <Gold.Id.Protein>
unknown|3oog_clean|pdb

> <Gold.Protein.RotatedTorsions>
[ 2749 2742 2740 2737 ] final  -74.97 input   59.98 | X-H torsion
[ 1733 1732 1731 1729 ] final -143.15 input   60.02 | X-H torsion
[ 2432 2423 2422 2420 ] final  -57.10 input   60.03 | X-H torsion
[ 4996 4987 4986 4984 ] final    3.21 input   60.02 | X-H torsion

> <Gold.Protein.ActiveResidues>
 LEU49   GLY50   THR51   ARG56   VAL57   MET58   LEU59   HIS68   TYR69   ALA70  
 MET71   LYS72   LEU74   GLU91   LEU95   VAL104  LYS105  LEU106  MET118  VAL119 
 MET120  GLU121  TYR122  VAL123  PRO124  GLY125  GLY126  GLU127  TYR164  GLU170 
 ASN171  LEU172  LEU173  ILE174  ASP175  GLN181  VAL182  THR183  ASP184  PHE185 
 GLY186  THR324  PHE327  TYR330 

> <Gold.Protein.RotatedAtoms>
   35.3720   11.7632  -11.0049 H   0  0  0  0  0  0  0  0  0  0  0  0  # atno 1733 bound_to 1732
   25.8910    3.2831    3.1692 H   0  0  0  0  0  0  0  0  0  0  0  0  # atno 2432 bound_to 2423
   28.5874    5.5231   -1.0416 H   0  0  0  0  0  0  0  0  0  0  0  0  # atno 2749 bound_to 2742
   23.5153   10.1938   -9.5398 H   0  0  0  0  0  0  0  0  0  0  0  0  # atno 4996 bound_to 4987
   28.1603    7.0918   -1.1182 LP  0  0  0  0  0  0  0  0  0  0  0  0  # atno 5321 bound_to 2742
   27.5538    6.1341    0.0572 LP  0  0  0  0  0  0  0  0  0  0  0  0  # atno 5322 bound_to 2742
   34.4121   13.0553  -10.7660 LP  0  0  0  0  0  0  0  0  0  0  0  0  # atno 5347 bound_to 1732
   33.8871   11.5604  -10.3707 LP  0  0  0  0  0  0  0  0  0  0  0  0  # atno 5348 bound_to 1732

> <Gold.Score>
     Fitness  S(hb_ext) S(vdw_ext)  S(hb_int)    S(int)      intcor
     38.58       6.16      23.86       0.00      -0.38      -0.76

> <Gold.Goldscore.Fitness>
38.5825

> <Gold.Goldscore.Internal.Vdw>
-0.6006

> <Gold.Goldscore.Internal.Torsion>
-0.5428

> <Gold.Goldscore.External.Vdw>
23.8618

> <Gold.Goldscore.Internal.HBond>
0.0000

> <Gold.Goldscore.External.HBond>
6.1574

> <Gold.Goldscore.Internal.Correction>
-0.7585

> <Gold.Goldscore.Hbonds>
donor molecule, donor type, donor heavy atom, donor atom, acceptor molecule, acceptor atom, score
      P1  H   856   869       L1    17  1.00
      L1  H     8    22       P1  2742  0.08

> <Gold.Goldscore.Internal.Vdw.Weighted>
-0.6006

> <Gold.Goldscore.Internal.Torsion.Weighted>
-0.5428

> <Gold.Goldscore.External.Vdw.Weighted>
32.8100

> <Gold.Goldscore.Internal.HBond.Weighted>
0.0000

> <Gold.Goldscore.External.HBond.Weighted>
6.1574

> <Gold.Goldscore.Internal.Correction.Weighted>
-0.7585

> <Gold.Rescore>
     Score     S(PLP)   S(hbond)     S(cho)   S(metal)  DE(clash)   DE(tors)     intcor
     34.55     -34.37       0.83       0.00       0.00       1.72       0.30       ----

> <Gold.PLP.Fitness>
34.5533

> <Gold.PLP.PLP>
-34.3741

> <Gold.PLP.part.hbond>
-1.4711

> <Gold.PLP.part.metal>
0.0000

> <Gold.PLP.part.buried>
-3.5903

> <Gold.PLP.part.nonpolar>
-29.2913

> <Gold.PLP.part.repulsive>
0.4677

> <Gold.PLP.ligand.clash>
1.7234

> <Gold.PLP.ligand.torsion>
0.2967

> <Gold.PLP.Chemscore.Hbond>
0.8320

> <Gold.PLP.Chemscore.CHOScore>
0.0000

> <Gold.PLP.Chemscore.Metal>
0.0000

> <Gold.PLP.Chemscore.Internal.Correction>
   9.000000E+99

#       Name:                CT1002167954
#       Creating user name   hitesit
#       Creation time:       Sun Apr 16 22:50:09 2023


#       File generated by GOLD software.
#

@<TRIPOS>MOLECULE
CT1002167954|ligand_prepared|mol2|1|dock2
    29    30     1
SMALL
NO_CHARGES


@<TRIPOS>ATOM
      1 C1          26.8448   9.3642  -3.5534 C.3            1 RES1               0.0000
      2 C2          27.0900   9.5346  -2.0402 C.ar           1 RES1               0.0000
      3 C3          26.7917   7.8614  -3.8123 C.2            1 RES1               0.0000
      4 C4          25.5420  10.0947  -3.8594 C.2            1 RES1               0.0000
      5 C5          27.9551   9.9763  -4.4390 C.3            1 RES1               0.0000
      6 C6          26.0424   9.4034  -1.1335 C.ar           1 RES1               0.0000
      7 C7          28.3563   9.8199  -1.5367 C.ar           1 RES1               0.0000
      8 N8          25.5716   7.3063  -4.0635 N.am           1 RES1               0.0000
      9 O9          27.7996   7.1676  -3.7578 O.2            1 RES1               0.0000
     10 N10         24.4693   9.3487  -4.2723 N.am           1 RES1               0.0000
     11 O11         25.4298  11.3076  -3.7307 O.2            1 RES1               0.0000
     12 C12         27.5830  10.0716  -5.9103 C.3            1 RES1               0.0000
     13 C13         26.2536   9.5492   0.2275 C.ar           1 RES1               0.0000
     14 C14         28.5653   9.9655  -0.1752 C.ar           1 RES1               0.0000
     15 C15         24.4161   7.9841  -4.3587 C.2            1 RES1               0.0000
     16 C16         27.5151   9.8299   0.7076 C.ar           1 RES1               0.0000
     17 O17         23.3976   7.3817  -4.6858 O.2            1 RES1               0.0000
     18 H18         28.1885  10.9818  -4.0679 H              1 RES1               0.0000
     19 H19         28.8607   9.3648  -4.3428 H              1 RES1               0.0000
     20 H20         25.0423   9.1850  -1.4929 H              1 RES1               0.0000
     21 H21         29.1972   9.9320  -2.2127 H              1 RES1               0.0000
     22 H22         25.5128   6.2936  -4.0286 H              1 RES1               0.0000
     23 H23         23.6329   9.8577  -4.5402 H              1 RES1               0.0000
     24 H24         28.3964  10.5077  -6.4864 H              1 RES1               0.0000
     25 H25         27.3687   9.0862  -6.3186 H              1 RES1               0.0000
     26 H26         26.7005  10.6937  -6.0454 H              1 RES1               0.0000
     27 H27         25.4235   9.4428   0.9181 H              1 RES1               0.0000
     28 H28         29.5597  10.1871   0.1981 H              1 RES1               0.0000
     29 H29         27.6804   9.9437   1.7739 H              1 RES1               0.0000
@<TRIPOS>BOND
    1    1    2 1     
    2    1    3 1     
    3    1    4 1     
    4    1    5 1     
    5    2    6 ar    
    6    2    7 ar    
    7    3    8 1     
    8    3    9 2     
    9    4   10 1     
   10    4   11 2     
   11    5   12 1     
   12    5   18 1     
   13    5   19 1     
   14    6   13 ar    
   15    6   20 1     
   16    7   14 ar    
   17    7   21 1     
   18    8   15 1     
   19    8   22 1     
   20   10   15 1     
   21   10   23 1     
   22   12   24 1     
   23   12   25 1     
   24   12   26 1     
   25   13   16 ar    
   26   13   27 1     
   27   14   16 ar    
   28   14   28 1     
   29   15   17 2     
   30   16   29 1     
@<TRIPOS>SUBSTRUCTURE
      1 RES1           1
@<TRIPOS>SET
DONOR_HYDROGENS      STATIC     ATOMS    <user>   **** ""
2 22 23
ATOM$RED        STATIC     ATOMS    COLORGROUP SYSTEM
2 22 23
@<TRIPOS>COMMENT
> <Gold.Version>
2022.3.0

> <Gold.Id.Protein>
unknown|3oog_clean|pdb

> <Gold.Protein.RotatedTorsions>
[ 2749 2742 2740 2737 ] final -162.67 input   59.98 | X-H torsion
[ 1733 1732 1731 1729 ] final   17.55 input   60.02 | X-H torsion
[ 2432 2423 2422 2420 ] final -163.06 input   60.03 | X-H torsion
[ 4996 4987 4986 4984 ] final   74.59 input   60.02 | X-H torsion

> <Gold.Protein.ActiveResidues>
 LEU49   GLY50   THR51   ARG56   VAL57   MET58   LEU59   HIS68   TYR69   ALA70  
 MET71   LYS72   LEU74   GLU91   LEU95   VAL104  LYS105  LEU106  MET118  VAL119 
 MET120  GLU121  TYR122  VAL123  PRO124  GLY125  GLY126  GLU127  TYR164  GLU170 
 ASN171  LEU172  LEU173  ILE174  ASP175  GLN181  VAL182  THR183  ASP184  PHE185 
 GLY186  THR324  PHE327  TYR330 

> <Gold.Protein.RotatedAtoms>
   33.6933   12.1843  -10.3628 H   0  0  0  0  0  0  0  0  0  0  0  0  # atno 1733 bound_to 1732
   25.6929    2.0357    2.3682 H   0  0  0  0  0  0  0  0  0  0  0  0  # atno 2432 bound_to 2423
   28.4697    6.7680   -1.3881 H   0  0  0  0  0  0  0  0  0  0  0  0  # atno 2749 bound_to 2742
   23.1581   10.4343   -8.5364 H   0  0  0  0  0  0  0  0  0  0  0  0  # atno 4996 bound_to 4987
   27.5062    6.6373   -0.0828 LP  0  0  0  0  0  0  0  0  0  0  0  0  # atno 5321 bound_to 2742
   28.3264    5.3353   -0.6293 LP  0  0  0  0  0  0  0  0  0  0  0  0  # atno 5322 bound_to 2742
   34.9813   11.2859  -10.7893 LP  0  0  0  0  0  0  0  0  0  0  0  0  # atno 5347 bound_to 1732
   35.0083   12.9058  -10.9941 LP  0  0  0  0  0  0  0  0  0  0  0  0  # atno 5348 bound_to 1732

> <Gold.Score>
     Fitness  S(hb_ext) S(vdw_ext)  S(hb_int)    S(int)      intcor
     38.07       1.70      26.57       0.00      -0.17      -0.76

> <Gold.Goldscore.Fitness>
38.0708

> <Gold.Goldscore.Internal.Vdw>
-0.3341

> <Gold.Goldscore.Internal.Torsion>
-0.5940

> <Gold.Goldscore.External.Vdw>
26.5725

> <Gold.Goldscore.Internal.HBond>
0.0000

> <Gold.Goldscore.External.HBond>
1.7032

> <Gold.Goldscore.Internal.Correction>
-0.7585

> <Gold.Goldscore.Hbonds>
donor molecule, donor type, donor heavy atom, donor atom, acceptor molecule, acceptor atom, score
      P1  H  2742  2749       L1     9  0.02
      L1  H     8    22       P1  2527  0.83

> <Gold.Goldscore.Internal.Vdw.Weighted>
-0.3341

> <Gold.Goldscore.Internal.Torsion.Weighted>
-0.5940

> <Gold.Goldscore.External.Vdw.Weighted>
36.5371

> <Gold.Goldscore.Internal.HBond.Weighted>
0.0000

> <Gold.Goldscore.External.HBond.Weighted>
1.7032

> <Gold.Goldscore.Internal.Correction.Weighted>
-0.7585

> <Gold.Rescore>
     Score     S(PLP)   S(hbond)     S(cho)   S(metal)  DE(clash)   DE(tors)     intcor
     41.91     -37.96       1.81       0.00       0.00       0.00       0.74       ----

> <Gold.PLP.Fitness>
41.9061

> <Gold.PLP.PLP>
-37.9627

> <Gold.PLP.part.hbond>
-2.0415

> <Gold.PLP.part.metal>
0.0000

> <Gold.PLP.part.buried>
-3.7469

> <Gold.PLP.part.nonpolar>
-32.5674

> <Gold.PLP.part.repulsive>
0.4784

> <Gold.PLP.ligand.clash>
0.0000

> <Gold.PLP.ligand.torsion>
0.7403

> <Gold.PLP.Chemscore.Hbond>
1.8080

> <Gold.PLP.Chemscore.CHOScore>
0.0000

> <Gold.PLP.Chemscore.Metal>
0.0000

> <Gold.Chemscore.Hbonds>
donor molecule, donor type, donor heavy atom, donor atom, acceptor molecule, acceptor atom, score
      L1  H     8    22       P1  2527  1.00
      P1  H  2742  2749       L1     9  0.02

> <Gold.PLP.Chemscore.Internal.Correction>
   9.000000E+99

#       Name:                CT1002167954
#       Creating user name   hitesit
#       Creation time:       Sun Apr 16 22:50:08 2023


#       File generated by GOLD software.
#

@<TRIPOS>MOLECULE
CT1002167954|ligand_prepared|mol2|1|dock1
    29    30     1
SMALL
NO_CHARGES


@<TRIPOS>ATOM
      1 C1          26.9497   9.3899  -3.3882 C.3            1 RES1               0.0000
      2 C2          27.0974   9.5295  -1.8594 C.ar           1 RES1               0.0000
      3 C3          26.8844   7.8931  -3.6775 C.2            1 RES1               0.0000
      4 C4          25.6845  10.1522  -3.7660 C.2            1 RES1               0.0000
      5 C5          28.1279   9.9937  -4.1875 C.3            1 RES1               0.0000
      6 C6          25.9787   9.4881  -1.0327 C.ar           1 RES1               0.0000
      7 C7          28.3438   9.6971  -1.2619 C.ar           1 RES1               0.0000
      8 N8          25.6730   7.3677  -4.0185 N.am           1 RES1               0.0000
      9 O9          27.8728   7.1777  -3.5694 O.2            1 RES1               0.0000
     10 N10         24.6271   9.4357  -4.2621 N.am           1 RES1               0.0000
     11 O11         25.5878  11.3649  -3.6228 O.2            1 RES1               0.0000
     12 C12         27.8789  10.0666  -5.6858 C.3            1 RES1               0.0000
     13 C13         26.1017   9.6071   0.3418 C.ar           1 RES1               0.0000
     14 C14         28.4646   9.8162   0.1128 C.ar           1 RES1               0.0000
     15 C15         24.5531   8.0742  -4.3767 C.2            1 RES1               0.0000
     16 C16         27.3446   9.7708   0.9154 C.ar           1 RES1               0.0000
     17 O17         23.5469   7.4987  -4.7811 O.2            1 RES1               0.0000
     18 H18         28.3270  11.0053  -3.8130 H              1 RES1               0.0000
     19 H19         29.0242   9.3872  -4.0077 H              1 RES1               0.0000
     20 H20         24.9922   9.3624  -1.4662 H              1 RES1               0.0000
     21 H21         29.2387   9.7368  -1.8737 H              1 RES1               0.0000
     22 H22         25.5923   6.3560  -4.0060 H              1 RES1               0.0000
     23 H23         23.8205   9.9664  -4.5752 H              1 RES1               0.0000
     24 H24         28.7361  10.4976  -6.1987 H              1 RES1               0.0000
     25 H25         27.7021   9.0745  -6.0962 H              1 RES1               0.0000
     26 H26         27.0090  10.6831  -5.9026 H              1 RES1               0.0000
     27 H27         25.2170   9.5721   0.9689 H              1 RES1               0.0000
     28 H28         29.4447   9.9455   0.5599 H              1 RES1               0.0000
     29 H29         27.4407   9.8636   1.9921 H              1 RES1               0.0000
@<TRIPOS>BOND
    1    1    2 1     
    2    1    3 1     
    3    1    4 1     
    4    1    5 1     
    5    2    6 ar    
    6    2    7 ar    
    7    3    8 1     
    8    3    9 2     
    9    4   10 1     
   10    4   11 2     
   11    5   12 1     
   12    5   18 1     
   13    5   19 1     
   14    6   13 ar    
   15    6   20 1     
   16    7   14 ar    
   17    7   21 1     
   18    8   15 1     
   19    8   22 1     
   20   10   15 1     
   21   10   23 1     
   22   12   24 1     
   23   12   25 1     
   24   12   26 1     
   25   13   16 ar    
   26   13   27 1     
   27   14   16 ar    
   28   14   28 1     
   29   15   17 2     
   30   16   29 1     
@<TRIPOS>SUBSTRUCTURE
      1 RES1           1
@<TRIPOS>SET
DONOR_HYDROGENS      STATIC     ATOMS    <user>   **** ""
2 22 23
ATOM$RED        STATIC     ATOMS    COLORGROUP SYSTEM
2 22 23
@<TRIPOS>COMMENT
> <Gold.Version>
2022.3.0

> <Gold.Id.Protein>
unknown|3oog_clean|pdb

> <Gold.Protein.RotatedTorsions>
[ 2749 2742 2740 2737 ] final  104.54 input   59.98 | X-H torsion
[ 1733 1732 1731 1729 ] final  109.11 input   60.02 | X-H torsion
[ 2432 2423 2422 2420 ] final  159.57 input   60.03 | X-H torsion
[ 4996 4987 4986 4984 ] final   67.96 input   60.02 | X-H torsion

> <Gold.Protein.ActiveResidues>
 LEU49   GLY50   THR51   ARG56   VAL57   MET58   LEU59   HIS68   TYR69   ALA70  
 MET71   LYS72   LEU74   GLU91   LEU95   VAL104  LYS105  LEU106  MET118  VAL119 
 MET120  GLU121  TYR122  VAL123  PRO124  GLY125  GLY126  GLU127  TYR164  GLU170 
 ASN171  LEU172  LEU173  ILE174  ASP175  GLN181  VAL182  THR183  ASP184  PHE185 
 GLY186  THR324  PHE327  TYR330 

> <Gold.Protein.RotatedAtoms>
   34.5987   13.0524  -10.8401 H   0  0  0  0  0  0  0  0  0  0  0  0  # atno 1733 bound_to 1732
   26.2323    1.8048    2.2418 H   0  0  0  0  0  0  0  0  0  0  0  0  # atno 2432 bound_to 2423
   27.6149    6.9689   -0.3544 H   0  0  0  0  0  0  0  0  0  0  0  0  # atno 2749 bound_to 2742
   23.2426   10.4202   -8.6022 H   0  0  0  0  0  0  0  0  0  0  0  0  # atno 4996 bound_to 4987
   28.0469    5.4010   -0.2913 LP  0  0  0  0  0  0  0  0  0  0  0  0  # atno 5321 bound_to 2742
   28.6462    6.3693   -1.4616 LP  0  0  0  0  0  0  0  0  0  0  0  0  # atno 5322 bound_to 2742
   33.7842   11.7320  -10.3488 LP  0  0  0  0  0  0  0  0  0  0  0  0  # atno 5347 bound_to 1732
   35.2938   11.5854  -10.9540 LP  0  0  0  0  0  0  0  0  0  0  0  0  # atno 5348 bound_to 1732

> <Gold.Score>
     Fitness  S(hb_ext) S(vdw_ext)  S(hb_int)    S(int)      intcor
     37.88       1.72      26.41       0.00      -0.15      -0.81

> <Gold.Goldscore.Fitness>
37.8828

> <Gold.Goldscore.Internal.Vdw>
-0.4429

> <Gold.Goldscore.Internal.Torsion>
-0.5124

> <Gold.Goldscore.External.Vdw>
26.4103

> <Gold.Goldscore.Internal.HBond>
0.0000

> <Gold.Goldscore.External.HBond>
1.7158

> <Gold.Goldscore.Internal.Correction>
-0.8080

> <Gold.Goldscore.Hbonds>
donor molecule, donor type, donor heavy atom, donor atom, acceptor molecule, acceptor atom, score
      L1  H     8    22       P1  2527  0.86

> <Gold.Goldscore.Internal.Vdw.Weighted>
-0.4429

> <Gold.Goldscore.Internal.Torsion.Weighted>
-0.5124

> <Gold.Goldscore.External.Vdw.Weighted>
36.3142

> <Gold.Goldscore.Internal.HBond.Weighted>
0.0000

> <Gold.Goldscore.External.HBond.Weighted>
1.7158

> <Gold.Goldscore.Internal.Correction.Weighted>
-0.8080

> <Gold.Rescore>
     Score     S(PLP)   S(hbond)     S(cho)   S(metal)  DE(clash)   DE(tors)     intcor
     38.58     -38.14       0.86       0.00       0.00       0.00       1.08       ----

> <Gold.PLP.Fitness>
38.5793

> <Gold.PLP.PLP>
-38.1375

> <Gold.PLP.part.hbond>
-2.0968

> <Gold.PLP.part.metal>
0.0000

> <Gold.PLP.part.buried>
-3.7453

> <Gold.PLP.part.nonpolar>
-32.6416

> <Gold.PLP.part.repulsive>
0.4690

> <Gold.PLP.ligand.clash>
0.0000

> <Gold.PLP.ligand.torsion>
1.0751

> <Gold.PLP.Chemscore.Hbond>
0.8640

> <Gold.PLP.Chemscore.CHOScore>
0.0000

> <Gold.PLP.Chemscore.Metal>
0.0000

> <Gold.Chemscore.Hbonds>
donor molecule, donor type, donor heavy atom, donor atom, acceptor molecule, acceptor atom, score
      L1  H     8    22       P1  2527  1.00

> <Gold.PLP.Chemscore.Internal.Correction>
   9.000000E+99

#       Name:                CT1002167954
#       Creating user name   hitesit
#       Creation time:       Sun Apr 16 22:50:11 2023


#       File generated by GOLD software.
#

@<TRIPOS>MOLECULE
CT1002167954|ligand_prepared|mol2|1|dock4
    29    30     1
SMALL
NO_CHARGES


@<TRIPOS>ATOM
      1 C1          25.9881   9.2964  -2.6495 C.3            1 RES1               0.0000
      2 C2          27.1830   9.7771  -3.4980 C.ar           1 RES1               0.0000
      3 C3          26.5476   8.2790  -1.6594 C.2            1 RES1               0.0000
      4 C4          25.4002  10.5422  -1.9961 C.2            1 RES1               0.0000
      5 C5          24.8701   8.6163  -3.4736 C.3            1 RES1               0.0000
      6 C6          26.9895  10.2411  -4.7957 C.ar           1 RES1               0.0000
      7 C7          28.4819   9.7651  -2.9967 C.ar           1 RES1               0.0000
      8 N8          26.6692   8.6656  -0.3572 N.am           1 RES1               0.0000
      9 O9          26.9134   7.1680  -2.0229 O.2            1 RES1               0.0000
     10 N10         25.4767  10.6486  -0.6320 N.am           1 RES1               0.0000
     11 O11         24.8863  11.4403  -2.6515 O.2            1 RES1               0.0000
     12 C12         23.8586   7.8595  -2.6273 C.3            1 RES1               0.0000
     13 C13         28.0554  10.6800  -5.5635 C.ar           1 RES1               0.0000
     14 C14         29.5465  10.2043  -3.7663 C.ar           1 RES1               0.0000
     15 C15         26.1119   9.7812   0.2143 C.2            1 RES1               0.0000
     16 C16         29.3344  10.6624  -5.0493 C.ar           1 RES1               0.0000
     17 O17         26.1851   9.9731   1.4247 O.2            1 RES1               0.0000
     18 H18         24.3420   9.3836  -4.0530 H              1 RES1               0.0000
     19 H19         25.3299   7.9174  -4.1833 H              1 RES1               0.0000
     20 H20         25.9904  10.2601  -5.2182 H              1 RES1               0.0000
     21 H21         28.6726   9.4080  -1.9904 H              1 RES1               0.0000
     22 H22         27.2260   8.0702   0.2476 H              1 RES1               0.0000
     23 H23         25.0175  11.4486  -0.2083 H              1 RES1               0.0000
     24 H24         23.0965   7.4017  -3.2544 H              1 RES1               0.0000
     25 H25         24.3458   7.0717  -2.0564 H              1 RES1               0.0000
     26 H26         23.3638   8.5292  -1.9269 H              1 RES1               0.0000
     27 H27         27.8833  11.0383  -6.5731 H              1 RES1               0.0000
     28 H28         30.5515  10.1880  -3.3578 H              1 RES1               0.0000
     29 H29         30.1692  11.0066  -5.6508 H              1 RES1               0.0000
@<TRIPOS>BOND
    1    1    2 1     
    2    1    3 1     
    3    1    4 1     
    4    1    5 1     
    5    2    6 ar    
    6    2    7 ar    
    7    3    8 1     
    8    3    9 2     
    9    4   10 1     
   10    4   11 2     
   11    5   12 1     
   12    5   18 1     
   13    5   19 1     
   14    6   13 ar    
   15    6   20 1     
   16    7   14 ar    
   17    7   21 1     
   18    8   15 1     
   19    8   22 1     
   20   10   15 1     
   21   10   23 1     
   22   12   24 1     
   23   12   25 1     
   24   12   26 1     
   25   13   16 ar    
   26   13   27 1     
   27   14   16 ar    
   28   14   28 1     
   29   15   17 2     
   30   16   29 1     
@<TRIPOS>SUBSTRUCTURE
      1 RES1           1
@<TRIPOS>SET
DONOR_HYDROGENS      STATIC     ATOMS    <user>   **** ""
2 22 23
ATOM$RED        STATIC     ATOMS    COLORGROUP SYSTEM
2 22 23
@<TRIPOS>COMMENT
> <Gold.Version>
2022.3.0

> <Gold.Id.Protein>
unknown|3oog_clean|pdb

> <Gold.Protein.RotatedTorsions>
[ 2749 2742 2740 2737 ] final  -12.52 input   59.98 | X-H torsion
[ 1733 1732 1731 1729 ] final  -74.09 input   60.02 | X-H torsion
[ 2432 2423 2422 2420 ] final  173.43 input   60.03 | X-H torsion
[ 4996 4987 4986 4984 ] final   71.59 input   60.02 | X-H torsion

> <Gold.Protein.ActiveResidues>
 LEU49   GLY50   THR51   ARG56   VAL57   MET58   LEU59   HIS68   TYR69   ALA70  
 MET71   LYS72   LEU74   GLU91   LEU95   VAL104  LYS105  LEU106  MET118  VAL119 
 MET120  GLU121  TYR122  VAL123  PRO124  GLY125  GLY126  GLU127  TYR164  GLU170 
 ASN171  LEU172  LEU173  ILE174  ASP175  GLN181  VAL182  THR183  ASP184  PHE185 
 GLY186  THR324  PHE327  TYR330 

> <Gold.Protein.RotatedAtoms>
   34.5689   11.1956  -10.6058 H   0  0  0  0  0  0  0  0  0  0  0  0  # atno 1733 bound_to 1732
   26.0133    1.8553    2.2656 H   0  0  0  0  0  0  0  0  0  0  0  0  # atno 2432 bound_to 2423
   28.0185    5.4259   -0.2608 H   0  0  0  0  0  0  0  0  0  0  0  0  # atno 2749 bound_to 2742
   23.1973   10.4283   -8.5650 H   0  0  0  0  0  0  0  0  0  0  0  0  # atno 4996 bound_to 4987
   28.6584    6.3228   -1.4588 LP  0  0  0  0  0  0  0  0  0  0  0  0  # atno 5321 bound_to 2742
   27.6285    7.0009   -0.3883 LP  0  0  0  0  0  0  0  0  0  0  0  0  # atno 5322 bound_to 2742
   35.3095   12.5657  -11.0776 LP  0  0  0  0  0  0  0  0  0  0  0  0  # atno 5347 bound_to 1732
   33.7984   12.6216  -10.4610 LP  0  0  0  0  0  0  0  0  0  0  0  0  # atno 5348 bound_to 1732

> <Gold.Score>
     Fitness  S(hb_ext) S(vdw_ext)  S(hb_int)    S(int)      intcor
     37.61       6.00      23.63       0.00      -0.88      -0.76

> <Gold.Goldscore.Fitness>
37.6105

> <Gold.Goldscore.Internal.Vdw>
-0.9756

> <Gold.Goldscore.Internal.Torsion>
-0.6584

> <Gold.Goldscore.External.Vdw>
23.6262

> <Gold.Goldscore.Internal.HBond>
0.0000

> <Gold.Goldscore.External.HBond>
6.0000

> <Gold.Goldscore.Internal.Correction>
-0.7585

> <Gold.Goldscore.Hbonds>
donor molecule, donor type, donor heavy atom, donor atom, acceptor molecule, acceptor atom, score
      P1  H   856   869       L1    17  1.00

> <Gold.Goldscore.Internal.Vdw.Weighted>
-0.9756

> <Gold.Goldscore.Internal.Torsion.Weighted>
-0.6584

> <Gold.Goldscore.External.Vdw.Weighted>
32.4860

> <Gold.Goldscore.Internal.HBond.Weighted>
0.0000

> <Gold.Goldscore.External.HBond.Weighted>
6.0000

> <Gold.Goldscore.Internal.Correction.Weighted>
-0.7585

> <Gold.Rescore>
     Score     S(PLP)   S(hbond)     S(cho)   S(metal)  DE(clash)   DE(tors)     intcor
     35.30     -33.64       1.16       0.00       0.00       0.00       0.91       ----

> <Gold.PLP.Fitness>
35.3040

> <Gold.PLP.PLP>
-33.6415

> <Gold.PLP.part.hbond>
-2.3957

> <Gold.PLP.part.metal>
0.0000

> <Gold.PLP.part.buried>
-2.2129

> <Gold.PLP.part.nonpolar>
-30.5489

> <Gold.PLP.part.repulsive>
0.4779

> <Gold.PLP.ligand.clash>
0.0000

> <Gold.PLP.ligand.torsion>
0.9133

> <Gold.PLP.Chemscore.Hbond>
1.1630

> <Gold.PLP.Chemscore.CHOScore>
0.0000

> <Gold.PLP.Chemscore.Metal>
0.0000

> <Gold.Chemscore.Hbonds>
donor molecule, donor type, donor heavy atom, donor atom, acceptor molecule, acceptor atom, score
      L1  H     8    22       P1  2742  0.16
      P1  H   856   869       L1    17  1.00

> <Gold.PLP.Chemscore.Internal.Correction>
   9.000000E+99

#       Name:                CT1002167954
#       Creating user name   hitesit
#       Creation time:       Sun Apr 16 22:50:14 2023


#       File generated by GOLD software.
#

@<TRIPOS>MOLECULE
CT1002167954|ligand_prepared|mol2|1|dock7
    29    30     1
SMALL
NO_CHARGES


@<TRIPOS>ATOM
      1 C1          27.3470   9.1764  -3.1889 C.3            1 RES1               0.0000
      2 C2          28.5982   9.6896  -2.4473 C.ar           1 RES1               0.0000
      3 C3          26.7758  10.3730  -3.9441 C.2            1 RES1               0.0000
      4 C4          27.8207   8.0409  -4.0894 C.2            1 RES1               0.0000
      5 C5          26.2507   8.6178  -2.2522 C.3            1 RES1               0.0000
      6 C6          28.6038   9.8008  -1.0601 C.ar           1 RES1               0.0000
      7 C7          29.7531  10.0523  -3.1352 C.ar           1 RES1               0.0000
      8 N8          26.9457  10.4061  -5.2968 N.am           1 RES1               0.0000
      9 O9          26.2195  11.2928  -3.3570 O.2            1 RES1               0.0000
     10 N10         27.7398   8.2204  -5.4455 N.am           1 RES1               0.0000
     11 O11         28.2786   6.9989  -3.6370 O.2            1 RES1               0.0000
     12 C12         25.0905   7.9650  -2.9871 C.3            1 RES1               0.0000
     13 C13         29.7243  10.2554  -0.3847 C.ar           1 RES1               0.0000
     14 C14         30.8725  10.5068  -2.4578 C.ar           1 RES1               0.0000
     15 C15         27.3524   9.3635  -6.0901 C.2            1 RES1               0.0000
     16 C16         30.8595  10.6082  -1.0829 C.ar           1 RES1               0.0000
     17 O17         27.3581   9.4668  -7.3134 O.2            1 RES1               0.0000
     18 H18         26.7036   7.8786  -1.5800 H              1 RES1               0.0000
     19 H19         25.8616   9.4376  -1.6358 H              1 RES1               0.0000
     20 H20         27.7188   9.5301  -0.4938 H              1 RES1               0.0000
     21 H21         29.7859   9.9817  -4.2171 H              1 RES1               0.0000
     22 H22         26.7525  11.2876  -5.7616 H              1 RES1               0.0000
     23 H23         27.9916   7.4285  -6.0285 H              1 RES1               0.0000
     24 H24         24.3501   7.5903  -2.2835 H              1 RES1               0.0000
     25 H25         24.6008   8.6789  -3.6463 H              1 RES1               0.0000
     26 H26         25.4378   7.1291  -3.5909 H              1 RES1               0.0000
     27 H27         29.7084  10.3347   0.6973 H              1 RES1               0.0000
     28 H28         31.7635  10.7840  -3.0115 H              1 RES1               0.0000
     29 H29         31.7372  10.9639  -0.5536 H              1 RES1               0.0000
@<TRIPOS>BOND
    1    1    2 1     
    2    1    3 1     
    3    1    4 1     
    4    1    5 1     
    5    2    6 ar    
    6    2    7 ar    
    7    3    8 1     
    8    3    9 2     
    9    4   10 1     
   10    4   11 2     
   11    5   12 1     
   12    5   18 1     
   13    5   19 1     
   14    6   13 ar    
   15    6   20 1     
   16    7   14 ar    
   17    7   21 1     
   18    8   15 1     
   19    8   22 1     
   20   10   15 1     
   21   10   23 1     
   22   12   24 1     
   23   12   25 1     
   24   12   26 1     
   25   13   16 ar    
   26   13   27 1     
   27   14   16 ar    
   28   14   28 1     
   29   15   17 2     
   30   16   29 1     
@<TRIPOS>SUBSTRUCTURE
      1 RES1           1
@<TRIPOS>SET
DONOR_HYDROGENS      STATIC     ATOMS    <user>   **** ""
2 22 23
ATOM$RED        STATIC     ATOMS    COLORGROUP SYSTEM
2 22 23
@<TRIPOS>COMMENT
> <Gold.Version>
2022.3.0

> <Gold.Id.Protein>
unknown|3oog_clean|pdb

> <Gold.Protein.RotatedTorsions>
[ 2749 2742 2740 2737 ] final -155.37 input   59.98 | X-H torsion
[ 1733 1732 1731 1729 ] final  -47.80 input   60.02 | X-H torsion
[ 2432 2423 2422 2420 ] final -132.30 input   60.03 | X-H torsion
[ 4996 4987 4986 4984 ] final   59.40 input   60.02 | X-H torsion

> <Gold.Protein.ActiveResidues>
 LEU49   GLY50   THR51   ARG56   VAL57   MET58   LEU59   HIS68   TYR69   ALA70  
 MET71   LYS72   LEU74   GLU91   LEU95   VAL104  LYS105  LEU106  MET118  VAL119 
 MET120  GLU121  TYR122  VAL123  PRO124  GLY125  GLY126  GLU127  TYR164  GLU170 
 ASN171  LEU172  LEU173  ILE174  ASP175  GLN181  VAL182  THR183  ASP184  PHE185 
 GLY186  THR324  PHE327  TYR330 

> <Gold.Protein.RotatedAtoms>
   34.1842   11.3060  -10.4603 H   0  0  0  0  0  0  0  0  0  0  0  0  # atno 1733 bound_to 1732
   25.4447    2.4030    2.5924 H   0  0  0  0  0  0  0  0  0  0  0  0  # atno 2432 bound_to 2423
   28.5264    6.6689   -1.4224 H   0  0  0  0  0  0  0  0  0  0  0  0  # atno 2749 bound_to 2742
   23.3395   10.3983   -8.7006 H   0  0  0  0  0  0  0  0  0  0  0  0  # atno 4996 bound_to 4987
   27.5216    6.7394   -0.1439 LP  0  0  0  0  0  0  0  0  0  0  0  0  # atno 5321 bound_to 2742
   28.2539    5.3328   -0.5338 LP  0  0  0  0  0  0  0  0  0  0  0  0  # atno 5322 bound_to 2742
   35.4286   12.1537  -11.0775 LP  0  0  0  0  0  0  0  0  0  0  0  0  # atno 5347 bound_to 1732
   34.0667   12.9224  -10.6076 LP  0  0  0  0  0  0  0  0  0  0  0  0  # atno 5348 bound_to 1732

> <Gold.Score>
     Fitness  S(hb_ext) S(vdw_ext)  S(hb_int)    S(int)      intcor
     34.03       1.17      24.41       0.00      -0.70      -0.76

> <Gold.Goldscore.Fitness>
34.0307

> <Gold.Goldscore.Internal.Vdw>
-1.0260

> <Gold.Goldscore.Internal.Torsion>
-0.4370

> <Gold.Goldscore.External.Vdw>
24.4127

> <Gold.Goldscore.Internal.HBond>
0.0000

> <Gold.Goldscore.External.HBond>
1.1678

> <Gold.Goldscore.Internal.Correction>
-0.7585

> <Gold.Goldscore.Hbonds>
donor molecule, donor type, donor heavy atom, donor atom, acceptor molecule, acceptor atom, score
      P1  H  2742  2749       L1    11  0.58

> <Gold.Goldscore.Internal.Vdw.Weighted>
-1.0260

> <Gold.Goldscore.Internal.Torsion.Weighted>
-0.4370

> <Gold.Goldscore.External.Vdw.Weighted>
33.5674

> <Gold.Goldscore.Internal.HBond.Weighted>
0.0000

> <Gold.Goldscore.External.HBond.Weighted>
1.1678

> <Gold.Goldscore.Internal.Correction.Weighted>
-0.7585

> <Gold.Rescore>
     Score     S(PLP)   S(hbond)     S(cho)   S(metal)  DE(clash)   DE(tors)     intcor
     35.44     -33.59       0.62       0.00       0.00       0.00       0.01       ----

> <Gold.PLP.Fitness>
35.4446

> <Gold.PLP.PLP>
-33.5944

> <Gold.PLP.part.hbond>
-0.9485

> <Gold.PLP.part.metal>
0.0000

> <Gold.PLP.part.buried>
-4.7423

> <Gold.PLP.part.nonpolar>
-29.0514

> <Gold.PLP.part.repulsive>
0.4404

> <Gold.PLP.ligand.clash>
0.0000

> <Gold.PLP.ligand.torsion>
0.0109

> <Gold.PLP.Chemscore.Hbond>
0.6240

> <Gold.PLP.Chemscore.CHOScore>
0.0000

> <Gold.PLP.Chemscore.Metal>
0.0000

> <Gold.Chemscore.Hbonds>
donor molecule, donor type, donor heavy atom, donor atom, acceptor molecule, acceptor atom, score
      L1  H     8    22       P1   503  0.13
      P1  H  2742  2749       L1    11  0.62

> <Gold.PLP.Chemscore.Internal.Correction>
   9.000000E+99

#       Name:                CT1002167954
#       Creating user name   hitesit
#       Creation time:       Sun Apr 16 22:50:15 2023


#       File generated by GOLD software.
#

@<TRIPOS>MOLECULE
CT1002167954|ligand_prepared|mol2|1|dock8
    29    30     1
SMALL
NO_CHARGES


@<TRIPOS>ATOM
      1 C1          26.7152   9.4948  -3.7453 C.3            1 RES1               0.0000
      2 C2          25.9737  10.1465  -2.5603 C.ar           1 RES1               0.0000
      3 C3          28.0815   9.0706  -3.2147 C.2            1 RES1               0.0000
      4 C4          25.8408   8.3354  -4.2100 C.2            1 RES1               0.0000
      5 C5          26.9282  10.4442  -4.9473 C.3            1 RES1               0.0000
      6 C6          25.0040  11.1202  -2.7803 C.ar           1 RES1               0.0000
      7 C7          26.2462   9.7832  -1.2441 C.ar           1 RES1               0.0000
      8 N8          28.2920   7.7397  -3.0040 N.am           1 RES1               0.0000
      9 O9          28.9474   9.8947  -2.9478 O.2            1 RES1               0.0000
     10 N10         26.3288   7.0635  -4.0616 N.am           1 RES1               0.0000
     11 O11         24.7268   8.5108  -4.6880 O.2            1 RES1               0.0000
     12 C12         27.9147   9.9172  -5.9775 C.3            1 RES1               0.0000
     13 C13         24.3289  11.7073  -1.7230 C.ar           1 RES1               0.0000
     14 C14         25.5700  10.3718  -0.1882 C.ar           1 RES1               0.0000
     15 C15         27.5019   6.7115  -3.4515 C.2            1 RES1               0.0000
     16 C16         24.6111  11.3332  -0.4264 C.ar           1 RES1               0.0000
     17 O17         27.8470   5.5422  -3.3074 O.2            1 RES1               0.0000
     18 H18         25.9621  10.6145  -5.4384 H              1 RES1               0.0000
     19 H19         27.2897  11.4105  -4.5744 H              1 RES1               0.0000
     20 H20         24.7702  11.4291  -3.7936 H              1 RES1               0.0000
     21 H21         26.9974   9.0298  -1.0328 H              1 RES1               0.0000
     22 H22         29.1128   7.4854  -2.4637 H              1 RES1               0.0000
     23 H23         25.7654   6.3093  -4.4412 H              1 RES1               0.0000
     24 H24         28.0273  10.6214  -6.7992 H              1 RES1               0.0000
     25 H25         28.8936   9.7603  -5.5292 H              1 RES1               0.0000
     26 H26         27.5740   8.9690  -6.3881 H              1 RES1               0.0000
     27 H27         23.5761  12.4644  -1.9157 H              1 RES1               0.0000
     28 H28         25.7958  10.0748   0.8307 H              1 RES1               0.0000
     29 H29         24.0818  11.7930   0.4017 H              1 RES1               0.0000
@<TRIPOS>BOND
    1    1    2 1     
    2    1    3 1     
    3    1    4 1     
    4    1    5 1     
    5    2    6 ar    
    6    2    7 ar    
    7    3    8 1     
    8    3    9 2     
    9    4   10 1     
   10    4   11 2     
   11    5   12 1     
   12    5   18 1     
   13    5   19 1     
   14    6   13 ar    
   15    6   20 1     
   16    7   14 ar    
   17    7   21 1     
   18    8   15 1     
   19    8   22 1     
   20   10   15 1     
   21   10   23 1     
   22   12   24 1     
   23   12   25 1     
   24   12   26 1     
   25   13   16 ar    
   26   13   27 1     
   27   14   16 ar    
   28   14   28 1     
   29   15   17 2     
   30   16   29 1     
@<TRIPOS>SUBSTRUCTURE
      1 RES1           1
@<TRIPOS>SET
DONOR_HYDROGENS      STATIC     ATOMS    <user>   **** ""
2 22 23
ATOM$RED        STATIC     ATOMS    COLORGROUP SYSTEM
2 22 23
@<TRIPOS>COMMENT
> <Gold.Version>
2022.3.0

> <Gold.Id.Protein>
unknown|3oog_clean|pdb

> <Gold.Protein.RotatedTorsions>
[ 2749 2742 2740 2737 ] final  102.99 input   59.98 | X-H torsion
[ 1733 1732 1731 1729 ] final   -0.24 input   60.02 | X-H torsion
[ 2432 2423 2422 2420 ] final  137.76 input   60.03 | X-H torsion
[ 4996 4987 4986 4984 ] final   67.59 input   60.02 | X-H torsion

> <Gold.Protein.ActiveResidues>
 LEU49   GLY50   THR51   ARG56   VAL57   MET58   LEU59   HIS68   TYR69   ALA70  
 MET71   LYS72   LEU74   GLU91   LEU95   VAL104  LYS105  LEU106  MET118  VAL119 
 MET120  GLU121  TYR122  VAL123  PRO124  GLY125  GLY126  GLU127  TYR164  GLU170 
 ASN171  LEU172  LEU173  ILE174  ASP175  GLN181  VAL182  THR183  ASP184  PHE185 
 GLY186  THR324  PHE327  TYR330 

> <Gold.Protein.RotatedAtoms>
   33.7300   11.8978  -10.3437 H   0  0  0  0  0  0  0  0  0  0  0  0  # atno 1733 bound_to 1732
   26.5858    1.8177    2.2635 H   0  0  0  0  0  0  0  0  0  0  0  0  # atno 2432 bound_to 2423
   27.6058    6.9536   -0.3363 H   0  0  0  0  0  0  0  0  0  0  0  0  # atno 2749 bound_to 2742
   23.2472   10.4193   -8.6062 H   0  0  0  0  0  0  0  0  0  0  0  0  # atno 4996 bound_to 4987
   28.0632    5.3918   -0.3088 LP  0  0  0  0  0  0  0  0  0  0  0  0  # atno 5321 bound_to 2742
   28.6392    6.3939   -1.4623 LP  0  0  0  0  0  0  0  0  0  0  0  0  # atno 5322 bound_to 2742
   35.1943   11.4532  -10.8971 LP  0  0  0  0  0  0  0  0  0  0  0  0  # atno 5347 bound_to 1732
   34.7584   13.0269  -10.9055 LP  0  0  0  0  0  0  0  0  0  0  0  0  # atno 5348 bound_to 1732

> <Gold.Score>
     Fitness  S(hb_ext) S(vdw_ext)  S(hb_int)    S(int)      intcor
     33.73       0.97      24.42       0.00      -0.82      -0.76

> <Gold.Goldscore.Fitness>
33.7251

> <Gold.Goldscore.Internal.Vdw>
-0.9498

> <Gold.Goldscore.Internal.Torsion>
-0.6325

> <Gold.Goldscore.External.Vdw>
24.4210

> <Gold.Goldscore.Internal.HBond>
0.0000

> <Gold.Goldscore.External.HBond>
0.9699

> <Gold.Goldscore.Internal.Correction>
-0.7585

> <Gold.Goldscore.Hbonds>
donor molecule, donor type, donor heavy atom, donor atom, acceptor molecule, acceptor atom, score
      L1  H    10    23       P1  2527  0.48

> <Gold.Goldscore.Internal.Vdw.Weighted>
-0.9498

> <Gold.Goldscore.Internal.Torsion.Weighted>
-0.6325

> <Gold.Goldscore.External.Vdw.Weighted>
33.5789

> <Gold.Goldscore.Internal.HBond.Weighted>
0.0000

> <Gold.Goldscore.External.HBond.Weighted>
0.9699

> <Gold.Goldscore.Internal.Correction.Weighted>
-0.7585

> <Gold.Rescore>
     Score     S(PLP)   S(hbond)     S(cho)   S(metal)  DE(clash)   DE(tors)     intcor
     31.29     -30.21       0.98       0.00       0.00       0.46       0.69       ----

> <Gold.PLP.Fitness>
31.2929

> <Gold.PLP.PLP>
-30.2055

> <Gold.PLP.part.hbond>
-2.8927

> <Gold.PLP.part.metal>
0.0000

> <Gold.PLP.part.buried>
-1.6116

> <Gold.PLP.part.nonpolar>
-27.0201

> <Gold.PLP.part.repulsive>
0.8566

> <Gold.PLP.ligand.clash>
0.4555

> <Gold.PLP.ligand.torsion>
0.6911

> <Gold.PLP.Chemscore.Hbond>
0.9750

> <Gold.PLP.Chemscore.CHOScore>
0.0000

> <Gold.PLP.Chemscore.Metal>
0.0000

> <Gold.Chemscore.Hbonds>
donor molecule, donor type, donor heavy atom, donor atom, acceptor molecule, acceptor atom, score
      L1  H     8    22       P1  2742  0.02
      L1  H    10    23       P1  2527  0.91

> <Gold.PLP.Chemscore.Internal.Correction>
   9.000000E+99

#       Name:                CT1002167954
#       Creating user name   hitesit
#       Creation time:       Sun Apr 16 22:50:12 2023


#       File generated by GOLD software.
#

@<TRIPOS>MOLECULE
CT1002167954|ligand_prepared|mol2|1|dock5
    29    30     1
SMALL
NO_CHARGES


@<TRIPOS>ATOM
      1 C1          25.7129   9.0963  -2.2013 C.3            1 RES1               0.0000
      2 C2          27.0998   9.4849  -1.6496 C.ar           1 RES1               0.0000
      3 C3          24.9712   8.4152  -1.0549 C.2            1 RES1               0.0000
      4 C4          25.0655  10.3915  -2.6787 C.2            1 RES1               0.0000
      5 C5          25.7683   8.1199  -3.3993 C.3            1 RES1               0.0000
      6 C6          27.2603   9.8206  -0.3086 C.ar           1 RES1               0.0000
      7 C7          28.2264   9.5096  -2.4673 C.ar           1 RES1               0.0000
      8 N8          23.9737   9.1157  -0.4432 N.am           1 RES1               0.0000
      9 O9          25.2832   7.2959  -0.6676 O.2            1 RES1               0.0000
     10 N10         23.9480  10.8319  -2.0192 N.am           1 RES1               0.0000
     11 O11         25.5227  11.0434  -3.6095 O.2            1 RES1               0.0000
     12 C12         24.4188   7.5233  -3.7669 C.3            1 RES1               0.0000
     13 C13         28.5026  10.1656   0.1974 C.ar           1 RES1               0.0000
     14 C14         29.4678   9.8551  -1.9593 C.ar           1 RES1               0.0000
     15 C15         23.3907  10.2688  -0.9036 C.2            1 RES1               0.0000
     16 C16         29.6071  10.1827  -0.6273 C.ar           1 RES1               0.0000
     17 O17         22.4173  10.7542  -0.3343 O.2            1 RES1               0.0000
     18 H18         26.1680   8.6528  -4.2709 H              1 RES1               0.0000
     19 H19         26.4611   7.3042  -3.1584 H              1 RES1               0.0000
     20 H20         26.4021   9.8151   0.3551 H              1 RES1               0.0000
     21 H21         28.1404   9.2566  -3.5186 H              1 RES1               0.0000
     22 H22         23.6294   8.7481   0.4381 H              1 RES1               0.0000
     23 H23         23.4890  11.6556  -2.3948 H              1 RES1               0.0000
     24 H24         24.5141   6.8460  -4.6130 H              1 RES1               0.0000
     25 H25         24.0033   6.9647  -2.9307 H              1 RES1               0.0000
     26 H26         23.7120   8.3053  -4.0367 H              1 RES1               0.0000
     27 H27         28.6066  10.4239   1.2461 H              1 RES1               0.0000
     28 H28         30.3343   9.8679  -2.6122 H              1 RES1               0.0000
     29 H29         30.5803  10.4526  -0.2307 H              1 RES1               0.0000
@<TRIPOS>BOND
    1    1    2 1     
    2    1    3 1     
    3    1    4 1     
    4    1    5 1     
    5    2    6 ar    
    6    2    7 ar    
    7    3    8 1     
    8    3    9 2     
    9    4   10 1     
   10    4   11 2     
   11    5   12 1     
   12    5   18 1     
   13    5   19 1     
   14    6   13 ar    
   15    6   20 1     
   16    7   14 ar    
   17    7   21 1     
   18    8   15 1     
   19    8   22 1     
   20   10   15 1     
   21   10   23 1     
   22   12   24 1     
   23   12   25 1     
   24   12   26 1     
   25   13   16 ar    
   26   13   27 1     
   27   14   16 ar    
   28   14   28 1     
   29   15   17 2     
   30   16   29 1     
@<TRIPOS>SUBSTRUCTURE
      1 RES1           1
@<TRIPOS>SET
DONOR_HYDROGENS      STATIC     ATOMS    <user>   **** ""
2 22 23
ATOM$RED        STATIC     ATOMS    COLORGROUP SYSTEM
2 22 23
@<TRIPOS>COMMENT
> <Gold.Version>
2022.3.0

> <Gold.Id.Protein>
unknown|3oog_clean|pdb

> <Gold.Protein.RotatedTorsions>
[ 2749 2742 2740 2737 ] final  173.33 input   59.98 | X-H torsion
[ 1733 1732 1731 1729 ] final  107.24 input   60.02 | X-H torsion
[ 2432 2423 2422 2420 ] final    2.85 input   60.03 | X-H torsion
[ 4996 4987 4986 4984 ] final   84.19 input   60.02 | X-H torsion

> <Gold.Protein.ActiveResidues>
 LEU49   GLY50   THR51   ARG56   VAL57   MET58   LEU59   HIS68   TYR69   ALA70  
 MET71   LYS72   LEU74   GLU91   LEU95   VAL104  LYS105  LEU106  MET118  VAL119 
 MET120  GLU121  TYR122  VAL123  PRO124  GLY125  GLY126  GLU127  TYR164  GLU170 
 ASN171  LEU172  LEU173  ILE174  ASP175  GLN181  VAL182  THR183  ASP184  PHE185 
 GLY186  THR324  PHE327  TYR330 

> <Gold.Protein.RotatedAtoms>
   34.5703   13.0547  -10.8286 H   0  0  0  0  0  0  0  0  0  0  0  0  # atno 1733 bound_to 1732
   26.8263    3.2591    3.1895 H   0  0  0  0  0  0  0  0  0  0  0  0  # atno 2432 bound_to 2423
   28.2466    7.0268   -1.2012 H   0  0  0  0  0  0  0  0  0  0  0  0  # atno 2749 bound_to 2742
   23.0230   10.4501   -8.4585 H   0  0  0  0  0  0  0  0  0  0  0  0  # atno 4996 bound_to 4987
   27.5238    6.2665    0.0432 LP  0  0  0  0  0  0  0  0  0  0  0  0  # atno 5321 bound_to 2742
   28.5334    5.4455   -0.9435 LP  0  0  0  0  0  0  0  0  0  0  0  0  # atno 5322 bound_to 2742
   33.7977   11.7044  -10.3511 LP  0  0  0  0  0  0  0  0  0  0  0  0  # atno 5347 bound_to 1732
   35.3088   11.6108  -10.9632 LP  0  0  0  0  0  0  0  0  0  0  0  0  # atno 5348 bound_to 1732

> <Gold.Score>
     Fitness  S(hb_ext) S(vdw_ext)  S(hb_int)    S(int)      intcor
     31.41       2.63      21.30       0.00      -0.51      -0.76

> <Gold.Goldscore.Fitness>
31.4061

> <Gold.Goldscore.Internal.Vdw>
-0.6951

> <Gold.Goldscore.Internal.Torsion>
-0.5762

> <Gold.Goldscore.External.Vdw>
21.2998

> <Gold.Goldscore.Internal.HBond>
0.0000

> <Gold.Goldscore.External.HBond>
2.6316

> <Gold.Goldscore.Internal.Correction>
-0.7585

> <Gold.Goldscore.Hbonds>
donor molecule, donor type, donor heavy atom, donor atom, acceptor molecule, acceptor atom, score
      L1  H     8    22       P1  2756  0.44

> <Gold.Goldscore.Internal.Vdw.Weighted>
-0.6951

> <Gold.Goldscore.Internal.Torsion.Weighted>
-0.5762

> <Gold.Goldscore.External.Vdw.Weighted>
29.2873

> <Gold.Goldscore.Internal.HBond.Weighted>
0.0000

> <Gold.Goldscore.External.HBond.Weighted>
2.6316

> <Gold.Goldscore.Internal.Correction.Weighted>
-0.7585

> <Gold.Rescore>
     Score     S(PLP)   S(hbond)     S(cho)   S(metal)  DE(clash)   DE(tors)     intcor
     25.56     -24.91       0.95       0.00       0.00       0.00       1.10       ----

> <Gold.PLP.Fitness>
25.5579

> <Gold.PLP.PLP>
-24.9079

> <Gold.PLP.part.hbond>
-1.5370

> <Gold.PLP.part.metal>
0.0000

> <Gold.PLP.part.buried>
-2.4756

> <Gold.PLP.part.nonpolar>
-24.3412

> <Gold.PLP.part.repulsive>
2.9653

> <Gold.PLP.ligand.clash>
0.0000

> <Gold.PLP.ligand.torsion>
1.1000

> <Gold.PLP.Chemscore.Hbond>
0.9500

> <Gold.PLP.Chemscore.CHOScore>
0.0000

> <Gold.PLP.Chemscore.Metal>
0.0000

> <Gold.Chemscore.Hbonds>
donor molecule, donor type, donor heavy atom, donor atom, acceptor molecule, acceptor atom, score
      L1  H     8    22       P1  2756  1.00

> <Gold.PLP.Chemscore.Internal.Correction>
   9.000000E+99

#       Name:                CT1002167954
#       Creating user name   hitesit
#       Creation time:       Sun Apr 16 22:50:10 2023


#       File generated by GOLD software.
#

@<TRIPOS>MOLECULE
CT1002167954|ligand_prepared|mol2|1|dock3
    29    30     1
SMALL
NO_CHARGES


@<TRIPOS>ATOM
      1 C1          25.8033   9.7412  -2.8148 C.3            1 RES1               0.0000
      2 C2          24.8709  10.8005  -2.1925 C.ar           1 RES1               0.0000
      3 C3          25.5846   9.8110  -4.3233 C.2            1 RES1               0.0000
      4 C4          27.2167  10.1049  -2.3736 C.2            1 RES1               0.0000
      5 C5          25.5119   8.2977  -2.3425 C.3            1 RES1               0.0000
      6 C6          24.5475  11.9589  -2.8928 C.ar           1 RES1               0.0000
      7 C7          24.3254  10.6325  -0.9226 C.ar           1 RES1               0.0000
      8 N8          26.5643  10.3861  -5.0778 N.am           1 RES1               0.0000
      9 O9          24.5509   9.4035  -4.8386 O.2            1 RES1               0.0000
     10 N10         28.1088  10.4978  -3.3366 N.am           1 RES1               0.0000
     11 O11         27.5610  10.0707  -1.1986 O.2            1 RES1               0.0000
     12 C12         26.2415   7.2313  -3.1443 C.3            1 RES1               0.0000
     13 C13         23.7067  12.9133  -2.3446 C.ar           1 RES1               0.0000
     14 C14         23.4850  11.5884  -0.3762 C.ar           1 RES1               0.0000
     15 C15         27.8379  10.6844  -4.6647 C.2            1 RES1               0.0000
     16 C16         23.1746  12.7286  -1.0863 C.ar           1 RES1               0.0000
     17 O17         28.6795  11.0925  -5.4600 O.2            1 RES1               0.0000
     18 H18         25.8007   8.2060  -1.2882 H              1 RES1               0.0000
     19 H19         24.4325   8.1146  -2.4117 H              1 RES1               0.0000
     20 H20         24.9586  12.1227  -3.8833 H              1 RES1               0.0000
     21 H21         24.5565   9.7438  -0.3452 H              1 RES1               0.0000
     22 H22         26.3281  10.6157  -6.0379 H              1 RES1               0.0000
     23 H23         29.0634  10.6667  -3.0355 H              1 RES1               0.0000
     24 H24         26.0020   6.2375  -2.7718 H              1 RES1               0.0000
     25 H25         25.9588   7.2770  -4.1939 H              1 RES1               0.0000
     26 H26         27.3188   7.3679  -3.0771 H              1 RES1               0.0000
     27 H27         23.4667  13.8096  -2.9070 H              1 RES1               0.0000
     28 H28         23.0690  11.4392   0.6148 H              1 RES1               0.0000
     29 H29         22.5158  13.4763  -0.6573 H              1 RES1               0.0000
@<TRIPOS>BOND
    1    1    2 1     
    2    1    3 1     
    3    1    4 1     
    4    1    5 1     
    5    2    6 ar    
    6    2    7 ar    
    7    3    8 1     
    8    3    9 2     
    9    4   10 1     
   10    4   11 2     
   11    5   12 1     
   12    5   18 1     
   13    5   19 1     
   14    6   13 ar    
   15    6   20 1     
   16    7   14 ar    
   17    7   21 1     
   18    8   15 1     
   19    8   22 1     
   20   10   15 1     
   21   10   23 1     
   22   12   24 1     
   23   12   25 1     
   24   12   26 1     
   25   13   16 ar    
   26   13   27 1     
   27   14   16 ar    
   28   14   28 1     
   29   15   17 2     
   30   16   29 1     
@<TRIPOS>SUBSTRUCTURE
      1 RES1           1
@<TRIPOS>SET
DONOR_HYDROGENS      STATIC     ATOMS    <user>   **** ""
2 22 23
ATOM$RED        STATIC     ATOMS    COLORGROUP SYSTEM
2 22 23
@<TRIPOS>COMMENT
> <Gold.Version>
2022.3.0

> <Gold.Id.Protein>
unknown|3oog_clean|pdb

> <Gold.Protein.RotatedTorsions>
[ 2749 2742 2740 2737 ] final -158.94 input   59.98 | X-H torsion
[ 1733 1732 1731 1729 ] final -113.16 input   60.02 | X-H torsion
[ 2432 2423 2422 2420 ] final  107.32 input   60.03 | X-H torsion
[ 4996 4987 4986 4984 ] final   52.27 input   60.02 | X-H torsion

> <Gold.Protein.ActiveResidues>
 LEU49   GLY50   THR51   ARG56   VAL57   MET58   LEU59   HIS68   TYR69   ALA70  
 MET71   LYS72   LEU74   GLU91   LEU95   VAL104  LYS105  LEU106  MET118  VAL119 
 MET120  GLU121  TYR122  VAL123  PRO124  GLY125  GLY126  GLU127  TYR164  GLU170 
 ASN171  LEU172  LEU173  ILE174  ASP175  GLN181  VAL182  THR183  ASP184  PHE185 
 GLY186  THR324  PHE327  TYR330 

> <Gold.Protein.RotatedAtoms>
   35.1128   11.3833  -10.8526 H   0  0  0  0  0  0  0  0  0  0  0  0  # atno 1733 bound_to 1732
   27.0124    2.0163    2.4060 H   0  0  0  0  0  0  0  0  0  0  0  0  # atno 2432 bound_to 2423
   28.4995    6.7183   -1.4070 H   0  0  0  0  0  0  0  0  0  0  0  0  # atno 2749 bound_to 2742
   23.4079   10.3773   -8.7923 H   0  0  0  0  0  0  0  0  0  0  0  0  # atno 4996 bound_to 4987
   27.5129    6.6904   -0.1128 LP  0  0  0  0  0  0  0  0  0  0  0  0  # atno 5321 bound_to 2742
   28.2897    5.3322   -0.5802 LP  0  0  0  0  0  0  0  0  0  0  0  0  # atno 5322 bound_to 2742
   34.8616   12.9886  -10.9434 LP  0  0  0  0  0  0  0  0  0  0  0  0  # atno 5347 bound_to 1732
   33.6986   12.0098  -10.3467 LP  0  0  0  0  0  0  0  0  0  0  0  0  # atno 5348 bound_to 1732

> <Gold.Score>
     Fitness  S(hb_ext) S(vdw_ext)  S(hb_int)    S(int)      intcor
     31.24       0.03      23.12       0.00      -0.58      -0.76

> <Gold.Goldscore.Fitness>
31.2438

> <Gold.Goldscore.Internal.Vdw>
-0.7786

> <Gold.Goldscore.Internal.Torsion>
-0.5627

> <Gold.Goldscore.External.Vdw>
23.1224

> <Gold.Goldscore.Internal.HBond>
0.0000

> <Gold.Goldscore.External.HBond>
0.0332

> <Gold.Goldscore.Internal.Correction>
-0.7585

> <Gold.Goldscore.Hbonds>
donor molecule, donor type, donor heavy atom, donor atom, acceptor molecule, acceptor atom, score
      L1  H     8    22       P1   503  0.02

> <Gold.Goldscore.Internal.Vdw.Weighted>
-0.7786

> <Gold.Goldscore.Internal.Torsion.Weighted>
-0.5627

> <Gold.Goldscore.External.Vdw.Weighted>
31.7934

> <Gold.Goldscore.Internal.HBond.Weighted>
0.0000

> <Gold.Goldscore.External.HBond.Weighted>
0.0332

> <Gold.Goldscore.Internal.Correction.Weighted>
-0.7585

> <Gold.Rescore>
     Score     S(PLP)   S(hbond)     S(cho)   S(metal)  DE(clash)   DE(tors)     intcor
     29.11     -31.28       0.00       0.00       0.00       1.82       0.18       ----

> <Gold.PLP.Fitness>
29.1052

> <Gold.PLP.PLP>
-31.2763

> <Gold.PLP.part.hbond>
0.0000

> <Gold.PLP.part.metal>
0.0000

> <Gold.PLP.part.buried>
-3.9531

> <Gold.PLP.part.nonpolar>
-27.4002

> <Gold.PLP.part.repulsive>
0.2687

> <Gold.PLP.ligand.clash>
1.8196

> <Gold.PLP.ligand.torsion>
0.1757

> <Gold.PLP.Chemscore.Hbond>
0.0000

> <Gold.PLP.Chemscore.CHOScore>
0.0000

> <Gold.PLP.Chemscore.Metal>
0.0000

> <Gold.Chemscore.Hbonds>
donor molecule, donor type, donor heavy atom, donor atom, acceptor molecule, acceptor atom, score
      L1  H     8    22       P1   503  0.31

> <Gold.PLP.Chemscore.Internal.Correction>
   9.000000E+99

#       Name:                CT1002167954
#       Creating user name   hitesit
#       Creation time:       Sun Apr 16 22:50:17 2023


#       File generated by GOLD software.
#

@<TRIPOS>MOLECULE
CT1002167954|ligand_prepared|mol2|1|dock10
    29    30     1
SMALL
NO_CHARGES


@<TRIPOS>ATOM
      1 C1          26.0565   9.4582  -2.2975 C.3            1 RES1               0.0000
      2 C2          27.3652   9.6260  -1.4988 C.ar           1 RES1               0.0000
      3 C3          24.9420   9.3049  -1.2666 C.2            1 RES1               0.0000
      4 C4          25.9283  10.7005  -3.1722 C.2            1 RES1               0.0000
      5 C5          26.0437   8.2191  -3.2227 C.3            1 RES1               0.0000
      6 C6          28.5989   9.5705  -2.1402 C.ar           1 RES1               0.0000
      7 C7          27.3546   9.8393  -0.1229 C.ar           1 RES1               0.0000
      8 N8          24.1023  10.3635  -1.0818 N.am           1 RES1               0.0000
      9 O9          24.8261   8.2853  -0.5978 O.2            1 RES1               0.0000
     10 N10         24.8896  11.5582  -2.9210 N.am           1 RES1               0.0000
     11 O11         26.7270  10.9528  -4.0658 O.2            1 RES1               0.0000
     12 C12         24.7067   7.9775  -3.9055 C.3            1 RES1               0.0000
     13 C13         29.7793   9.7255  -1.4324 C.ar           1 RES1               0.0000
     14 C14         28.5363   9.9938   0.5830 C.ar           1 RES1               0.0000
     15 C15         23.9886  11.4618  -1.8957 C.2            1 RES1               0.0000
     16 C16         29.7488   9.9377  -0.0706 C.ar           1 RES1               0.0000
     17 O17         23.1152  12.3026  -1.7020 O.2            1 RES1               0.0000
     18 H18         26.8155   8.3449  -3.9921 H              1 RES1               0.0000
     19 H19         26.3026   7.3331  -2.6299 H              1 RES1               0.0000
     20 H20         28.6428   9.4019  -3.2111 H              1 RES1               0.0000
     21 H21         26.4124   9.8861   0.4124 H              1 RES1               0.0000
     22 H22         23.5034  10.3359  -0.2627 H              1 RES1               0.0000
     23 H23         24.7775  12.3410  -3.5574 H              1 RES1               0.0000
     24 H24         24.7525   7.0967  -4.5424 H              1 RES1               0.0000
     25 H25         23.9202   7.8231  -3.1697 H              1 RES1               0.0000
     26 H26         24.4300   8.8289  -4.5239 H              1 RES1               0.0000
     27 H27         30.7311   9.6791  -1.9513 H              1 RES1               0.0000
     28 H28         28.5075  10.1600   1.6549 H              1 RES1               0.0000
     29 H29         30.6736  10.0594   0.4836 H              1 RES1               0.0000
@<TRIPOS>BOND
    1    1    2 1     
    2    1    3 1     
    3    1    4 1     
    4    1    5 1     
    5    2    6 ar    
    6    2    7 ar    
    7    3    8 1     
    8    3    9 2     
    9    4   10 1     
   10    4   11 2     
   11    5   12 1     
   12    5   18 1     
   13    5   19 1     
   14    6   13 ar    
   15    6   20 1     
   16    7   14 ar    
   17    7   21 1     
   18    8   15 1     
   19    8   22 1     
   20   10   15 1     
   21   10   23 1     
   22   12   24 1     
   23   12   25 1     
   24   12   26 1     
   25   13   16 ar    
   26   13   27 1     
   27   14   16 ar    
   28   14   28 1     
   29   15   17 2     
   30   16   29 1     
@<TRIPOS>SUBSTRUCTURE
      1 RES1           1
@<TRIPOS>SET
DONOR_HYDROGENS      STATIC     ATOMS    <user>   **** ""
2 22 23
ATOM$RED        STATIC     ATOMS    COLORGROUP SYSTEM
2 22 23
@<TRIPOS>COMMENT
> <Gold.Version>
2022.3.0

> <Gold.Id.Protein>
unknown|3oog_clean|pdb

> <Gold.Protein.RotatedTorsions>
[ 2749 2742 2740 2737 ] final  100.97 input   59.98 | X-H torsion
[ 1733 1732 1731 1729 ] final  123.64 input   60.02 | X-H torsion
[ 2432 2423 2422 2420 ] final   -0.12 input   60.03 | X-H torsion
[ 4996 4987 4986 4984 ] final  167.85 input   60.02 | X-H torsion

> <Gold.Protein.ActiveResidues>
 LEU49   GLY50   THR51   ARG56   VAL57   MET58   LEU59   HIS68   TYR69   ALA70  
 MET71   LYS72   LEU74   GLU91   LEU95   VAL104  LYS105  LEU106  MET118  VAL119 
 MET120  GLU121  TYR122  VAL123  PRO124  GLY125  GLY126  GLU127  TYR164  GLU170 
 ASN171  LEU172  LEU173  ILE174  ASP175  GLN181  VAL182  THR183  ASP184  PHE185 
 GLY186  THR324  PHE327  TYR330 

> <Gold.Protein.RotatedAtoms>
   34.8145   13.0017  -10.9230 H   0  0  0  0  0  0  0  0  0  0  0  0  # atno 1733 bound_to 1732
   26.7840    3.2797    3.2010 H   0  0  0  0  0  0  0  0  0  0  0  0  # atno 2432 bound_to 2423
   27.5945    6.9329   -0.3132 H   0  0  0  0  0  0  0  0  0  0  0  0  # atno 2749 bound_to 2742
   21.8248   10.3353   -8.7893 H   0  0  0  0  0  0  0  0  0  0  0  0  # atno 4996 bound_to 4987
   28.0843    5.3809   -0.3319 LP  0  0  0  0  0  0  0  0  0  0  0  0  # atno 5321 bound_to 2742
   28.6295    6.4257   -1.4624 LP  0  0  0  0  0  0  0  0  0  0  0  0  # atno 5322 bound_to 2742
   33.7082   11.9579  -10.3444 LP  0  0  0  0  0  0  0  0  0  0  0  0  # atno 5347 bound_to 1732
   35.1524   11.4106  -10.8748 LP  0  0  0  0  0  0  0  0  0  0  0  0  # atno 5348 bound_to 1732

> <Gold.Score>
     Fitness  S(hb_ext) S(vdw_ext)  S(hb_int)    S(int)      intcor
     31.16       0.27      23.58       0.00      -1.54      -0.76

> <Gold.Goldscore.Fitness>
31.1614

> <Gold.Goldscore.Internal.Vdw>
-1.8760

> <Gold.Goldscore.Internal.Torsion>
-0.4218

> <Gold.Goldscore.External.Vdw>
23.5826

> <Gold.Goldscore.Internal.HBond>
0.0000

> <Gold.Goldscore.External.HBond>
0.2747

> <Gold.Goldscore.Internal.Correction>
-0.7585

> <Gold.Goldscore.Hbonds>
donor molecule, donor type, donor heavy atom, donor atom, acceptor molecule, acceptor atom, score
      P1  H  2742  2749       L1     9  0.12
      L1  H    10    23       P1   522  0.02

> <Gold.Goldscore.Internal.Vdw.Weighted>
-1.8760

> <Gold.Goldscore.Internal.Torsion.Weighted>
-0.4218

> <Gold.Goldscore.External.Vdw.Weighted>
32.4260

> <Gold.Goldscore.Internal.HBond.Weighted>
0.0000

> <Gold.Goldscore.External.HBond.Weighted>
0.2747

> <Gold.Goldscore.Internal.Correction.Weighted>
-0.7585

> <Gold.Rescore>
     Score     S(PLP)   S(hbond)     S(cho)   S(metal)  DE(clash)   DE(tors)     intcor
     29.69     -31.45       0.00       0.00       0.00       1.35       0.20       ----

> <Gold.PLP.Fitness>
29.6940

> <Gold.PLP.PLP>
-31.4455

> <Gold.PLP.part.hbond>
0.0000

> <Gold.PLP.part.metal>
0.0000

> <Gold.PLP.part.buried>
-4.8520

> <Gold.PLP.part.nonpolar>
-26.9789

> <Gold.PLP.part.repulsive>
0.7649

> <Gold.PLP.ligand.clash>
1.3460

> <Gold.PLP.ligand.torsion>
0.2028

> <Gold.PLP.Chemscore.Hbond>
0.0000

> <Gold.PLP.Chemscore.CHOScore>
0.0000

> <Gold.PLP.Chemscore.Metal>
0.0000

> <Gold.PLP.Chemscore.Internal.Correction>
   9.000000E+99

#       Name:                CT1002167954
#       Creating user name   hitesit
#       Creation time:       Sun Apr 16 22:50:13 2023


#       File generated by GOLD software.
#

@<TRIPOS>MOLECULE
CT1002167954|ligand_prepared|mol2|1|dock6
    29    30     1
SMALL
NO_CHARGES


@<TRIPOS>ATOM
      1 C1          25.5145   9.3071  -3.5336 C.3            1 RES1               0.0000
      2 C2          24.9795  10.3308  -2.5116 C.ar           1 RES1               0.0000
      3 C3          24.3105   8.4891  -3.9911 C.2            1 RES1               0.0000
      4 C4          26.1743  10.1175  -4.6439 C.2            1 RES1               0.0000
      5 C5          26.5734   8.3405  -2.9539 C.3            1 RES1               0.0000
      6 C6          25.2361  10.1758  -1.1526 C.ar           1 RES1               0.0000
      7 C7          24.2315  11.4347  -2.9122 C.ar           1 RES1               0.0000
      8 N8          23.8231   8.7277  -5.2423 N.am           1 RES1               0.0000
      9 O9          23.7723   7.6752  -3.2507 O.2            1 RES1               0.0000
     10 N10         25.6091  10.0763  -5.8915 N.am           1 RES1               0.0000
     11 O11         27.1687  10.8045  -4.4456 O.2            1 RES1               0.0000
     12 C12         27.1905   7.4142  -3.9900 C.3            1 RES1               0.0000
     13 C13         24.7646  11.0928  -0.2278 C.ar           1 RES1               0.0000
     14 C14         23.7607  12.3504  -1.9857 C.ar           1 RES1               0.0000
     15 C15         24.4457   9.4426  -6.2338 C.2            1 RES1               0.0000
     16 C16         24.0271  12.1807  -0.6437 C.ar           1 RES1               0.0000
     17 O17         23.9717   9.4965  -7.3650 O.2            1 RES1               0.0000
     18 H18         27.3720   8.9302  -2.4872 H              1 RES1               0.0000
     19 H19         26.1047   7.7318  -2.1708 H              1 RES1               0.0000
     20 H20         25.8127   9.3245  -0.8064 H              1 RES1               0.0000
     21 H21         24.0088  11.5879  -3.9627 H              1 RES1               0.0000
     22 H22         22.9115   8.3386  -5.4610 H              1 RES1               0.0000
     23 H23         26.1012  10.5631  -6.6339 H              1 RES1               0.0000
     24 H24         27.9263   6.7574  -3.5306 H              1 RES1               0.0000
     25 H25         26.4276   6.7945  -4.4566 H              1 RES1               0.0000
     26 H26         27.6874   7.9859  -4.7711 H              1 RES1               0.0000
     27 H27         24.9758  10.9540   0.8273 H              1 RES1               0.0000
     28 H28         23.1801  13.2048  -2.3174 H              1 RES1               0.0000
     29 H29         23.6581  12.8991   0.0810 H              1 RES1               0.0000
@<TRIPOS>BOND
    1    1    2 1     
    2    1    3 1     
    3    1    4 1     
    4    1    5 1     
    5    2    6 ar    
    6    2    7 ar    
    7    3    8 1     
    8    3    9 2     
    9    4   10 1     
   10    4   11 2     
   11    5   12 1     
   12    5   18 1     
   13    5   19 1     
   14    6   13 ar    
   15    6   20 1     
   16    7   14 ar    
   17    7   21 1     
   18    8   15 1     
   19    8   22 1     
   20   10   15 1     
   21   10   23 1     
   22   12   24 1     
   23   12   25 1     
   24   12   26 1     
   25   13   16 ar    
   26   13   27 1     
   27   14   16 ar    
   28   14   28 1     
   29   15   17 2     
   30   16   29 1     
@<TRIPOS>SUBSTRUCTURE
      1 RES1           1
@<TRIPOS>SET
DONOR_HYDROGENS      STATIC     ATOMS    <user>   **** ""
2 22 23
ATOM$RED        STATIC     ATOMS    COLORGROUP SYSTEM
2 22 23
@<TRIPOS>COMMENT
> <Gold.Version>
2022.3.0

> <Gold.Id.Protein>
unknown|3oog_clean|pdb

> <Gold.Protein.RotatedTorsions>
[ 2749 2742 2740 2737 ] final -114.16 input   59.98 | X-H torsion
[ 1733 1732 1731 1729 ] final  -32.28 input   60.02 | X-H torsion
[ 2432 2423 2422 2420 ] final -155.35 input   60.03 | X-H torsion
[ 4996 4987 4986 4984 ] final   75.47 input   60.02 | X-H torsion

> <Gold.Protein.ActiveResidues>
 LEU49   GLY50   THR51   ARG56   VAL57   MET58   LEU59   HIS68   TYR69   ALA70  
 MET71   LYS72   LEU74   GLU91   LEU95   VAL104  LYS105  LEU106  MET118  VAL119 
 MET120  GLU121  TYR122  VAL123  PRO124  GLY125  GLY126  GLU127  TYR164  GLU170 
 ASN171  LEU172  LEU173  ILE174  ASP175  GLN181  VAL182  THR183  ASP184  PHE185 
 GLY186  THR324  PHE327  TYR330 

> <Gold.Protein.RotatedAtoms>
   33.9890   11.4538  -10.3975 H   0  0  0  0  0  0  0  0  0  0  0  0  # atno 1733 bound_to 1732
   25.6095    2.1167    2.4165 H   0  0  0  0  0  0  0  0  0  0  0  0  # atno 2432 bound_to 2423
   28.6981    6.0332   -1.3909 H   0  0  0  0  0  0  0  0  0  0  0  0  # atno 2749 bound_to 2742
   23.1463   10.4360   -8.5283 H   0  0  0  0  0  0  0  0  0  0  0  0  # atno 4996 bound_to 4987
   27.7693    7.1268   -0.6225 LP  0  0  0  0  0  0  0  0  0  0  0  0  # atno 5321 bound_to 2742
   27.8333    5.5855   -0.0868 LP  0  0  0  0  0  0  0  0  0  0  0  0  # atno 5322 bound_to 2742
   35.4145   11.9021  -11.0417 LP  0  0  0  0  0  0  0  0  0  0  0  0  # atno 5347 bound_to 1732
   34.2773   13.0252  -10.7068 LP  0  0  0  0  0  0  0  0  0  0  0  0  # atno 5348 bound_to 1732

> <Gold.Score>
     Fitness  S(hb_ext) S(vdw_ext)  S(hb_int)    S(int)      intcor
     30.90       1.78      21.76       0.00      -0.80      -0.76

> <Gold.Goldscore.Fitness>
30.8966

> <Gold.Goldscore.Internal.Vdw>
-1.1551

> <Gold.Goldscore.Internal.Torsion>
-0.4071

> <Gold.Goldscore.External.Vdw>
21.7605

> <Gold.Goldscore.Internal.HBond>
0.0000

> <Gold.Goldscore.External.HBond>
1.7795

> <Gold.Goldscore.Internal.Correction>
-0.7585

> <Gold.Goldscore.Hbonds>
donor molecule, donor type, donor heavy atom, donor atom, acceptor molecule, acceptor atom, score
      P1  H  4987  4996       L1    17  0.40
      L1  H    10    23       P1   503  0.49

> <Gold.Goldscore.Internal.Vdw.Weighted>
-1.1551

> <Gold.Goldscore.Internal.Torsion.Weighted>
-0.4071

> <Gold.Goldscore.External.Vdw.Weighted>
29.9207

> <Gold.Goldscore.Internal.HBond.Weighted>
0.0000

> <Gold.Goldscore.External.HBond.Weighted>
1.7795

> <Gold.Goldscore.Internal.Correction.Weighted>
-0.7585

> <Gold.Rescore>
     Score     S(PLP)   S(hbond)     S(cho)   S(metal)  DE(clash)   DE(tors)     intcor
     32.40     -27.31       1.86       0.00       0.00       0.00       0.25       ----

> <Gold.PLP.Fitness>
32.3958

> <Gold.PLP.PLP>
-27.3064

> <Gold.PLP.part.hbond>
-2.4371

> <Gold.PLP.part.metal>
0.0000

> <Gold.PLP.part.buried>
-0.9039

> <Gold.PLP.part.nonpolar>
-24.2105

> <Gold.PLP.part.repulsive>
0.8378

> <Gold.PLP.ligand.clash>
0.0000

> <Gold.PLP.ligand.torsion>
0.2472

> <Gold.PLP.Chemscore.Hbond>
1.8613

> <Gold.PLP.Chemscore.CHOScore>
0.0000

> <Gold.PLP.Chemscore.Metal>
0.0000

> <Gold.Chemscore.Hbonds>
donor molecule, donor type, donor heavy atom, donor atom, acceptor molecule, acceptor atom, score
      L1  H    10    23       P1   503  1.00
      P1  H  4987  4996       L1    17  1.00

> <Gold.PLP.Chemscore.Internal.Correction>
   9.000000E+99

