#       Name:                GA Fitting Points
#       Creating user name   hitesit
#       Creation time:       Sun Apr 16 22:50:03 2023


#       Fitting Points Used by GA Software.
#

@<TRIPOS>MOLECULE
GA Fitting Points
  5274    0    0
SMALL
NO_CHARGES


@<TRIPOS>ATOM
      1 ****        20.2500  10.2500   1.2500 Du        
      2 ****        20.2500  10.5000   1.0000 Du        
      3 ****        20.2500  10.5000   1.2500 Du        
      4 ****        20.2500  10.7500   1.0000 Du        
      5 ****        20.2500  10.7500   1.2500 Du        
      6 ****        20.2500  11.0000   1.0000 Du        
      7 ****        20.2500  11.0000   1.2500 Du        
      8 ****        20.5000   9.7500   2.0000 Du        
      9 ****        20.5000   9.7500   2.2500 Du        
     10 ****        20.5000  10.0000   1.7500 Du        
     11 ****        20.5000  10.0000   2.0000 Du        
     12 ****        20.5000  10.0000   2.2500 Du        
     13 ****        20.5000  10.2500   1.7500 Du        
     14 ****        20.5000  10.2500   2.0000 Du        
     15 ****        20.5000  10.2500   2.2500 Du        
     16 ****        20.5000  10.5000   0.7500 Du        
     17 ****        20.5000  10.5000   1.0000 Du        
     18 ****        20.5000  10.5000   1.2500 Du        
     19 ****        20.5000  10.5000   1.5000 Du        
     20 ****        20.5000  10.5000   1.7500 Du        
     21 ****        20.5000  10.5000   2.0000 Du        
     22 ****        20.5000  10.5000   2.2500 Du        
     23 ****        20.5000  10.7500   0.7500 Du        
     24 ****        20.5000  10.7500   1.0000 Du        
     25 ****        20.5000  10.7500   1.2500 Du        
     26 ****        20.5000  10.7500   1.5000 Du        
     27 ****        20.5000  10.7500   1.7500 Du        
     28 ****        20.5000  10.7500   2.0000 Du        
     29 ****        20.5000  10.7500   2.2500 Du        
     30 ****        20.5000  11.0000   0.7500 Du        
     31 ****        20.5000  11.0000   1.0000 Du        
     32 ****        20.5000  11.0000   1.2500 Du        
     33 ****        20.5000  11.0000   1.5000 Du        
     34 ****        20.5000  11.0000   1.7500 Du        
     35 ****        20.5000  11.0000   2.0000 Du        
     36 ****        20.5000  11.0000   2.2500 Du        
     37 ****        20.5000  11.2500   0.7500 Du        
     38 ****        20.5000  11.2500   1.0000 Du        
     39 ****        20.5000  11.2500   1.2500 Du        
     40 ****        20.5000  11.2500   1.5000 Du        
     41 ****        20.5000  11.2500   1.7500 Du        
     42 ****        20.5000  11.2500   2.0000 Du        
     43 ****        20.5000  11.2500   2.2500 Du        
     44 ****        20.5000  11.5000   0.7500 Du        
     45 ****        20.5000  11.5000   1.0000 Du        
     46 ****        20.5000  11.5000   1.2500 Du        
     47 ****        20.5000  11.5000   1.5000 Du        
     48 ****        20.5000  11.5000   1.7500 Du        
     49 ****        20.5000  11.5000   2.0000 Du        
     50 ****        20.5000  11.5000   2.2500 Du        
     51 ****        20.5000  11.7500   0.7500 Du        
     52 ****        20.5000  11.7500   1.0000 Du        
     53 ****        20.5000  11.7500   1.2500 Du        
     54 ****        20.5000  11.7500   1.5000 Du        
     55 ****        20.5000  11.7500   1.7500 Du        
     56 ****        20.5000  12.0000   0.7500 Du        
     57 ****        20.5000  12.0000   1.0000 Du        
     58 ****        20.5000  12.0000   1.2500 Du        
     59 ****        20.5000  12.2500   1.0000 Du        
     60 ****        20.7500  10.0000   1.7500 Du        
     61 ****        20.7500  10.0000   2.0000 Du        
     62 ****        20.7500  10.0000   2.2500 Du        
     63 ****        20.7500  10.2500   1.7500 Du        
     64 ****        20.7500  10.2500   2.0000 Du        
     65 ****        20.7500  10.2500   2.2500 Du        
     66 ****        20.7500  10.5000   0.7500 Du        
     67 ****        20.7500  10.5000   1.0000 Du        
     68 ****        20.7500  10.5000   1.2500 Du        
     69 ****        20.7500  10.5000   1.5000 Du        
     70 ****        20.7500  10.5000   1.7500 Du        
     71 ****        20.7500  10.5000   2.0000 Du        
     72 ****        20.7500  10.5000   2.2500 Du        
     73 ****        20.7500  10.7500   0.7500 Du        
     74 ****        20.7500  10.7500   1.0000 Du        
     75 ****        20.7500  10.7500   1.2500 Du        
     76 ****        20.7500  10.7500   1.5000 Du        
     77 ****        20.7500  10.7500   1.7500 Du        
     78 ****        20.7500  10.7500   2.0000 Du        
     79 ****        20.7500  10.7500   2.2500 Du        
     80 ****        20.7500  11.0000   0.5000 Du        
     81 ****        20.7500  11.0000   0.7500 Du        
     82 ****        20.7500  11.0000   1.0000 Du        
     83 ****        20.7500  11.0000   1.2500 Du        
     84 ****        20.7500  11.0000   1.5000 Du        
     85 ****        20.7500  11.0000   1.7500 Du        
     86 ****        20.7500  11.0000   2.0000 Du        
     87 ****        20.7500  11.0000   2.2500 Du        
     88 ****        20.7500  11.2500   0.5000 Du        
     89 ****        20.7500  11.2500   0.7500 Du        
     90 ****        20.7500  11.2500   1.0000 Du        
     91 ****        20.7500  11.2500   1.2500 Du        
     92 ****        20.7500  11.2500   1.5000 Du        
     93 ****        20.7500  11.2500   1.7500 Du        
     94 ****        20.7500  11.2500   2.0000 Du        
     95 ****        20.7500  11.2500   2.2500 Du        
     96 ****        20.7500  11.5000   0.5000 Du        
     97 ****        20.7500  11.5000   0.7500 Du        
     98 ****        20.7500  11.5000   1.0000 Du        
     99 ****        20.7500  11.5000   1.2500 Du        
    100 ****        20.7500  11.5000   1.5000 Du        
    101 ****        20.7500  11.5000   1.7500 Du        
    102 ****        20.7500  11.5000   2.0000 Du        
    103 ****        20.7500  11.5000   2.2500 Du        
    104 ****        20.7500  11.7500   0.5000 Du        
    105 ****        20.7500  11.7500   0.7500 Du        
    106 ****        20.7500  11.7500   1.0000 Du        
    107 ****        20.7500  11.7500   1.2500 Du        
    108 ****        20.7500  11.7500   1.5000 Du        
    109 ****        20.7500  11.7500   1.7500 Du        
    110 ****        20.7500  11.7500   2.0000 Du        
    111 ****        20.7500  11.7500   2.2500 Du        
    112 ****        20.7500  12.0000   0.5000 Du        
    113 ****        20.7500  12.0000   0.7500 Du        
    114 ****        20.7500  12.0000   1.0000 Du        
    115 ****        20.7500  12.0000   1.2500 Du        
    116 ****        20.7500  12.0000   1.5000 Du        
    117 ****        20.7500  12.0000   1.7500 Du        
    118 ****        20.7500  12.0000   2.0000 Du        
    119 ****        20.7500  12.0000   2.2500 Du        
    120 ****        20.7500  12.2500   0.5000 Du        
    121 ****        20.7500  12.2500   0.7500 Du        
    122 ****        20.7500  12.2500   1.0000 Du        
    123 ****        20.7500  12.2500   1.2500 Du        
    124 ****        20.7500  12.2500   1.5000 Du        
    125 ****        20.7500  12.2500   1.7500 Du        
    126 ****        20.7500  12.5000   0.5000 Du        
    127 ****        20.7500  12.5000   0.7500 Du        
    128 ****        20.7500  12.5000   1.0000 Du        
    129 ****        20.7500  12.5000   1.2500 Du        
    130 ****        20.7500  12.5000   1.5000 Du        
    131 ****        20.7500  12.5000   1.7500 Du        
    132 ****        20.7500  12.7500   0.5000 Du        
    133 ****        20.7500  12.7500   0.7500 Du        
    134 ****        20.7500  12.7500   1.0000 Du        
    135 ****        20.7500  12.7500   1.2500 Du        
    136 ****        20.7500  12.7500   1.5000 Du        
    137 ****        20.7500  13.0000   0.5000 Du        
    138 ****        20.7500  13.0000   0.7500 Du        
    139 ****        20.7500  13.0000   1.0000 Du        
    140 ****        21.0000   9.2500   3.2500 Du        
    141 ****        21.0000   9.5000   3.2500 Du        
    142 ****        21.0000   9.7500   2.5000 Du        
    143 ****        21.0000   9.7500   2.7500 Du        
    144 ****        21.0000   9.7500   3.0000 Du        
    145 ****        21.0000   9.7500   3.2500 Du        
    146 ****        21.0000  10.0000   2.0000 Du        
    147 ****        21.0000  10.0000   2.2500 Du        
    148 ****        21.0000  10.0000   2.5000 Du        
    149 ****        21.0000  10.0000   2.7500 Du        
    150 ****        21.0000  10.0000   3.0000 Du        
    151 ****        21.0000  10.0000   3.2500 Du        
    152 ****        21.0000  10.2500   1.7500 Du        
    153 ****        21.0000  10.2500   2.0000 Du        
    154 ****        21.0000  10.2500   2.2500 Du        
    155 ****        21.0000  10.2500   2.5000 Du        
    156 ****        21.0000  10.2500   2.7500 Du        
    157 ****        21.0000  10.2500   3.0000 Du        
    158 ****        21.0000  10.2500   3.2500 Du        
    159 ****        21.0000  10.5000   1.0000 Du        
    160 ****        21.0000  10.5000   1.2500 Du        
    161 ****        21.0000  10.5000   1.5000 Du        
    162 ****        21.0000  10.5000   1.7500 Du        
    163 ****        21.0000  10.5000   2.0000 Du        
    164 ****        21.0000  10.5000   2.2500 Du        
    165 ****        21.0000  10.5000   2.5000 Du        
    166 ****        21.0000  10.5000   2.7500 Du        
    167 ****        21.0000  10.5000   3.0000 Du        
    168 ****        21.0000  10.5000   3.2500 Du        
    169 ****        21.0000  10.7500   0.5000 Du        
    170 ****        21.0000  10.7500   0.7500 Du        
    171 ****        21.0000  10.7500   1.0000 Du        
    172 ****        21.0000  10.7500   1.2500 Du        
    173 ****        21.0000  10.7500   1.5000 Du        
    174 ****        21.0000  10.7500   1.7500 Du        
    175 ****        21.0000  10.7500   2.0000 Du        
    176 ****        21.0000  10.7500   2.2500 Du        
    177 ****        21.0000  10.7500   2.5000 Du        
    178 ****        21.0000  10.7500   2.7500 Du        
    179 ****        21.0000  10.7500   3.0000 Du        
    180 ****        21.0000  10.7500   3.2500 Du        
    181 ****        21.0000  11.0000   0.2500 Du        
    182 ****        21.0000  11.0000   0.5000 Du        
    183 ****        21.0000  11.0000   0.7500 Du        
    184 ****        21.0000  11.0000   1.0000 Du        
    185 ****        21.0000  11.0000   1.2500 Du        
    186 ****        21.0000  11.0000   1.5000 Du        
    187 ****        21.0000  11.0000   1.7500 Du        
    188 ****        21.0000  11.0000   2.0000 Du        
    189 ****        21.0000  11.0000   2.2500 Du        
    190 ****        21.0000  11.0000   2.5000 Du        
    191 ****        21.0000  11.0000   2.7500 Du        
    192 ****        21.0000  11.0000   3.0000 Du        
    193 ****        21.0000  11.0000   3.2500 Du        
    194 ****        21.0000  11.2500   0.2500 Du        
    195 ****        21.0000  11.2500   0.5000 Du        
    196 ****        21.0000  11.2500   0.7500 Du        
    197 ****        21.0000  11.2500   1.0000 Du        
    198 ****        21.0000  11.2500   1.2500 Du        
    199 ****        21.0000  11.2500   1.5000 Du        
    200 ****        21.0000  11.2500   1.7500 Du        
    201 ****        21.0000  11.2500   2.0000 Du        
    202 ****        21.0000  11.2500   2.2500 Du        
    203 ****        21.0000  11.2500   2.5000 Du        
    204 ****        21.0000  11.2500   2.7500 Du        
    205 ****        21.0000  11.2500   3.0000 Du        
    206 ****        21.0000  11.2500   3.2500 Du        
    207 ****        21.0000  11.5000   0.2500 Du        
    208 ****        21.0000  11.5000   0.5000 Du        
    209 ****        21.0000  11.5000   0.7500 Du        
    210 ****        21.0000  11.5000   1.0000 Du        
    211 ****        21.0000  11.5000   1.2500 Du        
    212 ****        21.0000  11.5000   1.5000 Du        
    213 ****        21.0000  11.5000   1.7500 Du        
    214 ****        21.0000  11.5000   2.0000 Du        
    215 ****        21.0000  11.5000   2.2500 Du        
    216 ****        21.0000  11.5000   2.5000 Du        
    217 ****        21.0000  11.5000   2.7500 Du        
    218 ****        21.0000  11.5000   3.0000 Du        
    219 ****        21.0000  11.5000   3.2500 Du        
    220 ****        21.0000  11.7500   0.2500 Du        
    221 ****        21.0000  11.7500   0.5000 Du        
    222 ****        21.0000  11.7500   0.7500 Du        
    223 ****        21.0000  11.7500   1.0000 Du        
    224 ****        21.0000  11.7500   1.2500 Du        
    225 ****        21.0000  11.7500   1.5000 Du        
    226 ****        21.0000  11.7500   1.7500 Du        
    227 ****        21.0000  11.7500   2.0000 Du        
    228 ****        21.0000  11.7500   2.2500 Du        
    229 ****        21.0000  11.7500   2.5000 Du        
    230 ****        21.0000  11.7500   2.7500 Du        
    231 ****        21.0000  11.7500   3.0000 Du        
    232 ****        21.0000  11.7500   3.2500 Du        
    233 ****        21.0000  12.0000   0.2500 Du        
    234 ****        21.0000  12.0000   0.5000 Du        
    235 ****        21.0000  12.0000   0.7500 Du        
    236 ****        21.0000  12.0000   1.0000 Du        
    237 ****        21.0000  12.0000   1.2500 Du        
    238 ****        21.0000  12.0000   1.5000 Du        
    239 ****        21.0000  12.0000   1.7500 Du        
    240 ****        21.0000  12.0000   2.0000 Du        
    241 ****        21.0000  12.0000   2.2500 Du        
    242 ****        21.0000  12.0000   2.5000 Du        
    243 ****        21.0000  12.0000   2.7500 Du        
    244 ****        21.0000  12.0000   3.0000 Du        
    245 ****        21.0000  12.2500   0.2500 Du        
    246 ****        21.0000  12.2500   0.5000 Du        
    247 ****        21.0000  12.2500   0.7500 Du        
    248 ****        21.0000  12.2500   1.0000 Du        
    249 ****        21.0000  12.2500   1.2500 Du        
    250 ****        21.0000  12.2500   1.5000 Du        
    251 ****        21.0000  12.2500   1.7500 Du        
    252 ****        21.0000  12.2500   2.0000 Du        
    253 ****        21.0000  12.2500   2.2500 Du        
    254 ****        21.0000  12.2500   2.5000 Du        
    255 ****        21.0000  12.2500   2.7500 Du        
    256 ****        21.0000  12.5000   0.2500 Du        
    257 ****        21.0000  12.5000   0.5000 Du        
    258 ****        21.0000  12.5000   0.7500 Du        
    259 ****        21.0000  12.5000   1.0000 Du        
    260 ****        21.0000  12.5000   1.2500 Du        
    261 ****        21.0000  12.5000   1.5000 Du        
    262 ****        21.0000  12.5000   1.7500 Du        
    263 ****        21.0000  12.5000   2.0000 Du        
    264 ****        21.0000  12.5000   2.2500 Du        
    265 ****        21.0000  12.5000   2.5000 Du        
    266 ****        21.0000  12.5000   2.7500 Du        
    267 ****        21.0000  12.7500   0.0000 Du        
    268 ****        21.0000  12.7500   0.2500 Du        
    269 ****        21.0000  12.7500   0.5000 Du        
    270 ****        21.0000  12.7500   0.7500 Du        
    271 ****        21.0000  12.7500   1.0000 Du        
    272 ****        21.0000  12.7500   1.2500 Du        
    273 ****        21.0000  12.7500   1.5000 Du        
    274 ****        21.0000  12.7500   1.7500 Du        
    275 ****        21.0000  12.7500   2.0000 Du        
    276 ****        21.0000  12.7500   2.2500 Du        
    277 ****        21.0000  12.7500   2.5000 Du        
    278 ****        21.0000  12.7500   2.7500 Du        
    279 ****        21.0000  13.0000   0.2500 Du        
    280 ****        21.0000  13.0000   0.5000 Du        
    281 ****        21.0000  13.0000   0.7500 Du        
    282 ****        21.0000  13.0000   1.0000 Du        
    283 ****        21.0000  13.0000   1.2500 Du        
    284 ****        21.0000  13.0000   1.5000 Du        
    285 ****        21.0000  13.0000   1.7500 Du        
    286 ****        21.0000  13.0000   2.0000 Du        
    287 ****        21.0000  13.0000   2.2500 Du        
    288 ****        21.0000  13.2500   0.5000 Du        
    289 ****        21.0000  13.2500   0.7500 Du        
    290 ****        21.0000  13.2500   1.0000 Du        
    291 ****        21.0000  13.2500   1.2500 Du        
    292 ****        21.0000  13.2500   1.5000 Du        
    293 ****        21.2500   7.0000  -7.5000 Du        
    294 ****        21.2500   9.7500   3.2500 Du        
    295 ****        21.2500  10.0000   2.5000 Du        
    296 ****        21.2500  10.0000   2.7500 Du        
    297 ****        21.2500  10.0000   3.0000 Du        
    298 ****        21.2500  10.0000   3.2500 Du        
    299 ****        21.2500  10.2500   2.0000 Du        
    300 ****        21.2500  10.2500   2.2500 Du        
    301 ****        21.2500  10.2500   2.5000 Du        
    302 ****        21.2500  10.2500   2.7500 Du        
    303 ****        21.2500  10.2500   3.0000 Du        
    304 ****        21.2500  10.2500   3.2500 Du        
    305 ****        21.2500  10.5000   1.2500 Du        
    306 ****        21.2500  10.5000   1.5000 Du        
    307 ****        21.2500  10.5000   1.7500 Du        
    308 ****        21.2500  10.5000   2.0000 Du        
    309 ****        21.2500  10.5000   2.2500 Du        
    310 ****        21.2500  10.5000   2.5000 Du        
    311 ****        21.2500  10.5000   2.7500 Du        
    312 ****        21.2500  10.5000   3.0000 Du        
    313 ****        21.2500  10.5000   3.2500 Du        
    314 ****        21.2500  10.7500   0.5000 Du        
    315 ****        21.2500  10.7500   0.7500 Du        
    316 ****        21.2500  10.7500   1.0000 Du        
    317 ****        21.2500  10.7500   1.2500 Du        
    318 ****        21.2500  10.7500   1.5000 Du        
    319 ****        21.2500  10.7500   1.7500 Du        
    320 ****        21.2500  10.7500   2.0000 Du        
    321 ****        21.2500  10.7500   2.2500 Du        
    322 ****        21.2500  10.7500   2.5000 Du        
    323 ****        21.2500  10.7500   2.7500 Du        
    324 ****        21.2500  10.7500   3.0000 Du        
    325 ****        21.2500  10.7500   3.2500 Du        
    326 ****        21.2500  11.0000   0.2500 Du        
    327 ****        21.2500  11.0000   0.5000 Du        
    328 ****        21.2500  11.0000   0.7500 Du        
    329 ****        21.2500  11.0000   1.0000 Du        
    330 ****        21.2500  11.0000   1.2500 Du        
    331 ****        21.2500  11.0000   1.5000 Du        
    332 ****        21.2500  11.0000   1.7500 Du        
    333 ****        21.2500  11.0000   2.0000 Du        
    334 ****        21.2500  11.0000   2.2500 Du        
    335 ****        21.2500  11.0000   2.5000 Du        
    336 ****        21.2500  11.0000   2.7500 Du        
    337 ****        21.2500  11.0000   3.0000 Du        
    338 ****        21.2500  11.0000   3.2500 Du        
    339 ****        21.2500  11.2500   0.0000 Du        
    340 ****        21.2500  11.2500   0.2500 Du        
    341 ****        21.2500  11.2500   0.5000 Du        
    342 ****        21.2500  11.2500   0.7500 Du        
    343 ****        21.2500  11.2500   1.0000 Du        
    344 ****        21.2500  11.2500   1.2500 Du        
    345 ****        21.2500  11.2500   1.5000 Du        
    346 ****        21.2500  11.2500   1.7500 Du        
    347 ****        21.2500  11.2500   2.0000 Du        
    348 ****        21.2500  11.2500   2.2500 Du        
    349 ****        21.2500  11.2500   2.5000 Du        
    350 ****        21.2500  11.2500   2.7500 Du        
    351 ****        21.2500  11.2500   3.0000 Du        
    352 ****        21.2500  11.2500   3.2500 Du        
    353 ****        21.2500  11.5000   0.0000 Du        
    354 ****        21.2500  11.5000   0.2500 Du        
    355 ****        21.2500  11.5000   0.5000 Du        
    356 ****        21.2500  11.5000   0.7500 Du        
    357 ****        21.2500  11.5000   1.0000 Du        
    358 ****        21.2500  11.5000   1.2500 Du        
    359 ****        21.2500  11.5000   1.5000 Du        
    360 ****        21.2500  11.5000   1.7500 Du        
    361 ****        21.2500  11.5000   2.0000 Du        
    362 ****        21.2500  11.5000   2.2500 Du        
    363 ****        21.2500  11.5000   2.5000 Du        
    364 ****        21.2500  11.5000   2.7500 Du        
    365 ****        21.2500  11.5000   3.0000 Du        
    366 ****        21.2500  11.5000   3.2500 Du        
    367 ****        21.2500  11.7500   0.0000 Du        
    368 ****        21.2500  11.7500   0.2500 Du        
    369 ****        21.2500  11.7500   0.5000 Du        
    370 ****        21.2500  11.7500   0.7500 Du        
    371 ****        21.2500  11.7500   1.0000 Du        
    372 ****        21.2500  11.7500   1.2500 Du        
    373 ****        21.2500  11.7500   1.5000 Du        
    374 ****        21.2500  11.7500   1.7500 Du        
    375 ****        21.2500  11.7500   2.0000 Du        
    376 ****        21.2500  11.7500   2.2500 Du        
    377 ****        21.2500  11.7500   2.5000 Du        
    378 ****        21.2500  11.7500   2.7500 Du        
    379 ****        21.2500  11.7500   3.0000 Du        
    380 ****        21.2500  11.7500   3.2500 Du        
    381 ****        21.2500  12.0000   0.0000 Du        
    382 ****        21.2500  12.0000   0.2500 Du        
    383 ****        21.2500  12.0000   0.5000 Du        
    384 ****        21.2500  12.0000   0.7500 Du        
    385 ****        21.2500  12.0000   1.0000 Du        
    386 ****        21.2500  12.0000   1.2500 Du        
    387 ****        21.2500  12.0000   1.5000 Du        
    388 ****        21.2500  12.0000   1.7500 Du        
    389 ****        21.2500  12.0000   2.0000 Du        
    390 ****        21.2500  12.0000   2.2500 Du        
    391 ****        21.2500  12.0000   2.5000 Du        
    392 ****        21.2500  12.0000   2.7500 Du        
    393 ****        21.2500  12.0000   3.0000 Du        
    394 ****        21.2500  12.0000   3.2500 Du        
    395 ****        21.2500  12.2500   0.0000 Du        
    396 ****        21.2500  12.2500   0.2500 Du        
    397 ****        21.2500  12.2500   0.5000 Du        
    398 ****        21.2500  12.2500   0.7500 Du        
    399 ****        21.2500  12.2500   1.0000 Du        
    400 ****        21.2500  12.2500   1.2500 Du        
    401 ****        21.2500  12.2500   1.5000 Du        
    402 ****        21.2500  12.2500   1.7500 Du        
    403 ****        21.2500  12.2500   2.0000 Du        
    404 ****        21.2500  12.2500   2.2500 Du        
    405 ****        21.2500  12.2500   2.5000 Du        
    406 ****        21.2500  12.2500   2.7500 Du        
    407 ****        21.2500  12.5000  -0.2500 Du        
    408 ****        21.2500  12.5000   0.0000 Du        
    409 ****        21.2500  12.5000   0.2500 Du        
    410 ****        21.2500  12.5000   0.5000 Du        
    411 ****        21.2500  12.5000   0.7500 Du        
    412 ****        21.2500  12.5000   1.0000 Du        
    413 ****        21.2500  12.5000   1.2500 Du        
    414 ****        21.2500  12.5000   1.5000 Du        
    415 ****        21.2500  12.5000   1.7500 Du        
    416 ****        21.2500  12.5000   2.0000 Du        
    417 ****        21.2500  12.5000   2.2500 Du        
    418 ****        21.2500  12.5000   2.5000 Du        
    419 ****        21.2500  12.5000   2.7500 Du        
    420 ****        21.2500  12.7500  -0.2500 Du        
    421 ****        21.2500  12.7500   0.0000 Du        
    422 ****        21.2500  12.7500   0.2500 Du        
    423 ****        21.2500  12.7500   0.5000 Du        
    424 ****        21.2500  12.7500   0.7500 Du        
    425 ****        21.2500  12.7500   1.0000 Du        
    426 ****        21.2500  12.7500   1.2500 Du        
    427 ****        21.2500  12.7500   1.5000 Du        
    428 ****        21.2500  12.7500   1.7500 Du        
    429 ****        21.2500  12.7500   2.0000 Du        
    430 ****        21.2500  12.7500   2.2500 Du        
    431 ****        21.2500  12.7500   2.5000 Du        
    432 ****        21.2500  12.7500   2.7500 Du        
    433 ****        21.2500  13.0000   0.0000 Du        
    434 ****        21.2500  13.0000   0.2500 Du        
    435 ****        21.2500  13.0000   0.5000 Du        
    436 ****        21.2500  13.0000   0.7500 Du        
    437 ****        21.2500  13.0000   1.0000 Du        
    438 ****        21.2500  13.0000   1.2500 Du        
    439 ****        21.2500  13.0000   1.5000 Du        
    440 ****        21.2500  13.0000   1.7500 Du        
    441 ****        21.2500  13.0000   2.0000 Du        
    442 ****        21.2500  13.0000   2.2500 Du        
    443 ****        21.2500  13.0000   2.5000 Du        
    444 ****        21.2500  13.0000   2.7500 Du        
    445 ****        21.2500  13.2500   0.5000 Du        
    446 ****        21.2500  13.2500   0.7500 Du        
    447 ****        21.2500  13.2500   1.0000 Du        
    448 ****        21.2500  13.2500   1.2500 Du        
    449 ****        21.2500  13.2500   1.5000 Du        
    450 ****        21.2500  13.2500   1.7500 Du        
    451 ****        21.2500  13.2500   2.0000 Du        
    452 ****        21.2500  13.2500   2.2500 Du        
    453 ****        21.2500  13.5000   0.7500 Du        
    454 ****        21.2500  13.5000   1.0000 Du        
    455 ****        21.2500  13.5000   1.2500 Du        
    456 ****        21.2500  13.5000   1.5000 Du        
    457 ****        21.2500  13.5000   1.7500 Du        
    458 ****        21.2500  13.5000   2.0000 Du        
    459 ****        21.2500  13.5000   2.2500 Du        
    460 ****        21.5000   6.2500  -8.0000 Du        
    461 ****        21.5000   6.5000  -8.0000 Du        
    462 ****        21.5000   6.5000  -7.7500 Du        
    463 ****        21.5000   6.7500  -8.0000 Du        
    464 ****        21.5000   6.7500  -7.7500 Du        
    465 ****        21.5000   6.7500  -7.5000 Du        
    466 ****        21.5000   7.0000  -8.0000 Du        
    467 ****        21.5000   7.0000  -7.7500 Du        
    468 ****        21.5000   7.0000  -7.5000 Du        
    469 ****        21.5000   7.0000  -7.2500 Du        
    470 ****        21.5000   7.0000  -7.0000 Du        
    471 ****        21.5000   7.0000  -2.7500 Du        
    472 ****        21.5000   7.0000  -2.5000 Du        
    473 ****        21.5000   7.0000  -2.2500 Du        
    474 ****        21.5000   7.2500  -8.5000 Du        
    475 ****        21.5000   7.2500  -8.2500 Du        
    476 ****        21.5000   7.2500  -8.0000 Du        
    477 ****        21.5000   7.2500  -7.7500 Du        
    478 ****        21.5000   7.2500  -7.5000 Du        
    479 ****        21.5000   7.2500  -2.5000 Du        
    480 ****        21.5000   7.2500  -2.0000 Du        
    481 ****        21.5000  10.0000   3.5000 Du        
    482 ****        21.5000  10.0000   3.7500 Du        
    483 ****        21.5000  10.2500   2.7500 Du        
    484 ****        21.5000  10.2500   3.0000 Du        
    485 ****        21.5000  10.2500   3.2500 Du        
    486 ****        21.5000  10.2500   3.5000 Du        
    487 ****        21.5000  10.2500   3.7500 Du        
    488 ****        21.5000  10.5000   1.2500 Du        
    489 ****        21.5000  10.5000   1.5000 Du        
    490 ****        21.5000  10.5000   1.7500 Du        
    491 ****        21.5000  10.5000   2.0000 Du        
    492 ****        21.5000  10.5000   2.2500 Du        
    493 ****        21.5000  10.5000   2.5000 Du        
    494 ****        21.5000  10.5000   2.7500 Du        
    495 ****        21.5000  10.5000   3.0000 Du        
    496 ****        21.5000  10.7500   0.5000 Du        
    497 ****        21.5000  10.7500   0.7500 Du        
    498 ****        21.5000  10.7500   1.0000 Du        
    499 ****        21.5000  10.7500   1.2500 Du        
    500 ****        21.5000  10.7500   1.5000 Du        
    501 ****        21.5000  10.7500   1.7500 Du        
    502 ****        21.5000  10.7500   2.0000 Du        
    503 ****        21.5000  10.7500   2.2500 Du        
    504 ****        21.5000  10.7500   2.5000 Du        
    505 ****        21.5000  10.7500   2.7500 Du        
    506 ****        21.5000  10.7500   3.0000 Du        
    507 ****        21.5000  10.7500   3.2500 Du        
    508 ****        21.5000  11.0000   0.0000 Du        
    509 ****        21.5000  11.0000   0.2500 Du        
    510 ****        21.5000  11.0000   0.5000 Du        
    511 ****        21.5000  11.0000   0.7500 Du        
    512 ****        21.5000  11.0000   1.0000 Du        
    513 ****        21.5000  11.0000   1.2500 Du        
    514 ****        21.5000  11.0000   1.5000 Du        
    515 ****        21.5000  11.0000   1.7500 Du        
    516 ****        21.5000  11.0000   2.0000 Du        
    517 ****        21.5000  11.0000   2.2500 Du        
    518 ****        21.5000  11.0000   2.5000 Du        
    519 ****        21.5000  11.0000   2.7500 Du        
    520 ****        21.5000  11.0000   3.0000 Du        
    521 ****        21.5000  11.0000   3.2500 Du        
    522 ****        21.5000  11.2500   0.0000 Du        
    523 ****        21.5000  11.2500   0.2500 Du        
    524 ****        21.5000  11.2500   0.5000 Du        
    525 ****        21.5000  11.2500   0.7500 Du        
    526 ****        21.5000  11.2500   1.0000 Du        
    527 ****        21.5000  11.2500   1.2500 Du        
    528 ****        21.5000  11.2500   1.5000 Du        
    529 ****        21.5000  11.2500   1.7500 Du        
    530 ****        21.5000  11.2500   2.0000 Du        
    531 ****        21.5000  11.2500   2.2500 Du        
    532 ****        21.5000  11.2500   2.5000 Du        
    533 ****        21.5000  11.2500   2.7500 Du        
    534 ****        21.5000  11.2500   3.0000 Du        
    535 ****        21.5000  11.2500   3.2500 Du        
    536 ****        21.5000  11.5000  -0.5000 Du        
    537 ****        21.5000  11.5000  -0.2500 Du        
    538 ****        21.5000  11.5000   0.0000 Du        
    539 ****        21.5000  11.5000   0.2500 Du        
    540 ****        21.5000  11.5000   0.5000 Du        
    541 ****        21.5000  11.5000   0.7500 Du        
    542 ****        21.5000  11.5000   1.0000 Du        
    543 ****        21.5000  11.5000   1.2500 Du        
    544 ****        21.5000  11.5000   1.5000 Du        
    545 ****        21.5000  11.5000   1.7500 Du        
    546 ****        21.5000  11.5000   2.0000 Du        
    547 ****        21.5000  11.5000   2.2500 Du        
    548 ****        21.5000  11.5000   2.5000 Du        
    549 ****        21.5000  11.5000   2.7500 Du        
    550 ****        21.5000  11.5000   3.0000 Du        
    551 ****        21.5000  11.5000   3.2500 Du        
    552 ****        21.5000  11.7500  -0.5000 Du        
    553 ****        21.5000  11.7500  -0.2500 Du        
    554 ****        21.5000  11.7500   0.0000 Du        
    555 ****        21.5000  11.7500   0.2500 Du        
    556 ****        21.5000  11.7500   0.5000 Du        
    557 ****        21.5000  11.7500   0.7500 Du        
    558 ****        21.5000  11.7500   1.0000 Du        
    559 ****        21.5000  11.7500   1.2500 Du        
    560 ****        21.5000  11.7500   1.5000 Du        
    561 ****        21.5000  11.7500   1.7500 Du        
    562 ****        21.5000  11.7500   2.0000 Du        
    563 ****        21.5000  11.7500   2.2500 Du        
    564 ****        21.5000  11.7500   2.5000 Du        
    565 ****        21.5000  11.7500   2.7500 Du        
    566 ****        21.5000  11.7500   3.0000 Du        
    567 ****        21.5000  11.7500   3.2500 Du        
    568 ****        21.5000  12.0000  -0.5000 Du        
    569 ****        21.5000  12.0000  -0.2500 Du        
    570 ****        21.5000  12.0000   0.0000 Du        
    571 ****        21.5000  12.0000   0.2500 Du        
    572 ****        21.5000  12.0000   0.5000 Du        
    573 ****        21.5000  12.0000   0.7500 Du        
    574 ****        21.5000  12.0000   1.0000 Du        
    575 ****        21.5000  12.0000   1.2500 Du        
    576 ****        21.5000  12.0000   1.5000 Du        
    577 ****        21.5000  12.0000   1.7500 Du        
    578 ****        21.5000  12.0000   2.0000 Du        
    579 ****        21.5000  12.0000   2.2500 Du        
    580 ****        21.5000  12.0000   2.5000 Du        
    581 ****        21.5000  12.0000   2.7500 Du        
    582 ****        21.5000  12.0000   3.0000 Du        
    583 ****        21.5000  12.0000   3.2500 Du        
    584 ****        21.5000  12.2500  -0.5000 Du        
    585 ****        21.5000  12.2500  -0.2500 Du        
    586 ****        21.5000  12.2500   0.0000 Du        
    587 ****        21.5000  12.2500   0.2500 Du        
    588 ****        21.5000  12.2500   0.5000 Du        
    589 ****        21.5000  12.2500   0.7500 Du        
    590 ****        21.5000  12.2500   1.0000 Du        
    591 ****        21.5000  12.2500   1.2500 Du        
    592 ****        21.5000  12.2500   1.5000 Du        
    593 ****        21.5000  12.2500   1.7500 Du        
    594 ****        21.5000  12.2500   2.0000 Du        
    595 ****        21.5000  12.2500   2.2500 Du        
    596 ****        21.5000  12.2500   2.5000 Du        
    597 ****        21.5000  12.2500   2.7500 Du        
    598 ****        21.5000  12.2500   3.0000 Du        
    599 ****        21.5000  12.2500   3.2500 Du        
    600 ****        21.5000  12.5000  -0.5000 Du        
    601 ****        21.5000  12.5000  -0.2500 Du        
    602 ****        21.5000  12.5000   0.0000 Du        
    603 ****        21.5000  12.5000   0.2500 Du        
    604 ****        21.5000  12.5000   0.5000 Du        
    605 ****        21.5000  12.5000   0.7500 Du        
    606 ****        21.5000  12.5000   1.0000 Du        
    607 ****        21.5000  12.5000   1.2500 Du        
    608 ****        21.5000  12.5000   1.5000 Du        
    609 ****        21.5000  12.5000   1.7500 Du        
    610 ****        21.5000  12.5000   2.0000 Du        
    611 ****        21.5000  12.5000   2.2500 Du        
    612 ****        21.5000  12.5000   2.5000 Du        
    613 ****        21.5000  12.5000   2.7500 Du        
    614 ****        21.5000  12.5000   3.0000 Du        
    615 ****        21.5000  12.5000   3.2500 Du        
    616 ****        21.5000  12.7500  -0.5000 Du        
    617 ****        21.5000  12.7500  -0.2500 Du        
    618 ****        21.5000  12.7500   0.0000 Du        
    619 ****        21.5000  12.7500   0.2500 Du        
    620 ****        21.5000  12.7500   0.5000 Du        
    621 ****        21.5000  12.7500   0.7500 Du        
    622 ****        21.5000  12.7500   1.0000 Du        
    623 ****        21.5000  12.7500   1.2500 Du        
    624 ****        21.5000  12.7500   1.5000 Du        
    625 ****        21.5000  12.7500   1.7500 Du        
    626 ****        21.5000  12.7500   2.0000 Du        
    627 ****        21.5000  12.7500   2.2500 Du        
    628 ****        21.5000  12.7500   2.5000 Du        
    629 ****        21.5000  12.7500   2.7500 Du        
    630 ****        21.5000  12.7500   3.0000 Du        
    631 ****        21.5000  13.0000  -0.2500 Du        
    632 ****        21.5000  13.0000   0.0000 Du        
    633 ****        21.5000  13.0000   0.2500 Du        
    634 ****        21.5000  13.0000   0.5000 Du        
    635 ****        21.5000  13.0000   0.7500 Du        
    636 ****        21.5000  13.0000   1.0000 Du        
    637 ****        21.5000  13.0000   1.2500 Du        
    638 ****        21.5000  13.0000   1.5000 Du        
    639 ****        21.5000  13.0000   1.7500 Du        
    640 ****        21.5000  13.0000   2.0000 Du        
    641 ****        21.5000  13.0000   2.2500 Du        
    642 ****        21.5000  13.0000   2.5000 Du        
    643 ****        21.5000  13.0000   2.7500 Du        
    644 ****        21.5000  13.0000   3.0000 Du        
    645 ****        21.5000  13.2500   0.2500 Du        
    646 ****        21.5000  13.2500   0.5000 Du        
    647 ****        21.5000  13.2500   0.7500 Du        
    648 ****        21.5000  13.2500   1.0000 Du        
    649 ****        21.5000  13.2500   1.2500 Du        
    650 ****        21.5000  13.2500   1.5000 Du        
    651 ****        21.5000  13.2500   1.7500 Du        
    652 ****        21.5000  13.2500   2.0000 Du        
    653 ****        21.5000  13.2500   2.2500 Du        
    654 ****        21.5000  13.2500   2.5000 Du        
    655 ****        21.5000  13.2500   2.7500 Du        
    656 ****        21.5000  13.5000   0.7500 Du        
    657 ****        21.5000  13.5000   1.0000 Du        
    658 ****        21.5000  13.5000   1.2500 Du        
    659 ****        21.5000  13.5000   1.5000 Du        
    660 ****        21.5000  13.5000   1.7500 Du        
    661 ****        21.5000  13.5000   2.0000 Du        
    662 ****        21.5000  13.5000   2.2500 Du        
    663 ****        21.5000  13.5000   2.5000 Du        
    664 ****        21.5000  13.7500   1.2500 Du        
    665 ****        21.5000  13.7500   1.5000 Du        
    666 ****        21.5000  13.7500   1.7500 Du        
    667 ****        21.5000  13.7500   2.0000 Du        
    668 ****        21.5000  13.7500   2.2500 Du        
    669 ****        21.7500   6.5000  -8.0000 Du        
    670 ****        21.7500   6.5000  -7.7500 Du        
    671 ****        21.7500   6.7500  -8.0000 Du        
    672 ****        21.7500   6.7500  -7.7500 Du        
    673 ****        21.7500   6.7500  -7.5000 Du        
    674 ****        21.7500   6.7500  -2.2500 Du        
    675 ****        21.7500   7.0000  -8.0000 Du        
    676 ****        21.7500   7.0000  -7.7500 Du        
    677 ****        21.7500   7.0000  -7.5000 Du        
    678 ****        21.7500   7.0000  -7.2500 Du        
    679 ****        21.7500   7.0000  -7.0000 Du        
    680 ****        21.7500   7.0000  -2.7500 Du        
    681 ****        21.7500   7.0000  -2.5000 Du        
    682 ****        21.7500   7.0000  -2.2500 Du        
    683 ****        21.7500   7.0000  -2.0000 Du        
    684 ****        21.7500   7.0000  -1.7500 Du        
    685 ****        21.7500   7.2500  -8.5000 Du        
    686 ****        21.7500   7.2500  -8.2500 Du        
    687 ****        21.7500   7.2500  -8.0000 Du        
    688 ****        21.7500   7.2500  -7.7500 Du        
    689 ****        21.7500   7.2500  -7.5000 Du        
    690 ****        21.7500   7.2500  -7.2500 Du        
    691 ****        21.7500   7.2500  -7.0000 Du        
    692 ****        21.7500   7.2500  -2.7500 Du        
    693 ****        21.7500   7.2500  -2.5000 Du        
    694 ****        21.7500   7.2500  -2.2500 Du        
    695 ****        21.7500   7.2500  -2.0000 Du        
    696 ****        21.7500   7.2500  -1.5000 Du        
    697 ****        21.7500  10.5000   1.7500 Du        
    698 ****        21.7500  10.7500   0.5000 Du        
    699 ****        21.7500  10.7500   0.7500 Du        
    700 ****        21.7500  10.7500   1.0000 Du        
    701 ****        21.7500  10.7500   1.2500 Du        
    702 ****        21.7500  10.7500   1.5000 Du        
    703 ****        21.7500  10.7500   1.7500 Du        
    704 ****        21.7500  10.7500   2.0000 Du        
    705 ****        21.7500  10.7500   2.2500 Du        
    706 ****        21.7500  11.0000  -0.2500 Du        
    707 ****        21.7500  11.0000   0.0000 Du        
    708 ****        21.7500  11.0000   0.2500 Du        
    709 ****        21.7500  11.0000   0.5000 Du        
    710 ****        21.7500  11.0000   0.7500 Du        
    711 ****        21.7500  11.0000   1.0000 Du        
    712 ****        21.7500  11.0000   1.2500 Du        
    713 ****        21.7500  11.0000   1.5000 Du        
    714 ****        21.7500  11.0000   1.7500 Du        
    715 ****        21.7500  11.0000   2.0000 Du        
    716 ****        21.7500  11.0000   2.2500 Du        
    717 ****        21.7500  11.2500  -0.5000 Du        
    718 ****        21.7500  11.2500  -0.2500 Du        
    719 ****        21.7500  11.2500   0.0000 Du        
    720 ****        21.7500  11.2500   0.2500 Du        
    721 ****        21.7500  11.2500   0.5000 Du        
    722 ****        21.7500  11.2500   0.7500 Du        
    723 ****        21.7500  11.2500   1.0000 Du        
    724 ****        21.7500  11.2500   1.2500 Du        
    725 ****        21.7500  11.2500   1.5000 Du        
    726 ****        21.7500  11.2500   1.7500 Du        
    727 ****        21.7500  11.2500   2.0000 Du        
    728 ****        21.7500  11.2500   2.2500 Du        
    729 ****        21.7500  11.5000  -1.0000 Du        
    730 ****        21.7500  11.5000  -0.7500 Du        
    731 ****        21.7500  11.5000  -0.5000 Du        
    732 ****        21.7500  11.5000  -0.2500 Du        
    733 ****        21.7500  11.5000   0.0000 Du        
    734 ****        21.7500  11.5000   0.2500 Du        
    735 ****        21.7500  11.5000   0.5000 Du        
    736 ****        21.7500  11.5000   0.7500 Du        
    737 ****        21.7500  11.5000   1.0000 Du        
    738 ****        21.7500  11.5000   1.2500 Du        
    739 ****        21.7500  11.5000   1.5000 Du        
    740 ****        21.7500  11.5000   1.7500 Du        
    741 ****        21.7500  11.5000   2.0000 Du        
    742 ****        21.7500  11.5000   2.2500 Du        
    743 ****        21.7500  11.5000   2.5000 Du        
    744 ****        21.7500  11.7500  -1.0000 Du        
    745 ****        21.7500  11.7500  -0.7500 Du        
    746 ****        21.7500  11.7500  -0.5000 Du        
    747 ****        21.7500  11.7500  -0.2500 Du        
    748 ****        21.7500  11.7500   0.0000 Du        
    749 ****        21.7500  11.7500   0.2500 Du        
    750 ****        21.7500  11.7500   0.5000 Du        
    751 ****        21.7500  11.7500   0.7500 Du        
    752 ****        21.7500  11.7500   1.0000 Du        
    753 ****        21.7500  11.7500   1.2500 Du        
    754 ****        21.7500  11.7500   1.5000 Du        
    755 ****        21.7500  11.7500   1.7500 Du        
    756 ****        21.7500  11.7500   2.0000 Du        
    757 ****        21.7500  11.7500   2.2500 Du        
    758 ****        21.7500  11.7500   2.5000 Du        
    759 ****        21.7500  11.7500   2.7500 Du        
    760 ****        21.7500  12.0000  -1.0000 Du        
    761 ****        21.7500  12.0000  -0.7500 Du        
    762 ****        21.7500  12.0000  -0.5000 Du        
    763 ****        21.7500  12.0000  -0.2500 Du        
    764 ****        21.7500  12.0000   0.0000 Du        
    765 ****        21.7500  12.0000   0.2500 Du        
    766 ****        21.7500  12.0000   0.5000 Du        
    767 ****        21.7500  12.0000   0.7500 Du        
    768 ****        21.7500  12.0000   1.0000 Du        
    769 ****        21.7500  12.0000   1.2500 Du        
    770 ****        21.7500  12.0000   1.5000 Du        
    771 ****        21.7500  12.0000   1.7500 Du        
    772 ****        21.7500  12.0000   2.0000 Du        
    773 ****        21.7500  12.0000   2.2500 Du        
    774 ****        21.7500  12.0000   2.5000 Du        
    775 ****        21.7500  12.0000   2.7500 Du        
    776 ****        21.7500  12.2500  -1.0000 Du        
    777 ****        21.7500  12.2500  -0.7500 Du        
    778 ****        21.7500  12.2500  -0.5000 Du        
    779 ****        21.7500  12.2500  -0.2500 Du        
    780 ****        21.7500  12.2500   0.0000 Du        
    781 ****        21.7500  12.2500   0.2500 Du        
    782 ****        21.7500  12.2500   0.5000 Du        
    783 ****        21.7500  12.2500   0.7500 Du        
    784 ****        21.7500  12.2500   1.0000 Du        
    785 ****        21.7500  12.2500   1.2500 Du        
    786 ****        21.7500  12.2500   1.5000 Du        
    787 ****        21.7500  12.2500   1.7500 Du        
    788 ****        21.7500  12.2500   2.0000 Du        
    789 ****        21.7500  12.2500   2.2500 Du        
    790 ****        21.7500  12.2500   2.5000 Du        
    791 ****        21.7500  12.2500   2.7500 Du        
    792 ****        21.7500  12.2500   3.0000 Du        
    793 ****        21.7500  12.5000  -1.0000 Du        
    794 ****        21.7500  12.5000  -0.7500 Du        
    795 ****        21.7500  12.5000  -0.5000 Du        
    796 ****        21.7500  12.5000  -0.2500 Du        
    797 ****        21.7500  12.5000   0.0000 Du        
    798 ****        21.7500  12.5000   0.2500 Du        
    799 ****        21.7500  12.5000   0.5000 Du        
    800 ****        21.7500  12.5000   0.7500 Du        
    801 ****        21.7500  12.5000   1.0000 Du        
    802 ****        21.7500  12.5000   1.2500 Du        
    803 ****        21.7500  12.5000   1.5000 Du        
    804 ****        21.7500  12.5000   1.7500 Du        
    805 ****        21.7500  12.5000   2.0000 Du        
    806 ****        21.7500  12.5000   2.2500 Du        
    807 ****        21.7500  12.5000   2.5000 Du        
    808 ****        21.7500  12.5000   2.7500 Du        
    809 ****        21.7500  12.5000   3.0000 Du        
    810 ****        21.7500  12.7500  -1.0000 Du        
    811 ****        21.7500  12.7500  -0.7500 Du        
    812 ****        21.7500  12.7500  -0.5000 Du        
    813 ****        21.7500  12.7500  -0.2500 Du        
    814 ****        21.7500  12.7500   0.0000 Du        
    815 ****        21.7500  12.7500   0.2500 Du        
    816 ****        21.7500  12.7500   0.5000 Du        
    817 ****        21.7500  12.7500   0.7500 Du        
    818 ****        21.7500  12.7500   1.0000 Du        
    819 ****        21.7500  12.7500   1.2500 Du        
    820 ****        21.7500  12.7500   1.5000 Du        
    821 ****        21.7500  12.7500   1.7500 Du        
    822 ****        21.7500  12.7500   2.0000 Du        
    823 ****        21.7500  12.7500   2.2500 Du        
    824 ****        21.7500  12.7500   2.5000 Du        
    825 ****        21.7500  12.7500   2.7500 Du        
    826 ****        21.7500  12.7500   3.0000 Du        
    827 ****        21.7500  13.0000  -0.5000 Du        
    828 ****        21.7500  13.0000  -0.2500 Du        
    829 ****        21.7500  13.0000   0.0000 Du        
    830 ****        21.7500  13.0000   0.2500 Du        
    831 ****        21.7500  13.0000   0.5000 Du        
    832 ****        21.7500  13.0000   0.7500 Du        
    833 ****        21.7500  13.0000   1.0000 Du        
    834 ****        21.7500  13.0000   1.2500 Du        
    835 ****        21.7500  13.0000   1.5000 Du        
    836 ****        21.7500  13.0000   1.7500 Du        
    837 ****        21.7500  13.0000   2.0000 Du        
    838 ****        21.7500  13.0000   2.2500 Du        
    839 ****        21.7500  13.0000   2.5000 Du        
    840 ****        21.7500  13.0000   2.7500 Du        
    841 ****        21.7500  13.2500   0.2500 Du        
    842 ****        21.7500  13.2500   0.5000 Du        
    843 ****        21.7500  13.2500   0.7500 Du        
    844 ****        21.7500  13.2500   1.0000 Du        
    845 ****        21.7500  13.2500   1.2500 Du        
    846 ****        21.7500  13.2500   1.5000 Du        
    847 ****        21.7500  13.2500   1.7500 Du        
    848 ****        21.7500  13.2500   2.0000 Du        
    849 ****        21.7500  13.2500   2.2500 Du        
    850 ****        21.7500  13.2500   2.5000 Du        
    851 ****        21.7500  13.5000   0.7500 Du        
    852 ****        21.7500  13.5000   1.0000 Du        
    853 ****        21.7500  13.5000   1.2500 Du        
    854 ****        21.7500  13.5000   1.5000 Du        
    855 ****        21.7500  13.5000   1.7500 Du        
    856 ****        21.7500  13.5000   2.0000 Du        
    857 ****        21.7500  13.5000   2.2500 Du        
    858 ****        21.7500  13.7500   1.0000 Du        
    859 ****        21.7500  13.7500   1.2500 Du        
    860 ****        21.7500  13.7500   1.5000 Du        
    861 ****        21.7500  13.7500   1.7500 Du        
    862 ****        21.7500  13.7500   2.0000 Du        
    863 ****        21.7500  14.0000   1.5000 Du        
    864 ****        21.7500  14.0000   1.7500 Du        
    865 ****        22.0000   6.7500  -9.0000 Du        
    866 ****        22.0000   6.7500  -8.5000 Du        
    867 ****        22.0000   6.7500  -2.5000 Du        
    868 ****        22.0000   6.7500  -2.2500 Du        
    869 ****        22.0000   7.0000  -9.0000 Du        
    870 ****        22.0000   7.0000  -8.7500 Du        
    871 ****        22.0000   7.0000  -8.5000 Du        
    872 ****        22.0000   7.0000  -8.2500 Du        
    873 ****        22.0000   7.0000  -8.0000 Du        
    874 ****        22.0000   7.0000  -7.7500 Du        
    875 ****        22.0000   7.0000  -2.7500 Du        
    876 ****        22.0000   7.0000  -2.5000 Du        
    877 ****        22.0000   7.0000  -2.2500 Du        
    878 ****        22.0000   7.0000  -2.0000 Du        
    879 ****        22.0000   7.2500  -9.0000 Du        
    880 ****        22.0000   7.2500  -8.7500 Du        
    881 ****        22.0000   7.2500  -8.5000 Du        
    882 ****        22.0000   7.2500  -8.2500 Du        
    883 ****        22.0000   7.2500  -8.0000 Du        
    884 ****        22.0000   7.2500  -7.7500 Du        
    885 ****        22.0000   7.2500  -7.5000 Du        
    886 ****        22.0000   7.2500  -7.2500 Du        
    887 ****        22.0000   7.2500  -7.0000 Du        
    888 ****        22.0000   7.2500  -6.7500 Du        
    889 ****        22.0000   7.2500  -3.0000 Du        
    890 ****        22.0000   7.2500  -2.7500 Du        
    891 ****        22.0000   7.2500  -2.5000 Du        
    892 ****        22.0000   7.2500  -2.2500 Du        
    893 ****        22.0000   7.2500  -2.0000 Du        
    894 ****        22.0000   7.2500  -1.7500 Du        
    895 ****        22.0000   9.2500  -6.0000 Du        
    896 ****        22.0000  10.7500   0.2500 Du        
    897 ****        22.0000  10.7500   0.5000 Du        
    898 ****        22.0000  10.7500   0.7500 Du        
    899 ****        22.0000  10.7500   1.0000 Du        
    900 ****        22.0000  10.7500   1.2500 Du        
    901 ****        22.0000  10.7500   1.5000 Du        
    902 ****        22.0000  11.0000  -0.2500 Du        
    903 ****        22.0000  11.0000   0.0000 Du        
    904 ****        22.0000  11.0000   0.2500 Du        
    905 ****        22.0000  11.0000   0.5000 Du        
    906 ****        22.0000  11.0000   0.7500 Du        
    907 ****        22.0000  11.0000   1.0000 Du        
    908 ****        22.0000  11.0000   1.2500 Du        
    909 ****        22.0000  11.0000   1.5000 Du        
    910 ****        22.0000  11.0000   1.7500 Du        
    911 ****        22.0000  11.2500  -1.0000 Du        
    912 ****        22.0000  11.2500  -0.7500 Du        
    913 ****        22.0000  11.2500  -0.5000 Du        
    914 ****        22.0000  11.2500  -0.2500 Du        
    915 ****        22.0000  11.2500   0.0000 Du        
    916 ****        22.0000  11.2500   0.2500 Du        
    917 ****        22.0000  11.2500   0.5000 Du        
    918 ****        22.0000  11.2500   0.7500 Du        
    919 ****        22.0000  11.2500   1.0000 Du        
    920 ****        22.0000  11.2500   1.2500 Du        
    921 ****        22.0000  11.2500   1.5000 Du        
    922 ****        22.0000  11.5000  -1.5000 Du        
    923 ****        22.0000  11.5000  -1.2500 Du        
    924 ****        22.0000  11.5000  -1.0000 Du        
    925 ****        22.0000  11.5000  -0.7500 Du        
    926 ****        22.0000  11.5000  -0.5000 Du        
    927 ****        22.0000  11.5000  -0.2500 Du        
    928 ****        22.0000  11.5000   0.0000 Du        
    929 ****        22.0000  11.5000   0.2500 Du        
    930 ****        22.0000  11.5000   0.5000 Du        
    931 ****        22.0000  11.5000   0.7500 Du        
    932 ****        22.0000  11.5000   1.0000 Du        
    933 ****        22.0000  11.5000   1.2500 Du        
    934 ****        22.0000  11.5000   1.5000 Du        
    935 ****        22.0000  11.5000   1.7500 Du        
    936 ****        22.0000  11.7500  -1.5000 Du        
    937 ****        22.0000  11.7500  -1.2500 Du        
    938 ****        22.0000  11.7500  -1.0000 Du        
    939 ****        22.0000  11.7500  -0.7500 Du        
    940 ****        22.0000  11.7500  -0.5000 Du        
    941 ****        22.0000  11.7500  -0.2500 Du        
    942 ****        22.0000  11.7500   0.0000 Du        
    943 ****        22.0000  11.7500   0.2500 Du        
    944 ****        22.0000  11.7500   0.5000 Du        
    945 ****        22.0000  11.7500   0.7500 Du        
    946 ****        22.0000  11.7500   1.0000 Du        
    947 ****        22.0000  11.7500   1.2500 Du        
    948 ****        22.0000  11.7500   1.5000 Du        
    949 ****        22.0000  11.7500   1.7500 Du        
    950 ****        22.0000  12.0000  -1.5000 Du        
    951 ****        22.0000  12.0000  -1.2500 Du        
    952 ****        22.0000  12.0000  -1.0000 Du        
    953 ****        22.0000  12.0000  -0.7500 Du        
    954 ****        22.0000  12.0000  -0.5000 Du        
    955 ****        22.0000  12.0000  -0.2500 Du        
    956 ****        22.0000  12.0000   0.0000 Du        
    957 ****        22.0000  12.0000   0.2500 Du        
    958 ****        22.0000  12.0000   0.5000 Du        
    959 ****        22.0000  12.0000   0.7500 Du        
    960 ****        22.0000  12.0000   1.0000 Du        
    961 ****        22.0000  12.0000   1.2500 Du        
    962 ****        22.0000  12.0000   1.5000 Du        
    963 ****        22.0000  12.0000   1.7500 Du        
    964 ****        22.0000  12.2500  -1.5000 Du        
    965 ****        22.0000  12.2500  -1.2500 Du        
    966 ****        22.0000  12.2500  -1.0000 Du        
    967 ****        22.0000  12.2500  -0.7500 Du        
    968 ****        22.0000  12.2500  -0.5000 Du        
    969 ****        22.0000  12.2500  -0.2500 Du        
    970 ****        22.0000  12.2500   0.0000 Du        
    971 ****        22.0000  12.2500   0.2500 Du        
    972 ****        22.0000  12.2500   0.5000 Du        
    973 ****        22.0000  12.2500   0.7500 Du        
    974 ****        22.0000  12.2500   1.0000 Du        
    975 ****        22.0000  12.2500   1.2500 Du        
    976 ****        22.0000  12.2500   1.5000 Du        
    977 ****        22.0000  12.5000  -1.5000 Du        
    978 ****        22.0000  12.5000  -1.2500 Du        
    979 ****        22.0000  12.5000  -1.0000 Du        
    980 ****        22.0000  12.5000  -0.7500 Du        
    981 ****        22.0000  12.5000  -0.5000 Du        
    982 ****        22.0000  12.5000  -0.2500 Du        
    983 ****        22.0000  12.5000   0.0000 Du        
    984 ****        22.0000  12.5000   0.2500 Du        
    985 ****        22.0000  12.5000   0.5000 Du        
    986 ****        22.0000  12.5000   0.7500 Du        
    987 ****        22.0000  12.5000   1.0000 Du        
    988 ****        22.0000  12.5000   1.2500 Du        
    989 ****        22.0000  12.5000   1.5000 Du        
    990 ****        22.0000  12.7500  -1.2500 Du        
    991 ****        22.0000  12.7500  -1.0000 Du        
    992 ****        22.0000  12.7500  -0.7500 Du        
    993 ****        22.0000  12.7500  -0.5000 Du        
    994 ****        22.0000  12.7500  -0.2500 Du        
    995 ****        22.0000  12.7500   0.0000 Du        
    996 ****        22.0000  12.7500   0.2500 Du        
    997 ****        22.0000  12.7500   0.5000 Du        
    998 ****        22.0000  12.7500   0.7500 Du        
    999 ****        22.0000  12.7500   1.0000 Du        
   1000 ****        22.0000  12.7500   1.2500 Du        
   1001 ****        22.0000  12.7500   1.5000 Du        
   1002 ****        22.0000  13.0000  -1.0000 Du        
   1003 ****        22.0000  13.0000  -0.7500 Du        
   1004 ****        22.0000  13.0000  -0.5000 Du        
   1005 ****        22.0000  13.0000  -0.2500 Du        
   1006 ****        22.0000  13.0000   0.0000 Du        
   1007 ****        22.0000  13.0000   0.2500 Du        
   1008 ****        22.0000  13.0000   0.5000 Du        
   1009 ****        22.0000  13.0000   0.7500 Du        
   1010 ****        22.0000  13.0000   1.0000 Du        
   1011 ****        22.0000  13.0000   1.2500 Du        
   1012 ****        22.0000  13.0000   1.5000 Du        
   1013 ****        22.0000  13.0000   1.7500 Du        
   1014 ****        22.0000  13.2500   0.0000 Du        
   1015 ****        22.0000  13.2500   0.2500 Du        
   1016 ****        22.0000  13.2500   0.5000 Du        
   1017 ****        22.0000  13.2500   0.7500 Du        
   1018 ****        22.0000  13.2500   1.0000 Du        
   1019 ****        22.0000  13.2500   1.2500 Du        
   1020 ****        22.0000  13.2500   1.5000 Du        
   1021 ****        22.0000  13.2500   1.7500 Du        
   1022 ****        22.0000  13.5000   0.7500 Du        
   1023 ****        22.0000  13.5000   1.0000 Du        
   1024 ****        22.0000  13.5000   1.2500 Du        
   1025 ****        22.0000  13.5000   1.5000 Du        
   1026 ****        22.0000  13.5000   1.7500 Du        
   1027 ****        22.0000  13.7500   1.0000 Du        
   1028 ****        22.0000  13.7500   1.2500 Du        
   1029 ****        22.0000  13.7500   1.5000 Du        
   1030 ****        22.0000  13.7500   1.7500 Du        
   1031 ****        22.0000  14.0000   1.2500 Du        
   1032 ****        22.0000  14.0000   1.5000 Du        
   1033 ****        22.0000  14.0000   1.7500 Du        
   1034 ****        22.2500   7.0000  -2.7500 Du        
   1035 ****        22.2500   7.0000  -2.5000 Du        
   1036 ****        22.2500   7.0000  -2.2500 Du        
   1037 ****        22.2500   7.2500  -2.7500 Du        
   1038 ****        22.2500   7.2500  -2.5000 Du        
   1039 ****        22.2500   7.2500  -2.2500 Du        
   1040 ****        22.2500   9.2500  -5.7500 Du        
   1041 ****        22.2500  10.7500   0.7500 Du        
   1042 ****        22.2500  11.0000  -1.2500 Du        
   1043 ****        22.2500  11.0000  -1.0000 Du        
   1044 ****        22.2500  11.0000  -0.7500 Du        
   1045 ****        22.2500  11.0000  -0.5000 Du        
   1046 ****        22.2500  11.0000  -0.2500 Du        
   1047 ****        22.2500  11.0000   0.0000 Du        
   1048 ****        22.2500  11.0000   0.2500 Du        
   1049 ****        22.2500  11.0000   0.5000 Du        
   1050 ****        22.2500  11.0000   0.7500 Du        
   1051 ****        22.2500  11.0000   1.0000 Du        
   1052 ****        22.2500  11.2500  -2.0000 Du        
   1053 ****        22.2500  11.2500  -1.7500 Du        
   1054 ****        22.2500  11.2500  -1.5000 Du        
   1055 ****        22.2500  11.2500  -1.2500 Du        
   1056 ****        22.2500  11.2500  -1.0000 Du        
   1057 ****        22.2500  11.2500  -0.7500 Du        
   1058 ****        22.2500  11.2500  -0.5000 Du        
   1059 ****        22.2500  11.2500  -0.2500 Du        
   1060 ****        22.2500  11.2500   0.0000 Du        
   1061 ****        22.2500  11.2500   0.2500 Du        
   1062 ****        22.2500  11.2500   0.5000 Du        
   1063 ****        22.2500  11.2500   0.7500 Du        
   1064 ****        22.2500  11.2500   1.0000 Du        
   1065 ****        22.2500  11.5000  -2.0000 Du        
   1066 ****        22.2500  11.5000  -1.7500 Du        
   1067 ****        22.2500  11.5000  -1.5000 Du        
   1068 ****        22.2500  11.5000  -1.2500 Du        
   1069 ****        22.2500  11.5000  -1.0000 Du        
   1070 ****        22.2500  11.5000  -0.7500 Du        
   1071 ****        22.2500  11.5000  -0.5000 Du        
   1072 ****        22.2500  11.5000  -0.2500 Du        
   1073 ****        22.2500  11.5000   0.0000 Du        
   1074 ****        22.2500  11.5000   0.2500 Du        
   1075 ****        22.2500  11.5000   0.5000 Du        
   1076 ****        22.2500  11.5000   0.7500 Du        
   1077 ****        22.2500  11.5000   1.0000 Du        
   1078 ****        22.2500  11.7500  -2.0000 Du        
   1079 ****        22.2500  11.7500  -1.7500 Du        
   1080 ****        22.2500  11.7500  -1.5000 Du        
   1081 ****        22.2500  11.7500  -1.2500 Du        
   1082 ****        22.2500  11.7500  -1.0000 Du        
   1083 ****        22.2500  11.7500  -0.7500 Du        
   1084 ****        22.2500  11.7500  -0.5000 Du        
   1085 ****        22.2500  11.7500  -0.2500 Du        
   1086 ****        22.2500  11.7500   0.0000 Du        
   1087 ****        22.2500  11.7500   0.2500 Du        
   1088 ****        22.2500  11.7500   0.5000 Du        
   1089 ****        22.2500  11.7500   0.7500 Du        
   1090 ****        22.2500  11.7500   1.0000 Du        
   1091 ****        22.2500  12.0000  -1.7500 Du        
   1092 ****        22.2500  12.0000  -1.5000 Du        
   1093 ****        22.2500  12.0000  -1.2500 Du        
   1094 ****        22.2500  12.0000  -1.0000 Du        
   1095 ****        22.2500  12.0000  -0.7500 Du        
   1096 ****        22.2500  12.0000  -0.5000 Du        
   1097 ****        22.2500  12.0000  -0.2500 Du        
   1098 ****        22.2500  12.0000   0.0000 Du        
   1099 ****        22.2500  12.0000   0.2500 Du        
   1100 ****        22.2500  12.0000   0.5000 Du        
   1101 ****        22.2500  12.0000   0.7500 Du        
   1102 ****        22.2500  12.0000   1.0000 Du        
   1103 ****        22.2500  12.2500  -1.7500 Du        
   1104 ****        22.2500  12.2500  -1.5000 Du        
   1105 ****        22.2500  12.2500  -1.2500 Du        
   1106 ****        22.2500  12.2500  -1.0000 Du        
   1107 ****        22.2500  12.2500  -0.7500 Du        
   1108 ****        22.2500  12.2500  -0.5000 Du        
   1109 ****        22.2500  12.2500  -0.2500 Du        
   1110 ****        22.2500  12.2500   0.0000 Du        
   1111 ****        22.2500  12.2500   0.2500 Du        
   1112 ****        22.2500  12.2500   0.5000 Du        
   1113 ****        22.2500  12.2500   0.7500 Du        
   1114 ****        22.2500  12.2500   1.0000 Du        
   1115 ****        22.2500  12.5000  -1.7500 Du        
   1116 ****        22.2500  12.5000  -1.5000 Du        
   1117 ****        22.2500  12.5000  -1.2500 Du        
   1118 ****        22.2500  12.5000  -1.0000 Du        
   1119 ****        22.2500  12.5000  -0.7500 Du        
   1120 ****        22.2500  12.5000  -0.5000 Du        
   1121 ****        22.2500  12.5000  -0.2500 Du        
   1122 ****        22.2500  12.5000   0.0000 Du        
   1123 ****        22.2500  12.5000   0.2500 Du        
   1124 ****        22.2500  12.5000   0.5000 Du        
   1125 ****        22.2500  12.5000   0.7500 Du        
   1126 ****        22.2500  12.5000   1.0000 Du        
   1127 ****        22.2500  12.7500  -1.5000 Du        
   1128 ****        22.2500  12.7500  -1.2500 Du        
   1129 ****        22.2500  12.7500  -1.0000 Du        
   1130 ****        22.2500  12.7500  -0.7500 Du        
   1131 ****        22.2500  12.7500  -0.5000 Du        
   1132 ****        22.2500  12.7500  -0.2500 Du        
   1133 ****        22.2500  12.7500   0.0000 Du        
   1134 ****        22.2500  12.7500   0.2500 Du        
   1135 ****        22.2500  12.7500   0.5000 Du        
   1136 ****        22.2500  12.7500   0.7500 Du        
   1137 ****        22.2500  12.7500   1.0000 Du        
   1138 ****        22.2500  13.0000  -1.5000 Du        
   1139 ****        22.2500  13.0000  -1.2500 Du        
   1140 ****        22.2500  13.0000  -1.0000 Du        
   1141 ****        22.2500  13.0000  -0.7500 Du        
   1142 ****        22.2500  13.0000  -0.5000 Du        
   1143 ****        22.2500  13.0000  -0.2500 Du        
   1144 ****        22.2500  13.0000   0.0000 Du        
   1145 ****        22.2500  13.0000   0.2500 Du        
   1146 ****        22.2500  13.0000   0.5000 Du        
   1147 ****        22.2500  13.0000   0.7500 Du        
   1148 ****        22.2500  13.0000   1.0000 Du        
   1149 ****        22.2500  13.2500   0.0000 Du        
   1150 ****        22.2500  13.2500   0.2500 Du        
   1151 ****        22.2500  13.2500   0.5000 Du        
   1152 ****        22.2500  13.2500   0.7500 Du        
   1153 ****        22.2500  13.2500   1.0000 Du        
   1154 ****        22.2500  13.5000   0.5000 Du        
   1155 ****        22.2500  13.5000   0.7500 Du        
   1156 ****        22.2500  13.5000   1.0000 Du        
   1157 ****        22.2500  13.5000   1.2500 Du        
   1158 ****        22.2500  13.7500   1.0000 Du        
   1159 ****        22.2500  13.7500   1.2500 Du        
   1160 ****        22.2500  14.0000   1.2500 Du        
   1161 ****        22.5000   7.0000  -2.7500 Du        
   1162 ****        22.5000   7.2500  -3.0000 Du        
   1163 ****        22.5000   7.2500  -2.7500 Du        
   1164 ****        22.5000   7.2500  -2.5000 Du        
   1165 ****        22.5000   9.0000  -5.7500 Du        
   1166 ****        22.5000   9.0000  -5.5000 Du        
   1167 ****        22.5000   9.0000  -5.2500 Du        
   1168 ****        22.5000  10.7500  -1.5000 Du        
   1169 ****        22.5000  10.7500  -1.2500 Du        
   1170 ****        22.5000  10.7500  -1.0000 Du        
   1171 ****        22.5000  10.7500  -0.5000 Du        
   1172 ****        22.5000  10.7500  -0.2500 Du        
   1173 ****        22.5000  10.7500   0.0000 Du        
   1174 ****        22.5000  10.7500   0.2500 Du        
   1175 ****        22.5000  11.0000  -2.2500 Du        
   1176 ****        22.5000  11.0000  -2.0000 Du        
   1177 ****        22.5000  11.0000  -1.7500 Du        
   1178 ****        22.5000  11.0000  -1.5000 Du        
   1179 ****        22.5000  11.0000  -1.2500 Du        
   1180 ****        22.5000  11.0000  -1.0000 Du        
   1181 ****        22.5000  11.0000  -0.7500 Du        
   1182 ****        22.5000  11.0000  -0.5000 Du        
   1183 ****        22.5000  11.0000  -0.2500 Du        
   1184 ****        22.5000  11.0000   0.0000 Du        
   1185 ****        22.5000  11.0000   0.2500 Du        
   1186 ****        22.5000  11.2500  -2.0000 Du        
   1187 ****        22.5000  11.2500  -1.7500 Du        
   1188 ****        22.5000  11.2500  -1.5000 Du        
   1189 ****        22.5000  11.2500  -1.2500 Du        
   1190 ****        22.5000  11.2500  -1.0000 Du        
   1191 ****        22.5000  11.2500  -0.7500 Du        
   1192 ****        22.5000  11.2500  -0.5000 Du        
   1193 ****        22.5000  11.2500  -0.2500 Du        
   1194 ****        22.5000  11.2500   0.0000 Du        
   1195 ****        22.5000  11.2500   0.2500 Du        
   1196 ****        22.5000  11.5000  -2.2500 Du        
   1197 ****        22.5000  11.5000  -2.0000 Du        
   1198 ****        22.5000  11.5000  -1.7500 Du        
   1199 ****        22.5000  11.5000  -1.5000 Du        
   1200 ****        22.5000  11.5000  -1.2500 Du        
   1201 ****        22.5000  11.5000  -1.0000 Du        
   1202 ****        22.5000  11.5000  -0.7500 Du        
   1203 ****        22.5000  11.5000  -0.5000 Du        
   1204 ****        22.5000  11.5000  -0.2500 Du        
   1205 ****        22.5000  11.5000   0.0000 Du        
   1206 ****        22.5000  11.5000   0.2500 Du        
   1207 ****        22.5000  11.5000   0.5000 Du        
   1208 ****        22.5000  11.7500  -2.2500 Du        
   1209 ****        22.5000  11.7500  -2.0000 Du        
   1210 ****        22.5000  11.7500  -1.7500 Du        
   1211 ****        22.5000  11.7500  -1.5000 Du        
   1212 ****        22.5000  11.7500  -1.2500 Du        
   1213 ****        22.5000  11.7500  -1.0000 Du        
   1214 ****        22.5000  11.7500  -0.7500 Du        
   1215 ****        22.5000  11.7500  -0.5000 Du        
   1216 ****        22.5000  11.7500  -0.2500 Du        
   1217 ****        22.5000  11.7500   0.0000 Du        
   1218 ****        22.5000  11.7500   0.2500 Du        
   1219 ****        22.5000  11.7500   0.5000 Du        
   1220 ****        22.5000  12.0000  -2.0000 Du        
   1221 ****        22.5000  12.0000  -1.7500 Du        
   1222 ****        22.5000  12.0000  -1.5000 Du        
   1223 ****        22.5000  12.0000  -1.2500 Du        
   1224 ****        22.5000  12.0000  -1.0000 Du        
   1225 ****        22.5000  12.0000  -0.7500 Du        
   1226 ****        22.5000  12.0000  -0.5000 Du        
   1227 ****        22.5000  12.0000  -0.2500 Du        
   1228 ****        22.5000  12.0000   0.0000 Du        
   1229 ****        22.5000  12.0000   0.2500 Du        
   1230 ****        22.5000  12.0000   0.5000 Du        
   1231 ****        22.5000  12.2500  -2.0000 Du        
   1232 ****        22.5000  12.2500  -1.7500 Du        
   1233 ****        22.5000  12.2500  -1.5000 Du        
   1234 ****        22.5000  12.2500  -1.2500 Du        
   1235 ****        22.5000  12.2500  -1.0000 Du        
   1236 ****        22.5000  12.2500  -0.7500 Du        
   1237 ****        22.5000  12.2500  -0.5000 Du        
   1238 ****        22.5000  12.2500  -0.2500 Du        
   1239 ****        22.5000  12.2500   0.0000 Du        
   1240 ****        22.5000  12.2500   0.2500 Du        
   1241 ****        22.5000  12.2500   0.5000 Du        
   1242 ****        22.5000  12.5000  -2.0000 Du        
   1243 ****        22.5000  12.5000  -1.7500 Du        
   1244 ****        22.5000  12.5000  -1.5000 Du        
   1245 ****        22.5000  12.5000  -1.2500 Du        
   1246 ****        22.5000  12.5000  -1.0000 Du        
   1247 ****        22.5000  12.5000  -0.7500 Du        
   1248 ****        22.5000  12.5000  -0.5000 Du        
   1249 ****        22.5000  12.5000  -0.2500 Du        
   1250 ****        22.5000  12.5000   0.0000 Du        
   1251 ****        22.5000  12.5000   0.2500 Du        
   1252 ****        22.5000  12.5000   0.5000 Du        
   1253 ****        22.5000  12.7500  -1.7500 Du        
   1254 ****        22.5000  12.7500  -1.5000 Du        
   1255 ****        22.5000  12.7500  -1.2500 Du        
   1256 ****        22.5000  12.7500  -1.0000 Du        
   1257 ****        22.5000  12.7500  -0.7500 Du        
   1258 ****        22.5000  12.7500  -0.5000 Du        
   1259 ****        22.5000  12.7500  -0.2500 Du        
   1260 ****        22.5000  12.7500   0.0000 Du        
   1261 ****        22.5000  12.7500   0.2500 Du        
   1262 ****        22.5000  12.7500   0.5000 Du        
   1263 ****        22.5000  13.0000  -1.7500 Du        
   1264 ****        22.5000  13.0000  -1.5000 Du        
   1265 ****        22.5000  13.0000  -1.2500 Du        
   1266 ****        22.5000  13.0000  -1.0000 Du        
   1267 ****        22.5000  13.0000  -0.7500 Du        
   1268 ****        22.5000  13.0000  -0.5000 Du        
   1269 ****        22.5000  13.0000  -0.2500 Du        
   1270 ****        22.5000  13.0000   0.0000 Du        
   1271 ****        22.5000  13.0000   0.2500 Du        
   1272 ****        22.5000  13.0000   0.5000 Du        
   1273 ****        22.5000  13.2500  -0.2500 Du        
   1274 ****        22.5000  13.2500   0.0000 Du        
   1275 ****        22.5000  13.2500   0.2500 Du        
   1276 ****        22.5000  13.2500   0.5000 Du        
   1277 ****        22.5000  13.5000   0.5000 Du        
   1278 ****        22.7500   7.0000  -2.7500 Du        
   1279 ****        22.7500   7.2500  -3.0000 Du        
   1280 ****        22.7500   7.2500  -2.7500 Du        
   1281 ****        22.7500   7.2500  -2.5000 Du        
   1282 ****        22.7500   9.0000  -5.7500 Du        
   1283 ****        22.7500   9.0000  -5.5000 Du        
   1284 ****        22.7500   9.0000  -5.2500 Du        
   1285 ****        22.7500  10.7500  -2.0000 Du        
   1286 ****        22.7500  10.7500  -1.5000 Du        
   1287 ****        22.7500  10.7500  -1.2500 Du        
   1288 ****        22.7500  10.7500  -1.0000 Du        
   1289 ****        22.7500  10.7500  -0.7500 Du        
   1290 ****        22.7500  10.7500  -0.5000 Du        
   1291 ****        22.7500  10.7500  -0.2500 Du        
   1292 ****        22.7500  10.7500   0.0000 Du        
   1293 ****        22.7500  10.7500   0.2500 Du        
   1294 ****        22.7500  11.0000  -2.2500 Du        
   1295 ****        22.7500  11.0000  -2.0000 Du        
   1296 ****        22.7500  11.0000  -1.7500 Du        
   1297 ****        22.7500  11.0000  -1.5000 Du        
   1298 ****        22.7500  11.0000  -1.2500 Du        
   1299 ****        22.7500  11.0000  -1.0000 Du        
   1300 ****        22.7500  11.0000  -0.7500 Du        
   1301 ****        22.7500  11.0000  -0.5000 Du        
   1302 ****        22.7500  11.0000  -0.2500 Du        
   1303 ****        22.7500  11.0000   0.0000 Du        
   1304 ****        22.7500  11.0000   0.2500 Du        
   1305 ****        22.7500  11.2500  -2.5000 Du        
   1306 ****        22.7500  11.2500  -2.2500 Du        
   1307 ****        22.7500  11.2500  -2.0000 Du        
   1308 ****        22.7500  11.2500  -1.7500 Du        
   1309 ****        22.7500  11.2500  -1.5000 Du        
   1310 ****        22.7500  11.2500  -1.2500 Du        
   1311 ****        22.7500  11.2500  -1.0000 Du        
   1312 ****        22.7500  11.2500  -0.7500 Du        
   1313 ****        22.7500  11.2500  -0.5000 Du        
   1314 ****        22.7500  11.2500  -0.2500 Du        
   1315 ****        22.7500  11.2500   0.0000 Du        
   1316 ****        22.7500  11.2500   0.2500 Du        
   1317 ****        22.7500  11.5000  -2.5000 Du        
   1318 ****        22.7500  11.5000  -2.2500 Du        
   1319 ****        22.7500  11.5000  -2.0000 Du        
   1320 ****        22.7500  11.5000  -1.7500 Du        
   1321 ****        22.7500  11.5000  -1.5000 Du        
   1322 ****        22.7500  11.5000  -1.2500 Du        
   1323 ****        22.7500  11.5000  -1.0000 Du        
   1324 ****        22.7500  11.5000  -0.7500 Du        
   1325 ****        22.7500  11.5000  -0.5000 Du        
   1326 ****        22.7500  11.5000  -0.2500 Du        
   1327 ****        22.7500  11.5000   0.0000 Du        
   1328 ****        22.7500  11.5000   0.2500 Du        
   1329 ****        22.7500  11.7500  -2.5000 Du        
   1330 ****        22.7500  11.7500  -2.2500 Du        
   1331 ****        22.7500  11.7500  -2.0000 Du        
   1332 ****        22.7500  11.7500  -1.7500 Du        
   1333 ****        22.7500  11.7500  -1.5000 Du        
   1334 ****        22.7500  11.7500  -1.2500 Du        
   1335 ****        22.7500  11.7500  -1.0000 Du        
   1336 ****        22.7500  11.7500  -0.7500 Du        
   1337 ****        22.7500  11.7500  -0.5000 Du        
   1338 ****        22.7500  11.7500  -0.2500 Du        
   1339 ****        22.7500  11.7500   0.0000 Du        
   1340 ****        22.7500  11.7500   0.2500 Du        
   1341 ****        22.7500  12.0000  -2.2500 Du        
   1342 ****        22.7500  12.0000  -2.0000 Du        
   1343 ****        22.7500  12.0000  -1.7500 Du        
   1344 ****        22.7500  12.0000  -1.5000 Du        
   1345 ****        22.7500  12.0000  -1.2500 Du        
   1346 ****        22.7500  12.0000  -1.0000 Du        
   1347 ****        22.7500  12.0000  -0.7500 Du        
   1348 ****        22.7500  12.0000  -0.5000 Du        
   1349 ****        22.7500  12.0000  -0.2500 Du        
   1350 ****        22.7500  12.0000   0.0000 Du        
   1351 ****        22.7500  12.0000   0.2500 Du        
   1352 ****        22.7500  12.2500  -2.2500 Du        
   1353 ****        22.7500  12.2500  -2.0000 Du        
   1354 ****        22.7500  12.2500  -1.7500 Du        
   1355 ****        22.7500  12.2500  -1.5000 Du        
   1356 ****        22.7500  12.2500  -1.2500 Du        
   1357 ****        22.7500  12.2500  -1.0000 Du        
   1358 ****        22.7500  12.2500  -0.7500 Du        
   1359 ****        22.7500  12.2500  -0.5000 Du        
   1360 ****        22.7500  12.2500  -0.2500 Du        
   1361 ****        22.7500  12.2500   0.0000 Du        
   1362 ****        22.7500  12.2500   0.2500 Du        
   1363 ****        22.7500  12.5000  -2.2500 Du        
   1364 ****        22.7500  12.5000  -2.0000 Du        
   1365 ****        22.7500  12.5000  -1.7500 Du        
   1366 ****        22.7500  12.5000  -1.5000 Du        
   1367 ****        22.7500  12.5000  -1.2500 Du        
   1368 ****        22.7500  12.5000  -1.0000 Du        
   1369 ****        22.7500  12.5000  -0.7500 Du        
   1370 ****        22.7500  12.5000  -0.5000 Du        
   1371 ****        22.7500  12.5000  -0.2500 Du        
   1372 ****        22.7500  12.5000   0.0000 Du        
   1373 ****        22.7500  12.5000   0.2500 Du        
   1374 ****        22.7500  12.7500  -2.0000 Du        
   1375 ****        22.7500  12.7500  -1.7500 Du        
   1376 ****        22.7500  12.7500  -1.5000 Du        
   1377 ****        22.7500  12.7500  -1.2500 Du        
   1378 ****        22.7500  12.7500  -1.0000 Du        
   1379 ****        22.7500  12.7500  -0.7500 Du        
   1380 ****        22.7500  12.7500  -0.5000 Du        
   1381 ****        22.7500  12.7500  -0.2500 Du        
   1382 ****        22.7500  12.7500   0.0000 Du        
   1383 ****        22.7500  12.7500   0.2500 Du        
   1384 ****        22.7500  13.0000  -2.0000 Du        
   1385 ****        22.7500  13.0000  -1.7500 Du        
   1386 ****        22.7500  13.0000  -1.5000 Du        
   1387 ****        22.7500  13.0000  -1.2500 Du        
   1388 ****        22.7500  13.0000  -1.0000 Du        
   1389 ****        22.7500  13.0000  -0.7500 Du        
   1390 ****        22.7500  13.0000  -0.5000 Du        
   1391 ****        22.7500  13.0000  -0.2500 Du        
   1392 ****        22.7500  13.0000   0.0000 Du        
   1393 ****        22.7500  13.0000   0.2500 Du        
   1394 ****        22.7500  13.2500  -1.5000 Du        
   1395 ****        22.7500  13.2500  -1.2500 Du        
   1396 ****        22.7500  13.2500  -1.0000 Du        
   1397 ****        22.7500  13.2500  -0.7500 Du        
   1398 ****        22.7500  13.2500  -0.5000 Du        
   1399 ****        22.7500  13.2500  -0.2500 Du        
   1400 ****        22.7500  13.2500   0.0000 Du        
   1401 ****        22.7500  13.2500   0.2500 Du        
   1402 ****        22.7500  13.5000   0.0000 Du        
   1403 ****        22.7500  13.5000   0.2500 Du        
   1404 ****        23.0000   7.0000 -10.0000 Du        
   1405 ****        23.0000   7.0000  -2.7500 Du        
   1406 ****        23.0000   7.2500 -10.0000 Du        
   1407 ****        23.0000   7.2500  -3.0000 Du        
   1408 ****        23.0000   7.2500  -2.7500 Du        
   1409 ****        23.0000   7.7500  -3.2500 Du        
   1410 ****        23.0000   8.0000  -3.2500 Du        
   1411 ****        23.0000   9.0000  -5.5000 Du        
   1412 ****        23.0000   9.0000  -5.2500 Du        
   1413 ****        23.0000  10.7500  -2.7500 Du        
   1414 ****        23.0000  10.7500  -2.5000 Du        
   1415 ****        23.0000  10.7500  -2.2500 Du        
   1416 ****        23.0000  10.7500  -2.0000 Du        
   1417 ****        23.0000  10.7500  -1.7500 Du        
   1418 ****        23.0000  10.7500  -1.5000 Du        
   1419 ****        23.0000  10.7500  -1.2500 Du        
   1420 ****        23.0000  10.7500  -1.0000 Du        
   1421 ****        23.0000  10.7500  -0.7500 Du        
   1422 ****        23.0000  10.7500  -0.5000 Du        
   1423 ****        23.0000  10.7500  -0.2500 Du        
   1424 ****        23.0000  11.0000  -3.0000 Du        
   1425 ****        23.0000  11.0000  -2.7500 Du        
   1426 ****        23.0000  11.0000  -2.5000 Du        
   1427 ****        23.0000  11.0000  -2.2500 Du        
   1428 ****        23.0000  11.0000  -2.0000 Du        
   1429 ****        23.0000  11.0000  -1.7500 Du        
   1430 ****        23.0000  11.0000  -1.5000 Du        
   1431 ****        23.0000  11.0000  -1.2500 Du        
   1432 ****        23.0000  11.0000  -1.0000 Du        
   1433 ****        23.0000  11.0000  -0.7500 Du        
   1434 ****        23.0000  11.0000  -0.5000 Du        
   1435 ****        23.0000  11.0000  -0.2500 Du        
   1436 ****        23.0000  11.0000   0.0000 Du        
   1437 ****        23.0000  11.0000   0.2500 Du        
   1438 ****        23.0000  11.2500  -2.7500 Du        
   1439 ****        23.0000  11.2500  -2.5000 Du        
   1440 ****        23.0000  11.2500  -2.2500 Du        
   1441 ****        23.0000  11.2500  -2.0000 Du        
   1442 ****        23.0000  11.2500  -1.7500 Du        
   1443 ****        23.0000  11.2500  -1.5000 Du        
   1444 ****        23.0000  11.2500  -1.2500 Du        
   1445 ****        23.0000  11.2500  -1.0000 Du        
   1446 ****        23.0000  11.2500  -0.7500 Du        
   1447 ****        23.0000  11.2500  -0.5000 Du        
   1448 ****        23.0000  11.2500  -0.2500 Du        
   1449 ****        23.0000  11.2500   0.0000 Du        
   1450 ****        23.0000  11.2500   0.2500 Du        
   1451 ****        23.0000  11.5000  -2.7500 Du        
   1452 ****        23.0000  11.5000  -2.5000 Du        
   1453 ****        23.0000  11.5000  -2.2500 Du        
   1454 ****        23.0000  11.5000  -2.0000 Du        
   1455 ****        23.0000  11.5000  -1.7500 Du        
   1456 ****        23.0000  11.5000  -1.5000 Du        
   1457 ****        23.0000  11.5000  -1.2500 Du        
   1458 ****        23.0000  11.5000  -1.0000 Du        
   1459 ****        23.0000  11.5000  -0.7500 Du        
   1460 ****        23.0000  11.5000  -0.5000 Du        
   1461 ****        23.0000  11.5000  -0.2500 Du        
   1462 ****        23.0000  11.5000   0.0000 Du        
   1463 ****        23.0000  11.5000   0.2500 Du        
   1464 ****        23.0000  11.7500  -2.7500 Du        
   1465 ****        23.0000  11.7500  -2.5000 Du        
   1466 ****        23.0000  11.7500  -2.2500 Du        
   1467 ****        23.0000  11.7500  -2.0000 Du        
   1468 ****        23.0000  11.7500  -1.7500 Du        
   1469 ****        23.0000  11.7500  -1.5000 Du        
   1470 ****        23.0000  11.7500  -1.2500 Du        
   1471 ****        23.0000  11.7500  -1.0000 Du        
   1472 ****        23.0000  11.7500  -0.7500 Du        
   1473 ****        23.0000  11.7500  -0.5000 Du        
   1474 ****        23.0000  11.7500  -0.2500 Du        
   1475 ****        23.0000  11.7500   0.0000 Du        
   1476 ****        23.0000  11.7500   0.2500 Du        
   1477 ****        23.0000  12.0000  -2.5000 Du        
   1478 ****        23.0000  12.0000  -2.2500 Du        
   1479 ****        23.0000  12.0000  -2.0000 Du        
   1480 ****        23.0000  12.0000  -1.7500 Du        
   1481 ****        23.0000  12.0000  -1.5000 Du        
   1482 ****        23.0000  12.0000  -1.2500 Du        
   1483 ****        23.0000  12.0000  -1.0000 Du        
   1484 ****        23.0000  12.0000  -0.7500 Du        
   1485 ****        23.0000  12.0000  -0.5000 Du        
   1486 ****        23.0000  12.0000  -0.2500 Du        
   1487 ****        23.0000  12.0000   0.0000 Du        
   1488 ****        23.0000  12.0000   0.2500 Du        
   1489 ****        23.0000  12.2500  -2.5000 Du        
   1490 ****        23.0000  12.2500  -2.2500 Du        
   1491 ****        23.0000  12.2500  -2.0000 Du        
   1492 ****        23.0000  12.2500  -1.7500 Du        
   1493 ****        23.0000  12.2500  -1.5000 Du        
   1494 ****        23.0000  12.2500  -1.2500 Du        
   1495 ****        23.0000  12.2500  -1.0000 Du        
   1496 ****        23.0000  12.2500  -0.7500 Du        
   1497 ****        23.0000  12.2500  -0.5000 Du        
   1498 ****        23.0000  12.2500  -0.2500 Du        
   1499 ****        23.0000  12.2500   0.0000 Du        
   1500 ****        23.0000  12.5000  -2.2500 Du        
   1501 ****        23.0000  12.5000  -2.0000 Du        
   1502 ****        23.0000  12.5000  -1.7500 Du        
   1503 ****        23.0000  12.5000  -1.5000 Du        
   1504 ****        23.0000  12.5000  -1.2500 Du        
   1505 ****        23.0000  12.5000  -1.0000 Du        
   1506 ****        23.0000  12.5000  -0.7500 Du        
   1507 ****        23.0000  12.5000  -0.5000 Du        
   1508 ****        23.0000  12.5000  -0.2500 Du        
   1509 ****        23.0000  12.5000   0.0000 Du        
   1510 ****        23.0000  12.7500  -2.2500 Du        
   1511 ****        23.0000  12.7500  -2.0000 Du        
   1512 ****        23.0000  12.7500  -1.7500 Du        
   1513 ****        23.0000  12.7500  -1.5000 Du        
   1514 ****        23.0000  12.7500  -1.2500 Du        
   1515 ****        23.0000  12.7500  -1.0000 Du        
   1516 ****        23.0000  12.7500  -0.7500 Du        
   1517 ****        23.0000  12.7500  -0.5000 Du        
   1518 ****        23.0000  12.7500  -0.2500 Du        
   1519 ****        23.0000  12.7500   0.0000 Du        
   1520 ****        23.0000  13.0000  -2.0000 Du        
   1521 ****        23.0000  13.0000  -1.7500 Du        
   1522 ****        23.0000  13.0000  -1.5000 Du        
   1523 ****        23.0000  13.0000  -1.2500 Du        
   1524 ****        23.0000  13.0000  -1.0000 Du        
   1525 ****        23.0000  13.0000  -0.7500 Du        
   1526 ****        23.0000  13.0000  -0.5000 Du        
   1527 ****        23.0000  13.0000  -0.2500 Du        
   1528 ****        23.0000  13.0000   0.0000 Du        
   1529 ****        23.0000  13.2500  -1.7500 Du        
   1530 ****        23.0000  13.2500  -1.5000 Du        
   1531 ****        23.0000  13.2500  -1.2500 Du        
   1532 ****        23.0000  13.2500  -1.0000 Du        
   1533 ****        23.0000  13.2500  -0.7500 Du        
   1534 ****        23.0000  13.2500  -0.5000 Du        
   1535 ****        23.0000  13.2500  -0.2500 Du        
   1536 ****        23.0000  13.2500   0.0000 Du        
   1537 ****        23.0000  13.5000  -0.7500 Du        
   1538 ****        23.0000  13.5000  -0.5000 Du        
   1539 ****        23.0000  13.5000  -0.2500 Du        
   1540 ****        23.0000  13.5000   0.0000 Du        
   1541 ****        23.0000  13.5000   0.2500 Du        
   1542 ****        23.2500   7.2500 -10.0000 Du        
   1543 ****        23.2500   7.2500  -3.2500 Du        
   1544 ****        23.2500   7.2500  -3.0000 Du        
   1545 ****        23.2500   7.2500  -2.7500 Du        
   1546 ****        23.2500   7.7500  -3.5000 Du        
   1547 ****        23.2500   8.0000  -3.2500 Du        
   1548 ****        23.2500  10.7500  -3.2500 Du        
   1549 ****        23.2500  10.7500  -3.0000 Du        
   1550 ****        23.2500  10.7500  -2.7500 Du        
   1551 ****        23.2500  10.7500  -2.5000 Du        
   1552 ****        23.2500  10.7500  -2.2500 Du        
   1553 ****        23.2500  10.7500  -2.0000 Du        
   1554 ****        23.2500  10.7500  -1.7500 Du        
   1555 ****        23.2500  10.7500  -1.5000 Du        
   1556 ****        23.2500  10.7500  -1.2500 Du        
   1557 ****        23.2500  10.7500  -1.0000 Du        
   1558 ****        23.2500  10.7500  -0.7500 Du        
   1559 ****        23.2500  10.7500  -0.5000 Du        
   1560 ****        23.2500  10.7500  -0.2500 Du        
   1561 ****        23.2500  11.0000  -3.2500 Du        
   1562 ****        23.2500  11.0000  -3.0000 Du        
   1563 ****        23.2500  11.0000  -2.7500 Du        
   1564 ****        23.2500  11.0000  -2.5000 Du        
   1565 ****        23.2500  11.0000  -2.2500 Du        
   1566 ****        23.2500  11.0000  -2.0000 Du        
   1567 ****        23.2500  11.0000  -1.7500 Du        
   1568 ****        23.2500  11.0000  -1.5000 Du        
   1569 ****        23.2500  11.0000  -1.2500 Du        
   1570 ****        23.2500  11.0000  -1.0000 Du        
   1571 ****        23.2500  11.0000  -0.7500 Du        
   1572 ****        23.2500  11.0000  -0.5000 Du        
   1573 ****        23.2500  11.0000  -0.2500 Du        
   1574 ****        23.2500  11.0000   0.0000 Du        
   1575 ****        23.2500  11.2500  -3.0000 Du        
   1576 ****        23.2500  11.2500  -2.7500 Du        
   1577 ****        23.2500  11.2500  -2.5000 Du        
   1578 ****        23.2500  11.2500  -2.2500 Du        
   1579 ****        23.2500  11.2500  -2.0000 Du        
   1580 ****        23.2500  11.2500  -1.7500 Du        
   1581 ****        23.2500  11.2500  -1.5000 Du        
   1582 ****        23.2500  11.2500  -1.2500 Du        
   1583 ****        23.2500  11.2500  -1.0000 Du        
   1584 ****        23.2500  11.2500  -0.7500 Du        
   1585 ****        23.2500  11.2500  -0.5000 Du        
   1586 ****        23.2500  11.2500  -0.2500 Du        
   1587 ****        23.2500  11.2500   0.0000 Du        
   1588 ****        23.2500  11.5000  -3.0000 Du        
   1589 ****        23.2500  11.5000  -2.7500 Du        
   1590 ****        23.2500  11.5000  -2.5000 Du        
   1591 ****        23.2500  11.5000  -2.2500 Du        
   1592 ****        23.2500  11.5000  -2.0000 Du        
   1593 ****        23.2500  11.5000  -1.7500 Du        
   1594 ****        23.2500  11.5000  -1.5000 Du        
   1595 ****        23.2500  11.5000  -1.2500 Du        
   1596 ****        23.2500  11.5000  -1.0000 Du        
   1597 ****        23.2500  11.5000  -0.7500 Du        
   1598 ****        23.2500  11.5000  -0.5000 Du        
   1599 ****        23.2500  11.5000  -0.2500 Du        
   1600 ****        23.2500  11.5000   0.0000 Du        
   1601 ****        23.2500  11.7500  -3.0000 Du        
   1602 ****        23.2500  11.7500  -2.7500 Du        
   1603 ****        23.2500  11.7500  -2.5000 Du        
   1604 ****        23.2500  11.7500  -2.2500 Du        
   1605 ****        23.2500  11.7500  -2.0000 Du        
   1606 ****        23.2500  11.7500  -1.7500 Du        
   1607 ****        23.2500  11.7500  -1.5000 Du        
   1608 ****        23.2500  11.7500  -1.2500 Du        
   1609 ****        23.2500  11.7500  -1.0000 Du        
   1610 ****        23.2500  11.7500  -0.7500 Du        
   1611 ****        23.2500  11.7500  -0.5000 Du        
   1612 ****        23.2500  11.7500  -0.2500 Du        
   1613 ****        23.2500  11.7500   0.0000 Du        
   1614 ****        23.2500  12.0000  -2.7500 Du        
   1615 ****        23.2500  12.0000  -2.5000 Du        
   1616 ****        23.2500  12.0000  -2.2500 Du        
   1617 ****        23.2500  12.0000  -2.0000 Du        
   1618 ****        23.2500  12.0000  -1.7500 Du        
   1619 ****        23.2500  12.0000  -1.5000 Du        
   1620 ****        23.2500  12.0000  -1.2500 Du        
   1621 ****        23.2500  12.0000  -1.0000 Du        
   1622 ****        23.2500  12.0000  -0.7500 Du        
   1623 ****        23.2500  12.0000  -0.5000 Du        
   1624 ****        23.2500  12.0000  -0.2500 Du        
   1625 ****        23.2500  12.0000   0.0000 Du        
   1626 ****        23.2500  12.2500  -2.5000 Du        
   1627 ****        23.2500  12.2500  -2.2500 Du        
   1628 ****        23.2500  12.2500  -2.0000 Du        
   1629 ****        23.2500  12.2500  -1.7500 Du        
   1630 ****        23.2500  12.2500  -1.5000 Du        
   1631 ****        23.2500  12.2500  -1.2500 Du        
   1632 ****        23.2500  12.2500  -1.0000 Du        
   1633 ****        23.2500  12.2500  -0.7500 Du        
   1634 ****        23.2500  12.2500  -0.5000 Du        
   1635 ****        23.2500  12.2500  -0.2500 Du        
   1636 ****        23.2500  12.2500   0.0000 Du        
   1637 ****        23.2500  12.5000  -2.5000 Du        
   1638 ****        23.2500  12.5000  -2.2500 Du        
   1639 ****        23.2500  12.5000  -2.0000 Du        
   1640 ****        23.2500  12.5000  -1.7500 Du        
   1641 ****        23.2500  12.5000  -1.5000 Du        
   1642 ****        23.2500  12.5000  -1.2500 Du        
   1643 ****        23.2500  12.5000  -1.0000 Du        
   1644 ****        23.2500  12.5000  -0.7500 Du        
   1645 ****        23.2500  12.5000  -0.5000 Du        
   1646 ****        23.2500  12.5000  -0.2500 Du        
   1647 ****        23.2500  12.5000   0.0000 Du        
   1648 ****        23.2500  12.7500  -2.2500 Du        
   1649 ****        23.2500  12.7500  -2.0000 Du        
   1650 ****        23.2500  12.7500  -1.7500 Du        
   1651 ****        23.2500  12.7500  -1.5000 Du        
   1652 ****        23.2500  12.7500  -1.2500 Du        
   1653 ****        23.2500  12.7500  -1.0000 Du        
   1654 ****        23.2500  12.7500  -0.7500 Du        
   1655 ****        23.2500  12.7500  -0.5000 Du        
   1656 ****        23.2500  12.7500  -0.2500 Du        
   1657 ****        23.2500  12.7500   0.0000 Du        
   1658 ****        23.2500  13.0000  -2.0000 Du        
   1659 ****        23.2500  13.0000  -1.7500 Du        
   1660 ****        23.2500  13.0000  -1.5000 Du        
   1661 ****        23.2500  13.0000  -1.2500 Du        
   1662 ****        23.2500  13.0000  -1.0000 Du        
   1663 ****        23.2500  13.0000  -0.7500 Du        
   1664 ****        23.2500  13.0000  -0.5000 Du        
   1665 ****        23.2500  13.0000  -0.2500 Du        
   1666 ****        23.2500  13.0000   0.0000 Du        
   1667 ****        23.2500  13.2500  -1.7500 Du        
   1668 ****        23.2500  13.2500  -1.5000 Du        
   1669 ****        23.2500  13.2500  -1.2500 Du        
   1670 ****        23.2500  13.2500  -1.0000 Du        
   1671 ****        23.2500  13.2500  -0.7500 Du        
   1672 ****        23.2500  13.2500  -0.5000 Du        
   1673 ****        23.2500  13.2500  -0.2500 Du        
   1674 ****        23.2500  13.2500   0.0000 Du        
   1675 ****        23.2500  13.5000  -1.0000 Du        
   1676 ****        23.2500  13.5000  -0.7500 Du        
   1677 ****        23.2500  13.5000  -0.5000 Du        
   1678 ****        23.2500  13.5000  -0.2500 Du        
   1679 ****        23.2500  13.5000   0.0000 Du        
   1680 ****        23.5000   7.0000 -10.5000 Du        
   1681 ****        23.5000   7.0000 -10.2500 Du        
   1682 ****        23.5000   7.2500 -10.5000 Du        
   1683 ****        23.5000   7.2500 -10.2500 Du        
   1684 ****        23.5000   7.2500  -3.2500 Du        
   1685 ****        23.5000   7.2500  -3.0000 Du        
   1686 ****        23.5000   7.5000 -10.5000 Du        
   1687 ****        23.5000   7.5000 -10.2500 Du        
   1688 ****        23.5000   7.5000  -3.5000 Du        
   1689 ****        23.5000   7.5000  -3.2500 Du        
   1690 ****        23.5000   7.5000  -3.0000 Du        
   1691 ****        23.5000   7.7500 -10.5000 Du        
   1692 ****        23.5000   7.7500 -10.2500 Du        
   1693 ****        23.5000   7.7500  -3.5000 Du        
   1694 ****        23.5000   7.7500  -3.2500 Du        
   1695 ****        23.5000   8.0000  -3.2500 Du        
   1696 ****        23.5000  10.5000  -1.0000 Du        
   1697 ****        23.5000  10.7500  -3.2500 Du        
   1698 ****        23.5000  10.7500  -3.0000 Du        
   1699 ****        23.5000  10.7500  -2.7500 Du        
   1700 ****        23.5000  10.7500  -2.5000 Du        
   1701 ****        23.5000  10.7500  -2.2500 Du        
   1702 ****        23.5000  10.7500  -2.0000 Du        
   1703 ****        23.5000  10.7500  -1.7500 Du        
   1704 ****        23.5000  10.7500  -1.5000 Du        
   1705 ****        23.5000  10.7500  -1.2500 Du        
   1706 ****        23.5000  10.7500  -1.0000 Du        
   1707 ****        23.5000  10.7500  -0.7500 Du        
   1708 ****        23.5000  11.0000  -3.2500 Du        
   1709 ****        23.5000  11.0000  -3.0000 Du        
   1710 ****        23.5000  11.0000  -2.7500 Du        
   1711 ****        23.5000  11.0000  -2.5000 Du        
   1712 ****        23.5000  11.0000  -2.2500 Du        
   1713 ****        23.5000  11.0000  -2.0000 Du        
   1714 ****        23.5000  11.0000  -1.7500 Du        
   1715 ****        23.5000  11.0000  -1.5000 Du        
   1716 ****        23.5000  11.0000  -1.2500 Du        
   1717 ****        23.5000  11.0000  -1.0000 Du        
   1718 ****        23.5000  11.0000  -0.7500 Du        
   1719 ****        23.5000  11.0000  -0.5000 Du        
   1720 ****        23.5000  11.0000  -0.2500 Du        
   1721 ****        23.5000  11.0000   0.0000 Du        
   1722 ****        23.5000  11.2500  -3.0000 Du        
   1723 ****        23.5000  11.2500  -2.7500 Du        
   1724 ****        23.5000  11.2500  -2.5000 Du        
   1725 ****        23.5000  11.2500  -2.2500 Du        
   1726 ****        23.5000  11.2500  -2.0000 Du        
   1727 ****        23.5000  11.2500  -1.7500 Du        
   1728 ****        23.5000  11.2500  -1.5000 Du        
   1729 ****        23.5000  11.2500  -1.2500 Du        
   1730 ****        23.5000  11.2500  -1.0000 Du        
   1731 ****        23.5000  11.2500  -0.7500 Du        
   1732 ****        23.5000  11.2500  -0.5000 Du        
   1733 ****        23.5000  11.2500  -0.2500 Du        
   1734 ****        23.5000  11.2500   0.0000 Du        
   1735 ****        23.5000  11.5000  -3.0000 Du        
   1736 ****        23.5000  11.5000  -2.7500 Du        
   1737 ****        23.5000  11.5000  -2.5000 Du        
   1738 ****        23.5000  11.5000  -2.2500 Du        
   1739 ****        23.5000  11.5000  -2.0000 Du        
   1740 ****        23.5000  11.5000  -1.7500 Du        
   1741 ****        23.5000  11.5000  -1.5000 Du        
   1742 ****        23.5000  11.5000  -1.2500 Du        
   1743 ****        23.5000  11.5000  -1.0000 Du        
   1744 ****        23.5000  11.5000  -0.7500 Du        
   1745 ****        23.5000  11.5000  -0.5000 Du        
   1746 ****        23.5000  11.5000  -0.2500 Du        
   1747 ****        23.5000  11.5000   0.0000 Du        
   1748 ****        23.5000  11.7500  -3.0000 Du        
   1749 ****        23.5000  11.7500  -2.7500 Du        
   1750 ****        23.5000  11.7500  -2.5000 Du        
   1751 ****        23.5000  11.7500  -2.2500 Du        
   1752 ****        23.5000  11.7500  -2.0000 Du        
   1753 ****        23.5000  11.7500  -1.7500 Du        
   1754 ****        23.5000  11.7500  -1.5000 Du        
   1755 ****        23.5000  11.7500  -1.2500 Du        
   1756 ****        23.5000  11.7500  -1.0000 Du        
   1757 ****        23.5000  11.7500  -0.7500 Du        
   1758 ****        23.5000  11.7500  -0.5000 Du        
   1759 ****        23.5000  11.7500  -0.2500 Du        
   1760 ****        23.5000  12.0000  -2.7500 Du        
   1761 ****        23.5000  12.0000  -2.5000 Du        
   1762 ****        23.5000  12.0000  -2.2500 Du        
   1763 ****        23.5000  12.0000  -2.0000 Du        
   1764 ****        23.5000  12.0000  -1.7500 Du        
   1765 ****        23.5000  12.0000  -1.5000 Du        
   1766 ****        23.5000  12.0000  -1.2500 Du        
   1767 ****        23.5000  12.0000  -1.0000 Du        
   1768 ****        23.5000  12.0000  -0.7500 Du        
   1769 ****        23.5000  12.0000  -0.5000 Du        
   1770 ****        23.5000  12.0000  -0.2500 Du        
   1771 ****        23.5000  12.2500  -2.7500 Du        
   1772 ****        23.5000  12.2500  -2.5000 Du        
   1773 ****        23.5000  12.2500  -2.2500 Du        
   1774 ****        23.5000  12.2500  -2.0000 Du        
   1775 ****        23.5000  12.2500  -1.7500 Du        
   1776 ****        23.5000  12.2500  -1.5000 Du        
   1777 ****        23.5000  12.2500  -1.2500 Du        
   1778 ****        23.5000  12.2500  -1.0000 Du        
   1779 ****        23.5000  12.2500  -0.7500 Du        
   1780 ****        23.5000  12.2500  -0.5000 Du        
   1781 ****        23.5000  12.2500  -0.2500 Du        
   1782 ****        23.5000  12.5000  -2.5000 Du        
   1783 ****        23.5000  12.5000  -2.2500 Du        
   1784 ****        23.5000  12.5000  -2.0000 Du        
   1785 ****        23.5000  12.5000  -1.7500 Du        
   1786 ****        23.5000  12.5000  -1.5000 Du        
   1787 ****        23.5000  12.5000  -1.2500 Du        
   1788 ****        23.5000  12.5000  -1.0000 Du        
   1789 ****        23.5000  12.5000  -0.7500 Du        
   1790 ****        23.5000  12.5000  -0.5000 Du        
   1791 ****        23.5000  12.5000  -0.2500 Du        
   1792 ****        23.5000  12.7500  -2.2500 Du        
   1793 ****        23.5000  12.7500  -2.0000 Du        
   1794 ****        23.5000  12.7500  -1.7500 Du        
   1795 ****        23.5000  12.7500  -1.5000 Du        
   1796 ****        23.5000  12.7500  -1.2500 Du        
   1797 ****        23.5000  12.7500  -1.0000 Du        
   1798 ****        23.5000  12.7500  -0.7500 Du        
   1799 ****        23.5000  12.7500  -0.5000 Du        
   1800 ****        23.5000  12.7500  -0.2500 Du        
   1801 ****        23.5000  13.0000  -1.2500 Du        
   1802 ****        23.5000  13.0000  -1.0000 Du        
   1803 ****        23.5000  13.0000  -0.7500 Du        
   1804 ****        23.5000  13.0000  -0.5000 Du        
   1805 ****        23.5000  13.0000  -0.2500 Du        
   1806 ****        23.5000  13.2500  -0.7500 Du        
   1807 ****        23.5000  13.2500  -0.5000 Du        
   1808 ****        23.5000  13.2500  -0.2500 Du        
   1809 ****        23.5000  13.5000  -0.5000 Du        
   1810 ****        23.5000  13.5000  -0.2500 Du        
   1811 ****        23.7500   7.0000 -10.5000 Du        
   1812 ****        23.7500   7.2500 -10.5000 Du        
   1813 ****        23.7500   7.2500 -10.2500 Du        
   1814 ****        23.7500   7.2500  -3.0000 Du        
   1815 ****        23.7500   7.5000 -10.5000 Du        
   1816 ****        23.7500   7.5000 -10.2500 Du        
   1817 ****        23.7500   7.5000  -3.5000 Du        
   1818 ****        23.7500   7.5000  -3.2500 Du        
   1819 ****        23.7500   7.5000  -3.0000 Du        
   1820 ****        23.7500   7.7500 -10.5000 Du        
   1821 ****        23.7500   7.7500 -10.2500 Du        
   1822 ****        23.7500   7.7500  -3.5000 Du        
   1823 ****        23.7500   7.7500  -3.2500 Du        
   1824 ****        23.7500   7.7500  -3.0000 Du        
   1825 ****        23.7500   7.7500  -2.7500 Du        
   1826 ****        23.7500   8.0000  -3.2500 Du        
   1827 ****        23.7500  10.5000  -3.0000 Du        
   1828 ****        23.7500  10.5000  -2.5000 Du        
   1829 ****        23.7500  10.5000  -2.0000 Du        
   1830 ****        23.7500  10.5000  -1.5000 Du        
   1831 ****        23.7500  10.5000  -1.0000 Du        
   1832 ****        23.7500  10.5000  -0.7500 Du        
   1833 ****        23.7500  10.7500  -3.2500 Du        
   1834 ****        23.7500  10.7500  -3.0000 Du        
   1835 ****        23.7500  10.7500  -2.7500 Du        
   1836 ****        23.7500  10.7500  -2.5000 Du        
   1837 ****        23.7500  10.7500  -2.2500 Du        
   1838 ****        23.7500  10.7500  -2.0000 Du        
   1839 ****        23.7500  10.7500  -1.7500 Du        
   1840 ****        23.7500  10.7500  -1.5000 Du        
   1841 ****        23.7500  10.7500  -1.2500 Du        
   1842 ****        23.7500  10.7500  -1.0000 Du        
   1843 ****        23.7500  10.7500  -0.7500 Du        
   1844 ****        23.7500  10.7500  -0.5000 Du        
   1845 ****        23.7500  10.7500  -0.2500 Du        
   1846 ****        23.7500  11.0000  -3.2500 Du        
   1847 ****        23.7500  11.0000  -3.0000 Du        
   1848 ****        23.7500  11.0000  -2.7500 Du        
   1849 ****        23.7500  11.0000  -2.5000 Du        
   1850 ****        23.7500  11.0000  -2.2500 Du        
   1851 ****        23.7500  11.0000  -2.0000 Du        
   1852 ****        23.7500  11.0000  -1.7500 Du        
   1853 ****        23.7500  11.0000  -1.5000 Du        
   1854 ****        23.7500  11.0000  -1.2500 Du        
   1855 ****        23.7500  11.0000  -1.0000 Du        
   1856 ****        23.7500  11.0000  -0.7500 Du        
   1857 ****        23.7500  11.0000  -0.5000 Du        
   1858 ****        23.7500  11.0000  -0.2500 Du        
   1859 ****        23.7500  11.0000   0.0000 Du        
   1860 ****        23.7500  11.2500  -3.0000 Du        
   1861 ****        23.7500  11.2500  -2.7500 Du        
   1862 ****        23.7500  11.2500  -2.5000 Du        
   1863 ****        23.7500  11.2500  -2.2500 Du        
   1864 ****        23.7500  11.2500  -2.0000 Du        
   1865 ****        23.7500  11.2500  -1.7500 Du        
   1866 ****        23.7500  11.2500  -1.5000 Du        
   1867 ****        23.7500  11.2500  -1.2500 Du        
   1868 ****        23.7500  11.2500  -1.0000 Du        
   1869 ****        23.7500  11.2500  -0.7500 Du        
   1870 ****        23.7500  11.2500  -0.5000 Du        
   1871 ****        23.7500  11.2500  -0.2500 Du        
   1872 ****        23.7500  11.5000  -3.0000 Du        
   1873 ****        23.7500  11.5000  -2.7500 Du        
   1874 ****        23.7500  11.5000  -2.5000 Du        
   1875 ****        23.7500  11.5000  -2.2500 Du        
   1876 ****        23.7500  11.5000  -2.0000 Du        
   1877 ****        23.7500  11.5000  -1.7500 Du        
   1878 ****        23.7500  11.5000  -1.5000 Du        
   1879 ****        23.7500  11.5000  -1.2500 Du        
   1880 ****        23.7500  11.5000  -1.0000 Du        
   1881 ****        23.7500  11.5000  -0.7500 Du        
   1882 ****        23.7500  11.5000  -0.5000 Du        
   1883 ****        23.7500  11.5000  -0.2500 Du        
   1884 ****        23.7500  11.7500  -3.0000 Du        
   1885 ****        23.7500  11.7500  -2.7500 Du        
   1886 ****        23.7500  11.7500  -2.5000 Du        
   1887 ****        23.7500  11.7500  -2.2500 Du        
   1888 ****        23.7500  11.7500  -2.0000 Du        
   1889 ****        23.7500  11.7500  -1.7500 Du        
   1890 ****        23.7500  11.7500  -1.5000 Du        
   1891 ****        23.7500  11.7500  -1.2500 Du        
   1892 ****        23.7500  11.7500  -1.0000 Du        
   1893 ****        23.7500  11.7500  -0.7500 Du        
   1894 ****        23.7500  11.7500  -0.5000 Du        
   1895 ****        23.7500  11.7500  -0.2500 Du        
   1896 ****        23.7500  12.0000  -3.0000 Du        
   1897 ****        23.7500  12.0000  -2.7500 Du        
   1898 ****        23.7500  12.0000  -2.5000 Du        
   1899 ****        23.7500  12.0000  -2.2500 Du        
   1900 ****        23.7500  12.0000  -2.0000 Du        
   1901 ****        23.7500  12.0000  -1.7500 Du        
   1902 ****        23.7500  12.0000  -1.5000 Du        
   1903 ****        23.7500  12.0000  -1.2500 Du        
   1904 ****        23.7500  12.0000  -1.0000 Du        
   1905 ****        23.7500  12.0000  -0.7500 Du        
   1906 ****        23.7500  12.0000  -0.5000 Du        
   1907 ****        23.7500  12.0000  -0.2500 Du        
   1908 ****        23.7500  12.2500  -2.7500 Du        
   1909 ****        23.7500  12.2500  -1.0000 Du        
   1910 ****        23.7500  12.2500  -0.7500 Du        
   1911 ****        23.7500  12.2500  -0.5000 Du        
   1912 ****        23.7500  12.5000  -0.5000 Du        
   1913 ****        24.0000   7.2500 -10.7500 Du        
   1914 ****        24.0000   7.2500 -10.5000 Du        
   1915 ****        24.0000   7.5000 -10.7500 Du        
   1916 ****        24.0000   7.5000 -10.5000 Du        
   1917 ****        24.0000   7.5000 -10.2500 Du        
   1918 ****        24.0000   7.5000  -3.2500 Du        
   1919 ****        24.0000   7.5000  -3.0000 Du        
   1920 ****        24.0000   7.7500 -10.7500 Du        
   1921 ****        24.0000   7.7500 -10.5000 Du        
   1922 ****        24.0000   7.7500 -10.2500 Du        
   1923 ****        24.0000   7.7500 -10.0000 Du        
   1924 ****        24.0000   7.7500  -3.5000 Du        
   1925 ****        24.0000   7.7500  -3.2500 Du        
   1926 ****        24.0000   7.7500  -3.0000 Du        
   1927 ****        24.0000   7.7500  -2.7500 Du        
   1928 ****        24.0000   8.0000 -10.5000 Du        
   1929 ****        24.0000   8.0000 -10.2500 Du        
   1930 ****        24.0000   8.0000  -3.2500 Du        
   1931 ****        24.0000   8.0000  -2.7500 Du        
   1932 ****        24.0000  10.5000  -2.5000 Du        
   1933 ****        24.0000  10.5000  -2.2500 Du        
   1934 ****        24.0000  10.5000  -2.0000 Du        
   1935 ****        24.0000  10.5000  -1.7500 Du        
   1936 ****        24.0000  10.5000  -1.5000 Du        
   1937 ****        24.0000  10.5000  -1.2500 Du        
   1938 ****        24.0000  10.5000  -1.0000 Du        
   1939 ****        24.0000  10.5000  -0.7500 Du        
   1940 ****        24.0000  10.7500  -3.2500 Du        
   1941 ****        24.0000  10.7500  -3.0000 Du        
   1942 ****        24.0000  10.7500  -2.7500 Du        
   1943 ****        24.0000  10.7500  -2.5000 Du        
   1944 ****        24.0000  10.7500  -2.2500 Du        
   1945 ****        24.0000  10.7500  -2.0000 Du        
   1946 ****        24.0000  10.7500  -1.7500 Du        
   1947 ****        24.0000  10.7500  -1.5000 Du        
   1948 ****        24.0000  10.7500  -1.2500 Du        
   1949 ****        24.0000  10.7500  -1.0000 Du        
   1950 ****        24.0000  10.7500  -0.7500 Du        
   1951 ****        24.0000  10.7500  -0.5000 Du        
   1952 ****        24.0000  10.7500  -0.2500 Du        
   1953 ****        24.0000  11.0000  -3.2500 Du        
   1954 ****        24.0000  11.0000  -3.0000 Du        
   1955 ****        24.0000  11.0000  -2.7500 Du        
   1956 ****        24.0000  11.0000  -2.5000 Du        
   1957 ****        24.0000  11.0000  -2.2500 Du        
   1958 ****        24.0000  11.0000  -2.0000 Du        
   1959 ****        24.0000  11.0000  -1.7500 Du        
   1960 ****        24.0000  11.0000  -1.5000 Du        
   1961 ****        24.0000  11.0000  -1.2500 Du        
   1962 ****        24.0000  11.0000  -1.0000 Du        
   1963 ****        24.0000  11.0000  -0.7500 Du        
   1964 ****        24.0000  11.0000  -0.5000 Du        
   1965 ****        24.0000  11.0000  -0.2500 Du        
   1966 ****        24.0000  11.2500  -3.0000 Du        
   1967 ****        24.0000  11.2500  -2.7500 Du        
   1968 ****        24.0000  11.2500  -2.5000 Du        
   1969 ****        24.0000  11.2500  -2.2500 Du        
   1970 ****        24.0000  11.2500  -2.0000 Du        
   1971 ****        24.0000  11.2500  -1.7500 Du        
   1972 ****        24.0000  11.2500  -1.5000 Du        
   1973 ****        24.0000  11.2500  -1.2500 Du        
   1974 ****        24.0000  11.2500  -1.0000 Du        
   1975 ****        24.0000  11.2500  -0.7500 Du        
   1976 ****        24.0000  11.2500  -0.5000 Du        
   1977 ****        24.0000  11.2500  -0.2500 Du        
   1978 ****        24.0000  11.5000  -3.0000 Du        
   1979 ****        24.0000  11.5000  -2.7500 Du        
   1980 ****        24.0000  11.5000  -2.5000 Du        
   1981 ****        24.0000  11.5000  -2.2500 Du        
   1982 ****        24.0000  11.5000  -2.0000 Du        
   1983 ****        24.0000  11.5000  -1.7500 Du        
   1984 ****        24.0000  11.5000  -1.5000 Du        
   1985 ****        24.0000  11.5000  -1.2500 Du        
   1986 ****        24.0000  11.5000  -1.0000 Du        
   1987 ****        24.0000  11.5000  -0.7500 Du        
   1988 ****        24.0000  11.5000  -0.5000 Du        
   1989 ****        24.0000  11.5000  -0.2500 Du        
   1990 ****        24.0000  11.7500  -3.0000 Du        
   1991 ****        24.0000  11.7500  -2.7500 Du        
   1992 ****        24.0000  11.7500  -2.5000 Du        
   1993 ****        24.0000  11.7500  -2.2500 Du        
   1994 ****        24.0000  11.7500  -1.0000 Du        
   1995 ****        24.0000  11.7500  -0.7500 Du        
   1996 ****        24.0000  11.7500  -0.5000 Du        
   1997 ****        24.0000  11.7500  -0.2500 Du        
   1998 ****        24.0000  12.0000  -0.5000 Du        
   1999 ****        24.2500   7.2500 -10.7500 Du        
   2000 ****        24.2500   7.2500 -10.5000 Du        
   2001 ****        24.2500   7.5000 -10.7500 Du        
   2002 ****        24.2500   7.5000 -10.5000 Du        
   2003 ****        24.2500   7.5000 -10.2500 Du        
   2004 ****        24.2500   7.5000  -3.0000 Du        
   2005 ****        24.2500   7.7500 -10.7500 Du        
   2006 ****        24.2500   7.7500 -10.5000 Du        
   2007 ****        24.2500   7.7500 -10.2500 Du        
   2008 ****        24.2500   7.7500 -10.0000 Du        
   2009 ****        24.2500   7.7500  -3.2500 Du        
   2010 ****        24.2500   7.7500  -3.0000 Du        
   2011 ****        24.2500   7.7500  -2.7500 Du        
   2012 ****        24.2500   8.0000 -10.7500 Du        
   2013 ****        24.2500   8.0000 -10.5000 Du        
   2014 ****        24.2500   8.0000 -10.2500 Du        
   2015 ****        24.2500   8.0000 -10.0000 Du        
   2016 ****        24.2500   8.0000  -3.2500 Du        
   2017 ****        24.2500   8.0000  -3.0000 Du        
   2018 ****        24.2500   8.0000  -2.7500 Du        
   2019 ****        24.2500   8.0000  -2.0000 Du        
   2020 ****        24.2500   8.2500 -10.5000 Du        
   2021 ****        24.2500   8.2500 -10.2500 Du        
   2022 ****        24.2500   8.2500  -2.0000 Du        
   2023 ****        24.2500   8.2500  -1.7500 Du        
   2024 ****        24.2500  10.2500  -1.0000 Du        
   2025 ****        24.2500  10.5000  -2.2500 Du        
   2026 ****        24.2500  10.5000  -2.0000 Du        
   2027 ****        24.2500  10.5000  -1.7500 Du        
   2028 ****        24.2500  10.5000  -1.5000 Du        
   2029 ****        24.2500  10.5000  -1.2500 Du        
   2030 ****        24.2500  10.5000  -1.0000 Du        
   2031 ****        24.2500  10.5000  -0.7500 Du        
   2032 ****        24.2500  10.7500  -3.2500 Du        
   2033 ****        24.2500  10.7500  -3.0000 Du        
   2034 ****        24.2500  10.7500  -2.7500 Du        
   2035 ****        24.2500  10.7500  -2.5000 Du        
   2036 ****        24.2500  10.7500  -2.2500 Du        
   2037 ****        24.2500  10.7500  -2.0000 Du        
   2038 ****        24.2500  10.7500  -1.7500 Du        
   2039 ****        24.2500  10.7500  -1.5000 Du        
   2040 ****        24.2500  10.7500  -1.2500 Du        
   2041 ****        24.2500  10.7500  -1.0000 Du        
   2042 ****        24.2500  10.7500  -0.7500 Du        
   2043 ****        24.2500  10.7500  -0.5000 Du        
   2044 ****        24.2500  11.0000  -3.2500 Du        
   2045 ****        24.2500  11.0000  -3.0000 Du        
   2046 ****        24.2500  11.0000  -2.7500 Du        
   2047 ****        24.2500  11.0000  -2.5000 Du        
   2048 ****        24.2500  11.0000  -2.2500 Du        
   2049 ****        24.2500  11.0000  -2.0000 Du        
   2050 ****        24.2500  11.0000  -1.7500 Du        
   2051 ****        24.2500  11.0000  -1.5000 Du        
   2052 ****        24.2500  11.0000  -1.2500 Du        
   2053 ****        24.2500  11.0000  -1.0000 Du        
   2054 ****        24.2500  11.0000  -0.7500 Du        
   2055 ****        24.2500  11.0000  -0.5000 Du        
   2056 ****        24.2500  11.0000  -0.2500 Du        
   2057 ****        24.2500  11.2500  -3.0000 Du        
   2058 ****        24.2500  11.2500  -2.7500 Du        
   2059 ****        24.2500  11.2500  -1.2500 Du        
   2060 ****        24.2500  11.2500  -1.0000 Du        
   2061 ****        24.2500  11.2500  -0.7500 Du        
   2062 ****        24.2500  11.2500  -0.5000 Du        
   2063 ****        24.2500  11.5000  -3.0000 Du        
   2064 ****        24.2500  11.5000  -2.7500 Du        
   2065 ****        24.2500  11.5000  -0.7500 Du        
   2066 ****        24.2500  11.5000  -0.5000 Du        
   2067 ****        24.2500  11.5000  -0.2500 Du        
   2068 ****        24.5000   7.2500 -11.0000 Du        
   2069 ****        24.5000   7.2500 -10.7500 Du        
   2070 ****        24.5000   7.2500 -10.5000 Du        
   2071 ****        24.5000   7.5000 -11.0000 Du        
   2072 ****        24.5000   7.5000 -10.7500 Du        
   2073 ****        24.5000   7.5000 -10.5000 Du        
   2074 ****        24.5000   7.5000 -10.2500 Du        
   2075 ****        24.5000   7.7500 -11.0000 Du        
   2076 ****        24.5000   7.7500 -10.7500 Du        
   2077 ****        24.5000   7.7500 -10.5000 Du        
   2078 ****        24.5000   7.7500 -10.2500 Du        
   2079 ****        24.5000   7.7500 -10.0000 Du        
   2080 ****        24.5000   7.7500  -3.0000 Du        
   2081 ****        24.5000   7.7500  -2.7500 Du        
   2082 ****        24.5000   7.7500  -2.5000 Du        
   2083 ****        24.5000   8.0000 -10.7500 Du        
   2084 ****        24.5000   8.0000 -10.5000 Du        
   2085 ****        24.5000   8.0000 -10.2500 Du        
   2086 ****        24.5000   8.0000 -10.0000 Du        
   2087 ****        24.5000   8.0000  -3.0000 Du        
   2088 ****        24.5000   8.0000  -2.7500 Du        
   2089 ****        24.5000   8.0000  -2.5000 Du        
   2090 ****        24.5000   8.0000  -2.2500 Du        
   2091 ****        24.5000   8.0000  -2.0000 Du        
   2092 ****        24.5000   8.0000  -1.7500 Du        
   2093 ****        24.5000   8.2500 -10.5000 Du        
   2094 ****        24.5000   8.2500 -10.2500 Du        
   2095 ****        24.5000   8.2500 -10.0000 Du        
   2096 ****        24.5000   8.2500  -2.2500 Du        
   2097 ****        24.5000   8.2500  -2.0000 Du        
   2098 ****        24.5000   8.2500  -1.7500 Du        
   2099 ****        24.5000   9.7500  -0.5000 Du        
   2100 ****        24.5000  10.0000  -0.5000 Du        
   2101 ****        24.5000  10.0000  -0.2500 Du        
   2102 ****        24.5000  10.2500  -0.7500 Du        
   2103 ****        24.5000  10.2500  -0.5000 Du        
   2104 ****        24.5000  10.2500  -0.2500 Du        
   2105 ****        24.5000  10.2500   0.0000 Du        
   2106 ****        24.5000  10.5000  -1.5000 Du        
   2107 ****        24.5000  10.5000  -1.2500 Du        
   2108 ****        24.5000  10.5000  -1.0000 Du        
   2109 ****        24.5000  10.5000  -0.7500 Du        
   2110 ****        24.5000  10.5000  -0.5000 Du        
   2111 ****        24.5000  10.5000  -0.2500 Du        
   2112 ****        24.5000  10.7500  -1.2500 Du        
   2113 ****        24.5000  10.7500  -1.0000 Du        
   2114 ****        24.5000  10.7500  -0.7500 Du        
   2115 ****        24.5000  10.7500  -0.5000 Du        
   2116 ****        24.5000  10.7500  -0.2500 Du        
   2117 ****        24.5000  11.0000  -1.0000 Du        
   2118 ****        24.5000  11.0000  -0.7500 Du        
   2119 ****        24.7500   7.2500 -11.0000 Du        
   2120 ****        24.7500   7.2500 -10.7500 Du        
   2121 ****        24.7500   7.2500 -10.5000 Du        
   2122 ****        24.7500   7.5000 -11.0000 Du        
   2123 ****        24.7500   7.5000 -10.7500 Du        
   2124 ****        24.7500   7.5000 -10.5000 Du        
   2125 ****        24.7500   7.5000 -10.2500 Du        
   2126 ****        24.7500   7.7500 -11.0000 Du        
   2127 ****        24.7500   7.7500 -10.7500 Du        
   2128 ****        24.7500   7.7500 -10.5000 Du        
   2129 ****        24.7500   7.7500 -10.2500 Du        
   2130 ****        24.7500   7.7500 -10.0000 Du        
   2131 ****        24.7500   7.7500  -3.2500 Du        
   2132 ****        24.7500   7.7500  -3.0000 Du        
   2133 ****        24.7500   7.7500  -2.7500 Du        
   2134 ****        24.7500   7.7500  -2.5000 Du        
   2135 ****        24.7500   7.7500  -2.2500 Du        
   2136 ****        24.7500   7.7500  -2.0000 Du        
   2137 ****        24.7500   8.0000 -10.7500 Du        
   2138 ****        24.7500   8.0000 -10.5000 Du        
   2139 ****        24.7500   8.0000 -10.2500 Du        
   2140 ****        24.7500   8.0000 -10.0000 Du        
   2141 ****        24.7500   8.0000  -3.0000 Du        
   2142 ****        24.7500   8.0000  -2.7500 Du        
   2143 ****        24.7500   8.0000  -2.5000 Du        
   2144 ****        24.7500   8.0000  -2.2500 Du        
   2145 ****        24.7500   8.0000  -2.0000 Du        
   2146 ****        24.7500   8.0000  -1.7500 Du        
   2147 ****        24.7500   8.2500 -10.5000 Du        
   2148 ****        24.7500   8.2500 -10.2500 Du        
   2149 ****        24.7500   8.2500 -10.0000 Du        
   2150 ****        24.7500   8.2500  -2.7500 Du        
   2151 ****        24.7500   8.2500  -2.2500 Du        
   2152 ****        24.7500   8.2500  -2.0000 Du        
   2153 ****        24.7500   8.2500  -1.7500 Du        
   2154 ****        24.7500   8.2500  -1.5000 Du        
   2155 ****        24.7500   8.5000 -10.2500 Du        
   2156 ****        24.7500   9.0000  -1.2500 Du        
   2157 ****        24.7500   9.7500  -0.7500 Du        
   2158 ****        24.7500   9.7500  -0.5000 Du        
   2159 ****        24.7500   9.7500  -0.2500 Du        
   2160 ****        24.7500  10.0000  -1.0000 Du        
   2161 ****        24.7500  10.0000  -0.7500 Du        
   2162 ****        24.7500  10.0000  -0.5000 Du        
   2163 ****        24.7500  10.0000  -0.2500 Du        
   2164 ****        24.7500  10.0000   0.0000 Du        
   2165 ****        24.7500  10.2500  -0.7500 Du        
   2166 ****        24.7500  10.2500  -0.5000 Du        
   2167 ****        24.7500  10.2500  -0.2500 Du        
   2168 ****        24.7500  10.2500   0.0000 Du        
   2169 ****        24.7500  10.5000  -1.2500 Du        
   2170 ****        24.7500  10.5000  -1.0000 Du        
   2171 ****        24.7500  10.5000  -0.7500 Du        
   2172 ****        24.7500  10.5000  -0.5000 Du        
   2173 ****        24.7500  10.5000  -0.2500 Du        
   2174 ****        24.7500  10.7500  -1.0000 Du        
   2175 ****        24.7500  10.7500  -0.7500 Du        
   2176 ****        24.7500  10.7500  -0.5000 Du        
   2177 ****        24.7500  10.7500  -0.2500 Du        
   2178 ****        24.7500  10.7500   0.0000 Du        
   2179 ****        24.7500  11.0000  -0.7500 Du        
   2180 ****        25.0000   7.2500 -10.7500 Du        
   2181 ****        25.0000   7.2500 -10.5000 Du        
   2182 ****        25.0000   7.5000 -11.0000 Du        
   2183 ****        25.0000   7.5000 -10.7500 Du        
   2184 ****        25.0000   7.5000 -10.5000 Du        
   2185 ****        25.0000   7.5000 -10.2500 Du        
   2186 ****        25.0000   7.5000  -3.0000 Du        
   2187 ****        25.0000   7.5000  -2.7500 Du        
   2188 ****        25.0000   7.5000  -2.5000 Du        
   2189 ****        25.0000   7.5000  -2.2500 Du        
   2190 ****        25.0000   7.7500 -11.0000 Du        
   2191 ****        25.0000   7.7500 -10.7500 Du        
   2192 ****        25.0000   7.7500 -10.5000 Du        
   2193 ****        25.0000   7.7500 -10.2500 Du        
   2194 ****        25.0000   7.7500 -10.0000 Du        
   2195 ****        25.0000   7.7500  -3.2500 Du        
   2196 ****        25.0000   7.7500  -3.0000 Du        
   2197 ****        25.0000   7.7500  -2.7500 Du        
   2198 ****        25.0000   7.7500  -2.5000 Du        
   2199 ****        25.0000   7.7500  -2.2500 Du        
   2200 ****        25.0000   7.7500  -2.0000 Du        
   2201 ****        25.0000   7.7500  -1.7500 Du        
   2202 ****        25.0000   8.0000 -10.7500 Du        
   2203 ****        25.0000   8.0000 -10.5000 Du        
   2204 ****        25.0000   8.0000 -10.2500 Du        
   2205 ****        25.0000   8.0000 -10.0000 Du        
   2206 ****        25.0000   8.0000  -3.2500 Du        
   2207 ****        25.0000   8.0000  -3.0000 Du        
   2208 ****        25.0000   8.0000  -2.7500 Du        
   2209 ****        25.0000   8.0000  -2.5000 Du        
   2210 ****        25.0000   8.0000  -2.2500 Du        
   2211 ****        25.0000   8.0000  -2.0000 Du        
   2212 ****        25.0000   8.0000  -1.7500 Du        
   2213 ****        25.0000   8.2500 -10.5000 Du        
   2214 ****        25.0000   8.2500 -10.2500 Du        
   2215 ****        25.0000   8.2500 -10.0000 Du        
   2216 ****        25.0000   8.2500  -9.7500 Du        
   2217 ****        25.0000   8.2500  -2.7500 Du        
   2218 ****        25.0000   8.2500  -2.5000 Du        
   2219 ****        25.0000   8.2500  -2.2500 Du        
   2220 ****        25.0000   8.2500  -2.0000 Du        
   2221 ****        25.0000   8.2500  -1.7500 Du        
   2222 ****        25.0000   8.2500  -1.5000 Du        
   2223 ****        25.0000   8.5000 -10.2500 Du        
   2224 ****        25.0000   8.5000 -10.0000 Du        
   2225 ****        25.0000   8.5000  -9.7500 Du        
   2226 ****        25.0000   8.7500  -1.7500 Du        
   2227 ****        25.0000   8.7500  -1.5000 Du        
   2228 ****        25.0000   8.7500  -1.2500 Du        
   2229 ****        25.0000   8.7500  -1.0000 Du        
   2230 ****        25.0000   9.0000  -1.5000 Du        
   2231 ****        25.0000   9.0000  -1.2500 Du        
   2232 ****        25.0000   9.0000  -1.0000 Du        
   2233 ****        25.0000   9.2500  -1.2500 Du        
   2234 ****        25.0000   9.2500  -1.0000 Du        
   2235 ****        25.0000   9.2500  -0.7500 Du        
   2236 ****        25.0000   9.5000  -0.7500 Du        
   2237 ****        25.0000   9.5000  -0.5000 Du        
   2238 ****        25.0000   9.7500  -1.2500 Du        
   2239 ****        25.0000   9.7500  -1.0000 Du        
   2240 ****        25.0000   9.7500  -0.7500 Du        
   2241 ****        25.0000   9.7500  -0.5000 Du        
   2242 ****        25.0000   9.7500  -0.2500 Du        
   2243 ****        25.0000   9.7500   0.0000 Du        
   2244 ****        25.0000  10.0000  -1.0000 Du        
   2245 ****        25.0000  10.0000  -0.7500 Du        
   2246 ****        25.0000  10.0000  -0.5000 Du        
   2247 ****        25.0000  10.0000  -0.2500 Du        
   2248 ****        25.0000  10.0000   0.0000 Du        
   2249 ****        25.0000  10.2500  -0.7500 Du        
   2250 ****        25.0000  10.2500  -0.5000 Du        
   2251 ****        25.0000  10.2500  -0.2500 Du        
   2252 ****        25.0000  10.2500   0.0000 Du        
   2253 ****        25.0000  10.5000  -0.7500 Du        
   2254 ****        25.0000  10.5000  -0.5000 Du        
   2255 ****        25.0000  10.5000  -0.2500 Du        
   2256 ****        25.0000  10.5000   0.0000 Du        
   2257 ****        25.0000  10.7500  -0.5000 Du        
   2258 ****        25.0000  10.7500  -0.2500 Du        
   2259 ****        25.2500   7.2500 -10.7500 Du        
   2260 ****        25.2500   7.2500 -10.5000 Du        
   2261 ****        25.2500   7.5000 -11.0000 Du        
   2262 ****        25.2500   7.5000 -10.7500 Du        
   2263 ****        25.2500   7.5000 -10.5000 Du        
   2264 ****        25.2500   7.5000 -10.2500 Du        
   2265 ****        25.2500   7.5000  -3.0000 Du        
   2266 ****        25.2500   7.5000  -2.7500 Du        
   2267 ****        25.2500   7.5000  -2.5000 Du        
   2268 ****        25.2500   7.5000  -2.2500 Du        
   2269 ****        25.2500   7.7500 -10.7500 Du        
   2270 ****        25.2500   7.7500 -10.5000 Du        
   2271 ****        25.2500   7.7500 -10.2500 Du        
   2272 ****        25.2500   7.7500 -10.0000 Du        
   2273 ****        25.2500   7.7500  -3.2500 Du        
   2274 ****        25.2500   7.7500  -3.0000 Du        
   2275 ****        25.2500   7.7500  -2.7500 Du        
   2276 ****        25.2500   7.7500  -2.5000 Du        
   2277 ****        25.2500   7.7500  -2.2500 Du        
   2278 ****        25.2500   7.7500  -2.0000 Du        
   2279 ****        25.2500   7.7500  -1.7500 Du        
   2280 ****        25.2500   8.0000 -10.5000 Du        
   2281 ****        25.2500   8.0000 -10.2500 Du        
   2282 ****        25.2500   8.0000 -10.0000 Du        
   2283 ****        25.2500   8.0000  -3.2500 Du        
   2284 ****        25.2500   8.0000  -3.0000 Du        
   2285 ****        25.2500   8.0000  -2.7500 Du        
   2286 ****        25.2500   8.0000  -2.5000 Du        
   2287 ****        25.2500   8.0000  -2.2500 Du        
   2288 ****        25.2500   8.0000  -2.0000 Du        
   2289 ****        25.2500   8.0000  -1.7500 Du        
   2290 ****        25.2500   8.2500 -10.5000 Du        
   2291 ****        25.2500   8.2500 -10.2500 Du        
   2292 ****        25.2500   8.2500 -10.0000 Du        
   2293 ****        25.2500   8.2500  -9.7500 Du        
   2294 ****        25.2500   8.2500  -3.2500 Du        
   2295 ****        25.2500   8.2500  -3.0000 Du        
   2296 ****        25.2500   8.2500  -2.7500 Du        
   2297 ****        25.2500   8.2500  -2.5000 Du        
   2298 ****        25.2500   8.2500  -2.2500 Du        
   2299 ****        25.2500   8.2500  -2.0000 Du        
   2300 ****        25.2500   8.2500  -1.7500 Du        
   2301 ****        25.2500   8.2500  -1.5000 Du        
   2302 ****        25.2500   8.5000 -10.2500 Du        
   2303 ****        25.2500   8.5000 -10.0000 Du        
   2304 ****        25.2500   8.5000  -9.7500 Du        
   2305 ****        25.2500   8.5000  -2.0000 Du        
   2306 ****        25.2500   8.5000  -1.7500 Du        
   2307 ****        25.2500   8.5000  -1.5000 Du        
   2308 ****        25.2500   8.7500 -10.0000 Du        
   2309 ****        25.2500   8.7500  -9.7500 Du        
   2310 ****        25.2500   8.7500  -2.0000 Du        
   2311 ****        25.2500   8.7500  -1.7500 Du        
   2312 ****        25.2500   8.7500  -1.5000 Du        
   2313 ****        25.2500   8.7500  -1.2500 Du        
   2314 ****        25.2500   8.7500  -1.0000 Du        
   2315 ****        25.2500   9.0000  -1.5000 Du        
   2316 ****        25.2500   9.0000  -1.2500 Du        
   2317 ****        25.2500   9.0000  -1.0000 Du        
   2318 ****        25.2500   9.2500  -1.5000 Du        
   2319 ****        25.2500   9.2500  -1.2500 Du        
   2320 ****        25.2500   9.2500  -1.0000 Du        
   2321 ****        25.2500   9.2500  -0.7500 Du        
   2322 ****        25.2500   9.5000  -1.0000 Du        
   2323 ****        25.2500   9.5000  -0.7500 Du        
   2324 ****        25.2500   9.5000  -0.5000 Du        
   2325 ****        25.2500   9.7500  -4.0000 Du        
   2326 ****        25.2500   9.7500  -1.2500 Du        
   2327 ****        25.2500   9.7500  -1.0000 Du        
   2328 ****        25.2500   9.7500  -0.7500 Du        
   2329 ****        25.2500   9.7500  -0.5000 Du        
   2330 ****        25.2500   9.7500  -0.2500 Du        
   2331 ****        25.2500   9.7500   0.0000 Du        
   2332 ****        25.2500  10.0000  -1.0000 Du        
   2333 ****        25.2500  10.0000  -0.7500 Du        
   2334 ****        25.2500  10.0000  -0.5000 Du        
   2335 ****        25.2500  10.0000  -0.2500 Du        
   2336 ****        25.2500  10.0000   0.0000 Du        
   2337 ****        25.2500  10.2500  -0.5000 Du        
   2338 ****        25.2500  10.2500  -0.2500 Du        
   2339 ****        25.2500  10.2500   0.0000 Du        
   2340 ****        25.2500  10.5000  -0.5000 Du        
   2341 ****        25.2500  10.5000  -0.2500 Du        
   2342 ****        25.2500  10.5000   0.0000 Du        
   2343 ****        25.5000   7.2500 -10.7500 Du        
   2344 ****        25.5000   7.2500 -10.5000 Du        
   2345 ****        25.5000   7.2500  -3.0000 Du        
   2346 ****        25.5000   7.2500  -2.7500 Du        
   2347 ****        25.5000   7.2500  -2.5000 Du        
   2348 ****        25.5000   7.5000 -11.0000 Du        
   2349 ****        25.5000   7.5000 -10.7500 Du        
   2350 ****        25.5000   7.5000 -10.5000 Du        
   2351 ****        25.5000   7.5000 -10.2500 Du        
   2352 ****        25.5000   7.5000  -3.2500 Du        
   2353 ****        25.5000   7.5000  -3.0000 Du        
   2354 ****        25.5000   7.5000  -2.7500 Du        
   2355 ****        25.5000   7.5000  -2.5000 Du        
   2356 ****        25.5000   7.5000  -2.2500 Du        
   2357 ****        25.5000   7.5000  -2.0000 Du        
   2358 ****        25.5000   7.7500 -10.7500 Du        
   2359 ****        25.5000   7.7500 -10.5000 Du        
   2360 ****        25.5000   7.7500 -10.2500 Du        
   2361 ****        25.5000   7.7500 -10.0000 Du        
   2362 ****        25.5000   7.7500  -3.5000 Du        
   2363 ****        25.5000   7.7500  -3.2500 Du        
   2364 ****        25.5000   7.7500  -3.0000 Du        
   2365 ****        25.5000   7.7500  -2.7500 Du        
   2366 ****        25.5000   7.7500  -2.5000 Du        
   2367 ****        25.5000   7.7500  -2.2500 Du        
   2368 ****        25.5000   7.7500  -2.0000 Du        
   2369 ****        25.5000   7.7500  -1.7500 Du        
   2370 ****        25.5000   8.0000 -10.5000 Du        
   2371 ****        25.5000   8.0000 -10.2500 Du        
   2372 ****        25.5000   8.0000 -10.0000 Du        
   2373 ****        25.5000   8.0000  -9.7500 Du        
   2374 ****        25.5000   8.0000  -3.5000 Du        
   2375 ****        25.5000   8.0000  -3.2500 Du        
   2376 ****        25.5000   8.0000  -3.0000 Du        
   2377 ****        25.5000   8.0000  -2.7500 Du        
   2378 ****        25.5000   8.0000  -2.5000 Du        
   2379 ****        25.5000   8.0000  -2.2500 Du        
   2380 ****        25.5000   8.0000  -2.0000 Du        
   2381 ****        25.5000   8.0000  -1.7500 Du        
   2382 ****        25.5000   8.2500 -10.2500 Du        
   2383 ****        25.5000   8.2500 -10.0000 Du        
   2384 ****        25.5000   8.2500  -9.7500 Du        
   2385 ****        25.5000   8.2500  -3.5000 Du        
   2386 ****        25.5000   8.2500  -3.2500 Du        
   2387 ****        25.5000   8.2500  -3.0000 Du        
   2388 ****        25.5000   8.2500  -2.7500 Du        
   2389 ****        25.5000   8.2500  -2.5000 Du        
   2390 ****        25.5000   8.2500  -2.2500 Du        
   2391 ****        25.5000   8.2500  -2.0000 Du        
   2392 ****        25.5000   8.2500  -1.7500 Du        
   2393 ****        25.5000   8.2500  -1.5000 Du        
   2394 ****        25.5000   8.5000 -10.2500 Du        
   2395 ****        25.5000   8.5000 -10.0000 Du        
   2396 ****        25.5000   8.5000  -9.7500 Du        
   2397 ****        25.5000   8.5000  -3.2500 Du        
   2398 ****        25.5000   8.5000  -2.5000 Du        
   2399 ****        25.5000   8.5000  -2.2500 Du        
   2400 ****        25.5000   8.5000  -2.0000 Du        
   2401 ****        25.5000   8.5000  -1.7500 Du        
   2402 ****        25.5000   8.5000  -1.5000 Du        
   2403 ****        25.5000   8.7500 -10.0000 Du        
   2404 ****        25.5000   8.7500  -9.7500 Du        
   2405 ****        25.5000   8.7500  -9.5000 Du        
   2406 ****        25.5000   8.7500  -3.0000 Du        
   2407 ****        25.5000   8.7500  -2.5000 Du        
   2408 ****        25.5000   8.7500  -2.2500 Du        
   2409 ****        25.5000   8.7500  -2.0000 Du        
   2410 ****        25.5000   8.7500  -1.7500 Du        
   2411 ****        25.5000   8.7500  -1.5000 Du        
   2412 ****        25.5000   8.7500  -1.2500 Du        
   2413 ****        25.5000   8.7500  -1.0000 Du        
   2414 ****        25.5000   9.0000  -9.7500 Du        
   2415 ****        25.5000   9.0000  -2.2500 Du        
   2416 ****        25.5000   9.0000  -2.0000 Du        
   2417 ****        25.5000   9.0000  -1.7500 Du        
   2418 ****        25.5000   9.0000  -1.5000 Du        
   2419 ****        25.5000   9.0000  -1.2500 Du        
   2420 ****        25.5000   9.0000  -1.0000 Du        
   2421 ****        25.5000   9.2500  -1.5000 Du        
   2422 ****        25.5000   9.2500  -1.2500 Du        
   2423 ****        25.5000   9.2500  -1.0000 Du        
   2424 ****        25.5000   9.2500  -0.7500 Du        
   2425 ****        25.5000   9.2500  -0.5000 Du        
   2426 ****        25.5000   9.5000  -1.2500 Du        
   2427 ****        25.5000   9.5000  -1.0000 Du        
   2428 ****        25.5000   9.5000  -0.7500 Du        
   2429 ****        25.5000   9.5000  -0.5000 Du        
   2430 ****        25.5000   9.5000  -0.2500 Du        
   2431 ****        25.5000   9.5000   0.0000 Du        
   2432 ****        25.5000   9.7500  -4.0000 Du        
   2433 ****        25.5000   9.7500  -1.2500 Du        
   2434 ****        25.5000   9.7500  -1.0000 Du        
   2435 ****        25.5000   9.7500  -0.7500 Du        
   2436 ****        25.5000   9.7500  -0.5000 Du        
   2437 ****        25.5000   9.7500  -0.2500 Du        
   2438 ****        25.5000   9.7500   0.0000 Du        
   2439 ****        25.5000   9.7500   0.2500 Du        
   2440 ****        25.5000  10.0000  -1.0000 Du        
   2441 ****        25.5000  10.0000  -0.7500 Du        
   2442 ****        25.5000  10.0000  -0.5000 Du        
   2443 ****        25.5000  10.0000  -0.2500 Du        
   2444 ****        25.5000  10.0000   0.0000 Du        
   2445 ****        25.5000  10.0000   0.2500 Du        
   2446 ****        25.5000  10.2500  -0.7500 Du        
   2447 ****        25.5000  10.2500  -0.5000 Du        
   2448 ****        25.5000  10.2500  -0.2500 Du        
   2449 ****        25.5000  10.2500   0.0000 Du        
   2450 ****        25.5000  10.5000  -0.2500 Du        
   2451 ****        25.5000  10.5000   0.0000 Du        
   2452 ****        25.7500   7.2500 -10.7500 Du        
   2453 ****        25.7500   7.2500 -10.5000 Du        
   2454 ****        25.7500   7.2500  -3.0000 Du        
   2455 ****        25.7500   7.2500  -2.7500 Du        
   2456 ****        25.7500   7.2500  -2.5000 Du        
   2457 ****        25.7500   7.5000 -10.7500 Du        
   2458 ****        25.7500   7.5000 -10.5000 Du        
   2459 ****        25.7500   7.5000 -10.2500 Du        
   2460 ****        25.7500   7.5000  -3.2500 Du        
   2461 ****        25.7500   7.5000  -3.0000 Du        
   2462 ****        25.7500   7.5000  -2.7500 Du        
   2463 ****        25.7500   7.5000  -2.5000 Du        
   2464 ****        25.7500   7.5000  -2.2500 Du        
   2465 ****        25.7500   7.5000  -2.0000 Du        
   2466 ****        25.7500   7.7500 -10.7500 Du        
   2467 ****        25.7500   7.7500 -10.5000 Du        
   2468 ****        25.7500   7.7500 -10.2500 Du        
   2469 ****        25.7500   7.7500 -10.0000 Du        
   2470 ****        25.7500   7.7500  -3.5000 Du        
   2471 ****        25.7500   7.7500  -3.2500 Du        
   2472 ****        25.7500   7.7500  -3.0000 Du        
   2473 ****        25.7500   7.7500  -2.7500 Du        
   2474 ****        25.7500   7.7500  -2.5000 Du        
   2475 ****        25.7500   7.7500  -2.2500 Du        
   2476 ****        25.7500   7.7500  -2.0000 Du        
   2477 ****        25.7500   7.7500  -1.7500 Du        
   2478 ****        25.7500   8.0000 -10.5000 Du        
   2479 ****        25.7500   8.0000 -10.2500 Du        
   2480 ****        25.7500   8.0000 -10.0000 Du        
   2481 ****        25.7500   8.0000  -9.7500 Du        
   2482 ****        25.7500   8.0000  -3.5000 Du        
   2483 ****        25.7500   8.0000  -3.2500 Du        
   2484 ****        25.7500   8.0000  -3.0000 Du        
   2485 ****        25.7500   8.0000  -2.7500 Du        
   2486 ****        25.7500   8.0000  -2.5000 Du        
   2487 ****        25.7500   8.0000  -2.2500 Du        
   2488 ****        25.7500   8.0000  -2.0000 Du        
   2489 ****        25.7500   8.0000  -1.7500 Du        
   2490 ****        25.7500   8.2500 -10.2500 Du        
   2491 ****        25.7500   8.2500 -10.0000 Du        
   2492 ****        25.7500   8.2500  -9.7500 Du        
   2493 ****        25.7500   8.2500  -3.7500 Du        
   2494 ****        25.7500   8.2500  -3.5000 Du        
   2495 ****        25.7500   8.2500  -3.2500 Du        
   2496 ****        25.7500   8.2500  -3.0000 Du        
   2497 ****        25.7500   8.2500  -2.7500 Du        
   2498 ****        25.7500   8.2500  -2.5000 Du        
   2499 ****        25.7500   8.2500  -2.2500 Du        
   2500 ****        25.7500   8.2500  -2.0000 Du        
   2501 ****        25.7500   8.2500  -1.7500 Du        
   2502 ****        25.7500   8.5000 -10.0000 Du        
   2503 ****        25.7500   8.5000  -9.7500 Du        
   2504 ****        25.7500   8.5000  -3.5000 Du        
   2505 ****        25.7500   8.5000  -3.2500 Du        
   2506 ****        25.7500   8.5000  -3.0000 Du        
   2507 ****        25.7500   8.5000  -2.7500 Du        
   2508 ****        25.7500   8.5000  -2.5000 Du        
   2509 ****        25.7500   8.5000  -2.2500 Du        
   2510 ****        25.7500   8.5000  -2.0000 Du        
   2511 ****        25.7500   8.5000  -1.7500 Du        
   2512 ****        25.7500   8.5000  -1.5000 Du        
   2513 ****        25.7500   8.7500 -10.0000 Du        
   2514 ****        25.7500   8.7500  -9.7500 Du        
   2515 ****        25.7500   8.7500  -9.5000 Du        
   2516 ****        25.7500   8.7500  -3.7500 Du        
   2517 ****        25.7500   8.7500  -3.5000 Du        
   2518 ****        25.7500   8.7500  -3.2500 Du        
   2519 ****        25.7500   8.7500  -3.0000 Du        
   2520 ****        25.7500   8.7500  -2.7500 Du        
   2521 ****        25.7500   8.7500  -2.5000 Du        
   2522 ****        25.7500   8.7500  -2.2500 Du        
   2523 ****        25.7500   8.7500  -2.0000 Du        
   2524 ****        25.7500   8.7500  -1.7500 Du        
   2525 ****        25.7500   8.7500  -1.5000 Du        
   2526 ****        25.7500   8.7500  -1.2500 Du        
   2527 ****        25.7500   8.7500  -1.0000 Du        
   2528 ****        25.7500   9.0000  -4.0000 Du        
   2529 ****        25.7500   9.0000  -3.7500 Du        
   2530 ****        25.7500   9.0000  -3.2500 Du        
   2531 ****        25.7500   9.0000  -2.5000 Du        
   2532 ****        25.7500   9.0000  -2.2500 Du        
   2533 ****        25.7500   9.0000  -2.0000 Du        
   2534 ****        25.7500   9.0000  -1.7500 Du        
   2535 ****        25.7500   9.0000  -1.5000 Du        
   2536 ****        25.7500   9.0000  -1.2500 Du        
   2537 ****        25.7500   9.0000  -1.0000 Du        
   2538 ****        25.7500   9.0000  -0.7500 Du        
   2539 ****        25.7500   9.2500  -4.0000 Du        
   2540 ****        25.7500   9.2500  -3.7500 Du        
   2541 ****        25.7500   9.2500  -2.0000 Du        
   2542 ****        25.7500   9.2500  -1.7500 Du        
   2543 ****        25.7500   9.2500  -1.5000 Du        
   2544 ****        25.7500   9.2500  -1.2500 Du        
   2545 ****        25.7500   9.2500  -1.0000 Du        
   2546 ****        25.7500   9.2500  -0.7500 Du        
   2547 ****        25.7500   9.2500  -0.5000 Du        
   2548 ****        25.7500   9.5000  -1.5000 Du        
   2549 ****        25.7500   9.5000  -1.2500 Du        
   2550 ****        25.7500   9.5000  -1.0000 Du        
   2551 ****        25.7500   9.5000  -0.7500 Du        
   2552 ****        25.7500   9.5000  -0.5000 Du        
   2553 ****        25.7500   9.5000  -0.2500 Du        
   2554 ****        25.7500   9.5000   0.0000 Du        
   2555 ****        25.7500   9.7500  -4.2500 Du        
   2556 ****        25.7500   9.7500  -4.0000 Du        
   2557 ****        25.7500   9.7500  -1.2500 Du        
   2558 ****        25.7500   9.7500  -1.0000 Du        
   2559 ****        25.7500   9.7500  -0.7500 Du        
   2560 ****        25.7500   9.7500  -0.5000 Du        
   2561 ****        25.7500   9.7500  -0.2500 Du        
   2562 ****        25.7500   9.7500   0.0000 Du        
   2563 ****        25.7500   9.7500   0.2500 Du        
   2564 ****        25.7500  10.0000  -4.2500 Du        
   2565 ****        25.7500  10.0000  -4.0000 Du        
   2566 ****        25.7500  10.0000  -3.7500 Du        
   2567 ****        25.7500  10.0000  -1.0000 Du        
   2568 ****        25.7500  10.0000  -0.7500 Du        
   2569 ****        25.7500  10.0000  -0.5000 Du        
   2570 ****        25.7500  10.0000  -0.2500 Du        
   2571 ****        25.7500  10.0000   0.0000 Du        
   2572 ****        25.7500  10.0000   0.2500 Du        
   2573 ****        25.7500  10.2500  -0.5000 Du        
   2574 ****        25.7500  10.2500  -0.2500 Du        
   2575 ****        25.7500  10.2500   0.0000 Du        
   2576 ****        25.7500  10.2500   0.2500 Du        
   2577 ****        25.7500  10.5000  -0.2500 Du        
   2578 ****        25.7500  10.5000   0.0000 Du        
   2579 ****        26.0000   7.2500 -10.7500 Du        
   2580 ****        26.0000   7.2500 -10.5000 Du        
   2581 ****        26.0000   7.2500  -3.2500 Du        
   2582 ****        26.0000   7.2500  -3.0000 Du        
   2583 ****        26.0000   7.2500  -2.7500 Du        
   2584 ****        26.0000   7.2500  -2.5000 Du        
   2585 ****        26.0000   7.5000 -10.7500 Du        
   2586 ****        26.0000   7.5000 -10.5000 Du        
   2587 ****        26.0000   7.5000 -10.2500 Du        
   2588 ****        26.0000   7.5000  -3.2500 Du        
   2589 ****        26.0000   7.5000  -3.0000 Du        
   2590 ****        26.0000   7.5000  -2.7500 Du        
   2591 ****        26.0000   7.5000  -2.5000 Du        
   2592 ****        26.0000   7.5000  -2.2500 Du        
   2593 ****        26.0000   7.7500 -10.7500 Du        
   2594 ****        26.0000   7.7500 -10.5000 Du        
   2595 ****        26.0000   7.7500 -10.2500 Du        
   2596 ****        26.0000   7.7500 -10.0000 Du        
   2597 ****        26.0000   7.7500  -3.5000 Du        
   2598 ****        26.0000   7.7500  -3.2500 Du        
   2599 ****        26.0000   7.7500  -3.0000 Du        
   2600 ****        26.0000   7.7500  -2.7500 Du        
   2601 ****        26.0000   7.7500  -2.5000 Du        
   2602 ****        26.0000   7.7500  -2.2500 Du        
   2603 ****        26.0000   7.7500  -2.0000 Du        
   2604 ****        26.0000   8.0000 -10.5000 Du        
   2605 ****        26.0000   8.0000 -10.2500 Du        
   2606 ****        26.0000   8.0000 -10.0000 Du        
   2607 ****        26.0000   8.0000  -9.7500 Du        
   2608 ****        26.0000   8.0000  -3.7500 Du        
   2609 ****        26.0000   8.0000  -3.5000 Du        
   2610 ****        26.0000   8.0000  -3.2500 Du        
   2611 ****        26.0000   8.0000  -3.0000 Du        
   2612 ****        26.0000   8.0000  -2.7500 Du        
   2613 ****        26.0000   8.0000  -2.5000 Du        
   2614 ****        26.0000   8.0000  -2.2500 Du        
   2615 ****        26.0000   8.0000  -2.0000 Du        
   2616 ****        26.0000   8.0000  -1.7500 Du        
   2617 ****        26.0000   8.2500 -10.2500 Du        
   2618 ****        26.0000   8.2500 -10.0000 Du        
   2619 ****        26.0000   8.2500  -9.7500 Du        
   2620 ****        26.0000   8.2500  -3.7500 Du        
   2621 ****        26.0000   8.2500  -3.5000 Du        
   2622 ****        26.0000   8.2500  -3.2500 Du        
   2623 ****        26.0000   8.2500  -3.0000 Du        
   2624 ****        26.0000   8.2500  -2.7500 Du        
   2625 ****        26.0000   8.2500  -2.5000 Du        
   2626 ****        26.0000   8.2500  -2.2500 Du        
   2627 ****        26.0000   8.2500  -2.0000 Du        
   2628 ****        26.0000   8.2500  -1.7500 Du        
   2629 ****        26.0000   8.5000 -10.0000 Du        
   2630 ****        26.0000   8.5000  -9.7500 Du        
   2631 ****        26.0000   8.5000  -3.7500 Du        
   2632 ****        26.0000   8.5000  -3.5000 Du        
   2633 ****        26.0000   8.5000  -3.2500 Du        
   2634 ****        26.0000   8.5000  -3.0000 Du        
   2635 ****        26.0000   8.5000  -2.7500 Du        
   2636 ****        26.0000   8.5000  -2.5000 Du        
   2637 ****        26.0000   8.5000  -2.2500 Du        
   2638 ****        26.0000   8.5000  -2.0000 Du        
   2639 ****        26.0000   8.5000  -1.7500 Du        
   2640 ****        26.0000   8.7500  -4.0000 Du        
   2641 ****        26.0000   8.7500  -3.7500 Du        
   2642 ****        26.0000   8.7500  -3.5000 Du        
   2643 ****        26.0000   8.7500  -3.2500 Du        
   2644 ****        26.0000   8.7500  -3.0000 Du        
   2645 ****        26.0000   8.7500  -2.7500 Du        
   2646 ****        26.0000   8.7500  -2.5000 Du        
   2647 ****        26.0000   8.7500  -2.2500 Du        
   2648 ****        26.0000   8.7500  -2.0000 Du        
   2649 ****        26.0000   8.7500  -1.7500 Du        
   2650 ****        26.0000   8.7500  -1.5000 Du        
   2651 ****        26.0000   8.7500  -1.2500 Du        
   2652 ****        26.0000   9.0000  -4.2500 Du        
   2653 ****        26.0000   9.0000  -4.0000 Du        
   2654 ****        26.0000   9.0000  -3.7500 Du        
   2655 ****        26.0000   9.0000  -3.5000 Du        
   2656 ****        26.0000   9.0000  -3.2500 Du        
   2657 ****        26.0000   9.0000  -3.0000 Du        
   2658 ****        26.0000   9.0000  -2.7500 Du        
   2659 ****        26.0000   9.0000  -2.5000 Du        
   2660 ****        26.0000   9.0000  -2.2500 Du        
   2661 ****        26.0000   9.0000  -2.0000 Du        
   2662 ****        26.0000   9.0000  -1.7500 Du        
   2663 ****        26.0000   9.0000  -1.5000 Du        
   2664 ****        26.0000   9.0000  -1.2500 Du        
   2665 ****        26.0000   9.0000  -1.0000 Du        
   2666 ****        26.0000   9.0000  -0.7500 Du        
   2667 ****        26.0000   9.2500  -4.2500 Du        
   2668 ****        26.0000   9.2500  -4.0000 Du        
   2669 ****        26.0000   9.2500  -3.7500 Du        
   2670 ****        26.0000   9.2500  -3.5000 Du        
   2671 ****        26.0000   9.2500  -3.0000 Du        
   2672 ****        26.0000   9.2500  -2.5000 Du        
   2673 ****        26.0000   9.2500  -2.2500 Du        
   2674 ****        26.0000   9.2500  -2.0000 Du        
   2675 ****        26.0000   9.2500  -1.7500 Du        
   2676 ****        26.0000   9.2500  -1.5000 Du        
   2677 ****        26.0000   9.2500  -1.2500 Du        
   2678 ****        26.0000   9.2500  -1.0000 Du        
   2679 ****        26.0000   9.2500  -0.7500 Du        
   2680 ****        26.0000   9.2500  -0.5000 Du        
   2681 ****        26.0000   9.5000  -4.2500 Du        
   2682 ****        26.0000   9.5000  -4.0000 Du        
   2683 ****        26.0000   9.5000  -1.5000 Du        
   2684 ****        26.0000   9.5000  -1.2500 Du        
   2685 ****        26.0000   9.5000  -1.0000 Du        
   2686 ****        26.0000   9.5000  -0.7500 Du        
   2687 ****        26.0000   9.5000  -0.5000 Du        
   2688 ****        26.0000   9.5000  -0.2500 Du        
   2689 ****        26.0000   9.5000   0.0000 Du        
   2690 ****        26.0000   9.7500  -4.5000 Du        
   2691 ****        26.0000   9.7500  -4.2500 Du        
   2692 ****        26.0000   9.7500  -4.0000 Du        
   2693 ****        26.0000   9.7500  -3.7500 Du        
   2694 ****        26.0000   9.7500  -3.5000 Du        
   2695 ****        26.0000   9.7500  -1.2500 Du        
   2696 ****        26.0000   9.7500  -1.0000 Du        
   2697 ****        26.0000   9.7500  -0.7500 Du        
   2698 ****        26.0000   9.7500  -0.5000 Du        
   2699 ****        26.0000   9.7500  -0.2500 Du        
   2700 ****        26.0000   9.7500   0.0000 Du        
   2701 ****        26.0000   9.7500   0.2500 Du        
   2702 ****        26.0000  10.0000  -4.5000 Du        
   2703 ****        26.0000  10.0000  -4.2500 Du        
   2704 ****        26.0000  10.0000  -4.0000 Du        
   2705 ****        26.0000  10.0000  -3.7500 Du        
   2706 ****        26.0000  10.0000  -3.5000 Du        
   2707 ****        26.0000  10.0000  -1.0000 Du        
   2708 ****        26.0000  10.0000  -0.7500 Du        
   2709 ****        26.0000  10.0000  -0.5000 Du        
   2710 ****        26.0000  10.0000  -0.2500 Du        
   2711 ****        26.0000  10.0000   0.0000 Du        
   2712 ****        26.0000  10.0000   0.2500 Du        
   2713 ****        26.0000  10.2500  -4.2500 Du        
   2714 ****        26.0000  10.2500  -4.0000 Du        
   2715 ****        26.0000  10.2500  -3.7500 Du        
   2716 ****        26.0000  10.2500  -0.5000 Du        
   2717 ****        26.0000  10.2500  -0.2500 Du        
   2718 ****        26.0000  10.2500   0.0000 Du        
   2719 ****        26.0000  10.2500   0.2500 Du        
   2720 ****        26.0000  10.5000   0.0000 Du        
   2721 ****        26.2500   7.2500 -10.7500 Du        
   2722 ****        26.2500   7.2500 -10.5000 Du        
   2723 ****        26.2500   7.2500  -3.2500 Du        
   2724 ****        26.2500   7.2500  -3.0000 Du        
   2725 ****        26.2500   7.2500  -2.7500 Du        
   2726 ****        26.2500   7.2500  -2.5000 Du        
   2727 ****        26.2500   7.5000 -10.7500 Du        
   2728 ****        26.2500   7.5000 -10.5000 Du        
   2729 ****        26.2500   7.5000 -10.2500 Du        
   2730 ****        26.2500   7.5000 -10.0000 Du        
   2731 ****        26.2500   7.5000  -3.5000 Du        
   2732 ****        26.2500   7.5000  -3.2500 Du        
   2733 ****        26.2500   7.5000  -3.0000 Du        
   2734 ****        26.2500   7.5000  -2.7500 Du        
   2735 ****        26.2500   7.5000  -2.5000 Du        
   2736 ****        26.2500   7.7500 -10.5000 Du        
   2737 ****        26.2500   7.7500 -10.2500 Du        
   2738 ****        26.2500   7.7500 -10.0000 Du        
   2739 ****        26.2500   7.7500  -3.7500 Du        
   2740 ****        26.2500   7.7500  -3.5000 Du        
   2741 ****        26.2500   7.7500  -3.2500 Du        
   2742 ****        26.2500   7.7500  -3.0000 Du        
   2743 ****        26.2500   7.7500  -2.7500 Du        
   2744 ****        26.2500   7.7500  -2.5000 Du        
   2745 ****        26.2500   7.7500  -2.2500 Du        
   2746 ****        26.2500   8.0000 -10.2500 Du        
   2747 ****        26.2500   8.0000 -10.0000 Du        
   2748 ****        26.2500   8.0000  -9.7500 Du        
   2749 ****        26.2500   8.0000  -3.7500 Du        
   2750 ****        26.2500   8.0000  -3.5000 Du        
   2751 ****        26.2500   8.0000  -3.2500 Du        
   2752 ****        26.2500   8.0000  -3.0000 Du        
   2753 ****        26.2500   8.0000  -2.7500 Du        
   2754 ****        26.2500   8.0000  -2.5000 Du        
   2755 ****        26.2500   8.0000  -2.2500 Du        
   2756 ****        26.2500   8.0000  -2.0000 Du        
   2757 ****        26.2500   8.2500 -10.0000 Du        
   2758 ****        26.2500   8.2500  -3.7500 Du        
   2759 ****        26.2500   8.2500  -3.5000 Du        
   2760 ****        26.2500   8.2500  -3.2500 Du        
   2761 ****        26.2500   8.2500  -3.0000 Du        
   2762 ****        26.2500   8.2500  -2.7500 Du        
   2763 ****        26.2500   8.2500  -2.5000 Du        
   2764 ****        26.2500   8.2500  -2.2500 Du        
   2765 ****        26.2500   8.2500  -2.0000 Du        
   2766 ****        26.2500   8.2500  -1.7500 Du        
   2767 ****        26.2500   8.5000  -4.0000 Du        
   2768 ****        26.2500   8.5000  -3.7500 Du        
   2769 ****        26.2500   8.5000  -3.5000 Du        
   2770 ****        26.2500   8.5000  -3.2500 Du        
   2771 ****        26.2500   8.5000  -3.0000 Du        
   2772 ****        26.2500   8.5000  -2.7500 Du        
   2773 ****        26.2500   8.5000  -2.5000 Du        
   2774 ****        26.2500   8.5000  -2.2500 Du        
   2775 ****        26.2500   8.5000  -2.0000 Du        
   2776 ****        26.2500   8.5000  -1.7500 Du        
   2777 ****        26.2500   8.7500  -4.2500 Du        
   2778 ****        26.2500   8.7500  -4.0000 Du        
   2779 ****        26.2500   8.7500  -3.7500 Du        
   2780 ****        26.2500   8.7500  -3.5000 Du        
   2781 ****        26.2500   8.7500  -3.2500 Du        
   2782 ****        26.2500   8.7500  -3.0000 Du        
   2783 ****        26.2500   8.7500  -2.7500 Du        
   2784 ****        26.2500   8.7500  -2.5000 Du        
   2785 ****        26.2500   8.7500  -2.2500 Du        
   2786 ****        26.2500   8.7500  -2.0000 Du        
   2787 ****        26.2500   8.7500  -1.7500 Du        
   2788 ****        26.2500   8.7500  -1.5000 Du        
   2789 ****        26.2500   8.7500  -1.2500 Du        
   2790 ****        26.2500   9.0000  -4.2500 Du        
   2791 ****        26.2500   9.0000  -4.0000 Du        
   2792 ****        26.2500   9.0000  -3.7500 Du        
   2793 ****        26.2500   9.0000  -3.5000 Du        
   2794 ****        26.2500   9.0000  -3.2500 Du        
   2795 ****        26.2500   9.0000  -3.0000 Du        
   2796 ****        26.2500   9.0000  -2.7500 Du        
   2797 ****        26.2500   9.0000  -2.5000 Du        
   2798 ****        26.2500   9.0000  -2.2500 Du        
   2799 ****        26.2500   9.0000  -2.0000 Du        
   2800 ****        26.2500   9.0000  -1.7500 Du        
   2801 ****        26.2500   9.0000  -1.5000 Du        
   2802 ****        26.2500   9.0000  -1.2500 Du        
   2803 ****        26.2500   9.0000  -1.0000 Du        
   2804 ****        26.2500   9.0000  -0.7500 Du        
   2805 ****        26.2500   9.2500  -4.5000 Du        
   2806 ****        26.2500   9.2500  -4.2500 Du        
   2807 ****        26.2500   9.2500  -4.0000 Du        
   2808 ****        26.2500   9.2500  -3.7500 Du        
   2809 ****        26.2500   9.2500  -3.5000 Du        
   2810 ****        26.2500   9.2500  -3.2500 Du        
   2811 ****        26.2500   9.2500  -3.0000 Du        
   2812 ****        26.2500   9.2500  -2.7500 Du        
   2813 ****        26.2500   9.2500  -2.5000 Du        
   2814 ****        26.2500   9.2500  -2.2500 Du        
   2815 ****        26.2500   9.2500  -2.0000 Du        
   2816 ****        26.2500   9.2500  -1.7500 Du        
   2817 ****        26.2500   9.2500  -1.5000 Du        
   2818 ****        26.2500   9.2500  -1.2500 Du        
   2819 ****        26.2500   9.2500  -1.0000 Du        
   2820 ****        26.2500   9.2500  -0.7500 Du        
   2821 ****        26.2500   9.2500  -0.5000 Du        
   2822 ****        26.2500   9.2500  -0.2500 Du        
   2823 ****        26.2500   9.5000  -4.5000 Du        
   2824 ****        26.2500   9.5000  -4.2500 Du        
   2825 ****        26.2500   9.5000  -4.0000 Du        
   2826 ****        26.2500   9.5000  -3.7500 Du        
   2827 ****        26.2500   9.5000  -3.5000 Du        
   2828 ****        26.2500   9.5000  -1.5000 Du        
   2829 ****        26.2500   9.5000  -1.2500 Du        
   2830 ****        26.2500   9.5000  -1.0000 Du        
   2831 ****        26.2500   9.5000  -0.7500 Du        
   2832 ****        26.2500   9.5000  -0.5000 Du        
   2833 ****        26.2500   9.5000  -0.2500 Du        
   2834 ****        26.2500   9.5000   0.0000 Du        
   2835 ****        26.2500   9.5000   0.2500 Du        
   2836 ****        26.2500   9.7500  -4.7500 Du        
   2837 ****        26.2500   9.7500  -4.5000 Du        
   2838 ****        26.2500   9.7500  -4.2500 Du        
   2839 ****        26.2500   9.7500  -4.0000 Du        
   2840 ****        26.2500   9.7500  -3.7500 Du        
   2841 ****        26.2500   9.7500  -3.5000 Du        
   2842 ****        26.2500   9.7500  -1.2500 Du        
   2843 ****        26.2500   9.7500  -1.0000 Du        
   2844 ****        26.2500   9.7500  -0.7500 Du        
   2845 ****        26.2500   9.7500  -0.5000 Du        
   2846 ****        26.2500   9.7500  -0.2500 Du        
   2847 ****        26.2500   9.7500   0.0000 Du        
   2848 ****        26.2500   9.7500   0.2500 Du        
   2849 ****        26.2500   9.7500   0.5000 Du        
   2850 ****        26.2500  10.0000  -4.7500 Du        
   2851 ****        26.2500  10.0000  -4.5000 Du        
   2852 ****        26.2500  10.0000  -4.2500 Du        
   2853 ****        26.2500  10.0000  -4.0000 Du        
   2854 ****        26.2500  10.0000  -3.7500 Du        
   2855 ****        26.2500  10.0000  -0.7500 Du        
   2856 ****        26.2500  10.0000  -0.5000 Du        
   2857 ****        26.2500  10.0000  -0.2500 Du        
   2858 ****        26.2500  10.0000   0.0000 Du        
   2859 ****        26.2500  10.0000   0.2500 Du        
   2860 ****        26.2500  10.0000   0.5000 Du        
   2861 ****        26.2500  10.2500  -4.5000 Du        
   2862 ****        26.2500  10.2500  -4.2500 Du        
   2863 ****        26.2500  10.2500  -4.0000 Du        
   2864 ****        26.2500  10.2500  -3.7500 Du        
   2865 ****        26.2500  10.2500  -0.5000 Du        
   2866 ****        26.2500  10.2500  -0.2500 Du        
   2867 ****        26.2500  10.2500   0.0000 Du        
   2868 ****        26.2500  10.2500   0.2500 Du        
   2869 ****        26.2500  10.5000   0.0000 Du        
   2870 ****        26.5000   7.0000  -3.0000 Du        
   2871 ****        26.5000   7.2500 -10.7500 Du        
   2872 ****        26.5000   7.2500 -10.5000 Du        
   2873 ****        26.5000   7.2500 -10.2500 Du        
   2874 ****        26.5000   7.2500  -3.5000 Du        
   2875 ****        26.5000   7.2500  -3.2500 Du        
   2876 ****        26.5000   7.2500  -3.0000 Du        
   2877 ****        26.5000   7.2500  -2.7500 Du        
   2878 ****        26.5000   7.5000 -10.7500 Du        
   2879 ****        26.5000   7.5000 -10.5000 Du        
   2880 ****        26.5000   7.5000 -10.2500 Du        
   2881 ****        26.5000   7.5000 -10.0000 Du        
   2882 ****        26.5000   7.5000  -3.7500 Du        
   2883 ****        26.5000   7.5000  -3.5000 Du        
   2884 ****        26.5000   7.5000  -3.2500 Du        
   2885 ****        26.5000   7.5000  -3.0000 Du        
   2886 ****        26.5000   7.5000  -2.7500 Du        
   2887 ****        26.5000   7.5000  -2.5000 Du        
   2888 ****        26.5000   7.7500 -10.5000 Du        
   2889 ****        26.5000   7.7500 -10.2500 Du        
   2890 ****        26.5000   7.7500 -10.0000 Du        
   2891 ****        26.5000   7.7500  -4.0000 Du        
   2892 ****        26.5000   7.7500  -3.7500 Du        
   2893 ****        26.5000   7.7500  -3.5000 Du        
   2894 ****        26.5000   7.7500  -3.2500 Du        
   2895 ****        26.5000   7.7500  -3.0000 Du        
   2896 ****        26.5000   7.7500  -2.7500 Du        
   2897 ****        26.5000   7.7500  -2.5000 Du        
   2898 ****        26.5000   8.0000 -10.2500 Du        
   2899 ****        26.5000   8.0000 -10.0000 Du        
   2900 ****        26.5000   8.0000  -4.0000 Du        
   2901 ****        26.5000   8.0000  -3.7500 Du        
   2902 ****        26.5000   8.0000  -3.5000 Du        
   2903 ****        26.5000   8.0000  -3.2500 Du        
   2904 ****        26.5000   8.0000  -3.0000 Du        
   2905 ****        26.5000   8.0000  -2.7500 Du        
   2906 ****        26.5000   8.0000  -2.5000 Du        
   2907 ****        26.5000   8.0000  -2.2500 Du        
   2908 ****        26.5000   8.2500  -4.0000 Du        
   2909 ****        26.5000   8.2500  -3.7500 Du        
   2910 ****        26.5000   8.2500  -3.5000 Du        
   2911 ****        26.5000   8.2500  -3.2500 Du        
   2912 ****        26.5000   8.2500  -3.0000 Du        
   2913 ****        26.5000   8.2500  -2.7500 Du        
   2914 ****        26.5000   8.2500  -2.5000 Du        
   2915 ****        26.5000   8.2500  -2.2500 Du        
   2916 ****        26.5000   8.2500  -2.0000 Du        
   2917 ****        26.5000   8.5000  -4.0000 Du        
   2918 ****        26.5000   8.5000  -3.7500 Du        
   2919 ****        26.5000   8.5000  -3.5000 Du        
   2920 ****        26.5000   8.5000  -3.2500 Du        
   2921 ****        26.5000   8.5000  -3.0000 Du        
   2922 ****        26.5000   8.5000  -2.7500 Du        
   2923 ****        26.5000   8.5000  -2.5000 Du        
   2924 ****        26.5000   8.5000  -2.2500 Du        
   2925 ****        26.5000   8.5000  -2.0000 Du        
   2926 ****        26.5000   8.5000  -1.7500 Du        
   2927 ****        26.5000   8.7500  -4.2500 Du        
   2928 ****        26.5000   8.7500  -4.0000 Du        
   2929 ****        26.5000   8.7500  -3.7500 Du        
   2930 ****        26.5000   8.7500  -3.5000 Du        
   2931 ****        26.5000   8.7500  -3.2500 Du        
   2932 ****        26.5000   8.7500  -3.0000 Du        
   2933 ****        26.5000   8.7500  -2.7500 Du        
   2934 ****        26.5000   8.7500  -2.5000 Du        
   2935 ****        26.5000   8.7500  -2.2500 Du        
   2936 ****        26.5000   8.7500  -2.0000 Du        
   2937 ****        26.5000   8.7500  -1.7500 Du        
   2938 ****        26.5000   8.7500  -1.5000 Du        
   2939 ****        26.5000   8.7500  -1.2500 Du        
   2940 ****        26.5000   9.0000  -4.2500 Du        
   2941 ****        26.5000   9.0000  -4.0000 Du        
   2942 ****        26.5000   9.0000  -3.7500 Du        
   2943 ****        26.5000   9.0000  -3.5000 Du        
   2944 ****        26.5000   9.0000  -3.2500 Du        
   2945 ****        26.5000   9.0000  -3.0000 Du        
   2946 ****        26.5000   9.0000  -2.7500 Du        
   2947 ****        26.5000   9.0000  -2.5000 Du        
   2948 ****        26.5000   9.0000  -2.2500 Du        
   2949 ****        26.5000   9.0000  -2.0000 Du        
   2950 ****        26.5000   9.0000  -1.7500 Du        
   2951 ****        26.5000   9.0000  -1.5000 Du        
   2952 ****        26.5000   9.0000  -1.2500 Du        
   2953 ****        26.5000   9.0000  -1.0000 Du        
   2954 ****        26.5000   9.0000  -0.7500 Du        
   2955 ****        26.5000   9.2500  -4.5000 Du        
   2956 ****        26.5000   9.2500  -4.2500 Du        
   2957 ****        26.5000   9.2500  -4.0000 Du        
   2958 ****        26.5000   9.2500  -3.7500 Du        
   2959 ****        26.5000   9.2500  -3.5000 Du        
   2960 ****        26.5000   9.2500  -3.2500 Du        
   2961 ****        26.5000   9.2500  -3.0000 Du        
   2962 ****        26.5000   9.2500  -2.7500 Du        
   2963 ****        26.5000   9.2500  -2.5000 Du        
   2964 ****        26.5000   9.2500  -2.2500 Du        
   2965 ****        26.5000   9.2500  -2.0000 Du        
   2966 ****        26.5000   9.2500  -1.7500 Du        
   2967 ****        26.5000   9.2500  -1.5000 Du        
   2968 ****        26.5000   9.2500  -1.2500 Du        
   2969 ****        26.5000   9.2500  -1.0000 Du        
   2970 ****        26.5000   9.2500  -0.7500 Du        
   2971 ****        26.5000   9.2500  -0.5000 Du        
   2972 ****        26.5000   9.2500  -0.2500 Du        
   2973 ****        26.5000   9.2500   0.0000 Du        
   2974 ****        26.5000   9.5000  -4.7500 Du        
   2975 ****        26.5000   9.5000  -4.5000 Du        
   2976 ****        26.5000   9.5000  -4.2500 Du        
   2977 ****        26.5000   9.5000  -4.0000 Du        
   2978 ****        26.5000   9.5000  -3.7500 Du        
   2979 ****        26.5000   9.5000  -3.5000 Du        
   2980 ****        26.5000   9.5000  -3.2500 Du        
   2981 ****        26.5000   9.5000  -1.7500 Du        
   2982 ****        26.5000   9.5000  -1.5000 Du        
   2983 ****        26.5000   9.5000  -1.2500 Du        
   2984 ****        26.5000   9.5000  -1.0000 Du        
   2985 ****        26.5000   9.5000  -0.7500 Du        
   2986 ****        26.5000   9.5000  -0.5000 Du        
   2987 ****        26.5000   9.5000  -0.2500 Du        
   2988 ****        26.5000   9.5000   0.0000 Du        
   2989 ****        26.5000   9.5000   0.2500 Du        
   2990 ****        26.5000   9.7500  -5.2500 Du        
   2991 ****        26.5000   9.7500  -5.0000 Du        
   2992 ****        26.5000   9.7500  -4.7500 Du        
   2993 ****        26.5000   9.7500  -4.5000 Du        
   2994 ****        26.5000   9.7500  -4.2500 Du        
   2995 ****        26.5000   9.7500  -4.0000 Du        
   2996 ****        26.5000   9.7500  -3.7500 Du        
   2997 ****        26.5000   9.7500  -3.5000 Du        
   2998 ****        26.5000   9.7500  -3.2500 Du        
   2999 ****        26.5000   9.7500  -1.2500 Du        
   3000 ****        26.5000   9.7500  -1.0000 Du        
   3001 ****        26.5000   9.7500  -0.7500 Du        
   3002 ****        26.5000   9.7500  -0.5000 Du        
   3003 ****        26.5000   9.7500  -0.2500 Du        
   3004 ****        26.5000   9.7500   0.0000 Du        
   3005 ****        26.5000   9.7500   0.2500 Du        
   3006 ****        26.5000   9.7500   0.5000 Du        
   3007 ****        26.5000  10.0000  -5.2500 Du        
   3008 ****        26.5000  10.0000  -5.0000 Du        
   3009 ****        26.5000  10.0000  -4.7500 Du        
   3010 ****        26.5000  10.0000  -4.5000 Du        
   3011 ****        26.5000  10.0000  -4.2500 Du        
   3012 ****        26.5000  10.0000  -4.0000 Du        
   3013 ****        26.5000  10.0000  -3.7500 Du        
   3014 ****        26.5000  10.0000  -0.7500 Du        
   3015 ****        26.5000  10.0000  -0.5000 Du        
   3016 ****        26.5000  10.0000  -0.2500 Du        
   3017 ****        26.5000  10.0000   0.0000 Du        
   3018 ****        26.5000  10.0000   0.2500 Du        
   3019 ****        26.5000  10.0000   0.5000 Du        
   3020 ****        26.5000  10.2500  -5.0000 Du        
   3021 ****        26.5000  10.2500  -4.7500 Du        
   3022 ****        26.5000  10.2500  -4.5000 Du        
   3023 ****        26.5000  10.2500  -4.2500 Du        
   3024 ****        26.5000  10.2500  -4.0000 Du        
   3025 ****        26.5000  10.2500  -3.7500 Du        
   3026 ****        26.5000  10.2500  -0.2500 Du        
   3027 ****        26.5000  10.2500   0.0000 Du        
   3028 ****        26.5000  10.2500   0.2500 Du        
   3029 ****        26.5000  10.2500   0.5000 Du        
   3030 ****        26.5000  10.5000  -4.5000 Du        
   3031 ****        26.5000  10.5000  -4.2500 Du        
   3032 ****        26.5000  10.5000   0.0000 Du        
   3033 ****        26.5000  10.5000   0.2500 Du        
   3034 ****        26.7500   7.0000  -3.5000 Du        
   3035 ****        26.7500   7.0000  -3.2500 Du        
   3036 ****        26.7500   7.0000  -3.0000 Du        
   3037 ****        26.7500   7.2500 -10.5000 Du        
   3038 ****        26.7500   7.2500 -10.2500 Du        
   3039 ****        26.7500   7.2500  -3.7500 Du        
   3040 ****        26.7500   7.2500  -3.5000 Du        
   3041 ****        26.7500   7.2500  -3.2500 Du        
   3042 ****        26.7500   7.2500  -3.0000 Du        
   3043 ****        26.7500   7.2500  -2.7500 Du        
   3044 ****        26.7500   7.5000 -10.5000 Du        
   3045 ****        26.7500   7.5000 -10.2500 Du        
   3046 ****        26.7500   7.5000 -10.0000 Du        
   3047 ****        26.7500   7.5000  -4.0000 Du        
   3048 ****        26.7500   7.5000  -3.7500 Du        
   3049 ****        26.7500   7.5000  -3.5000 Du        
   3050 ****        26.7500   7.5000  -3.2500 Du        
   3051 ****        26.7500   7.5000  -3.0000 Du        
   3052 ****        26.7500   7.5000  -2.7500 Du        
   3053 ****        26.7500   7.7500 -10.2500 Du        
   3054 ****        26.7500   7.7500 -10.0000 Du        
   3055 ****        26.7500   7.7500  -4.0000 Du        
   3056 ****        26.7500   7.7500  -3.7500 Du        
   3057 ****        26.7500   7.7500  -3.5000 Du        
   3058 ****        26.7500   7.7500  -3.2500 Du        
   3059 ****        26.7500   7.7500  -3.0000 Du        
   3060 ****        26.7500   7.7500  -2.7500 Du        
   3061 ****        26.7500   7.7500  -2.5000 Du        
   3062 ****        26.7500   8.0000  -4.0000 Du        
   3063 ****        26.7500   8.0000  -3.7500 Du        
   3064 ****        26.7500   8.0000  -3.5000 Du        
   3065 ****        26.7500   8.0000  -3.2500 Du        
   3066 ****        26.7500   8.0000  -3.0000 Du        
   3067 ****        26.7500   8.0000  -2.7500 Du        
   3068 ****        26.7500   8.0000  -2.5000 Du        
   3069 ****        26.7500   8.0000  -2.2500 Du        
   3070 ****        26.7500   8.2500  -4.0000 Du        
   3071 ****        26.7500   8.2500  -3.7500 Du        
   3072 ****        26.7500   8.2500  -3.5000 Du        
   3073 ****        26.7500   8.2500  -3.2500 Du        
   3074 ****        26.7500   8.2500  -3.0000 Du        
   3075 ****        26.7500   8.2500  -2.7500 Du        
   3076 ****        26.7500   8.2500  -2.5000 Du        
   3077 ****        26.7500   8.2500  -2.2500 Du        
   3078 ****        26.7500   8.2500  -2.0000 Du        
   3079 ****        26.7500   8.5000  -4.2500 Du        
   3080 ****        26.7500   8.5000  -4.0000 Du        
   3081 ****        26.7500   8.5000  -3.7500 Du        
   3082 ****        26.7500   8.5000  -3.5000 Du        
   3083 ****        26.7500   8.5000  -3.2500 Du        
   3084 ****        26.7500   8.5000  -3.0000 Du        
   3085 ****        26.7500   8.5000  -2.7500 Du        
   3086 ****        26.7500   8.5000  -2.5000 Du        
   3087 ****        26.7500   8.5000  -2.2500 Du        
   3088 ****        26.7500   8.5000  -2.0000 Du        
   3089 ****        26.7500   8.7500  -4.5000 Du        
   3090 ****        26.7500   8.7500  -4.2500 Du        
   3091 ****        26.7500   8.7500  -4.0000 Du        
   3092 ****        26.7500   8.7500  -3.7500 Du        
   3093 ****        26.7500   8.7500  -3.5000 Du        
   3094 ****        26.7500   8.7500  -3.2500 Du        
   3095 ****        26.7500   8.7500  -3.0000 Du        
   3096 ****        26.7500   8.7500  -2.7500 Du        
   3097 ****        26.7500   8.7500  -2.5000 Du        
   3098 ****        26.7500   8.7500  -2.2500 Du        
   3099 ****        26.7500   8.7500  -2.0000 Du        
   3100 ****        26.7500   8.7500  -1.7500 Du        
   3101 ****        26.7500   8.7500  -1.5000 Du        
   3102 ****        26.7500   9.0000  -4.5000 Du        
   3103 ****        26.7500   9.0000  -4.2500 Du        
   3104 ****        26.7500   9.0000  -4.0000 Du        
   3105 ****        26.7500   9.0000  -3.7500 Du        
   3106 ****        26.7500   9.0000  -3.5000 Du        
   3107 ****        26.7500   9.0000  -3.2500 Du        
   3108 ****        26.7500   9.0000  -3.0000 Du        
   3109 ****        26.7500   9.0000  -2.7500 Du        
   3110 ****        26.7500   9.0000  -2.5000 Du        
   3111 ****        26.7500   9.0000  -2.2500 Du        
   3112 ****        26.7500   9.0000  -2.0000 Du        
   3113 ****        26.7500   9.0000  -1.7500 Du        
   3114 ****        26.7500   9.0000  -1.5000 Du        
   3115 ****        26.7500   9.0000  -1.2500 Du        
   3116 ****        26.7500   9.0000  -1.0000 Du        
   3117 ****        26.7500   9.0000  -0.7500 Du        
   3118 ****        26.7500   9.2500  -4.7500 Du        
   3119 ****        26.7500   9.2500  -4.5000 Du        
   3120 ****        26.7500   9.2500  -4.2500 Du        
   3121 ****        26.7500   9.2500  -4.0000 Du        
   3122 ****        26.7500   9.2500  -3.7500 Du        
   3123 ****        26.7500   9.2500  -3.5000 Du        
   3124 ****        26.7500   9.2500  -3.2500 Du        
   3125 ****        26.7500   9.2500  -3.0000 Du        
   3126 ****        26.7500   9.2500  -2.7500 Du        
   3127 ****        26.7500   9.2500  -2.5000 Du        
   3128 ****        26.7500   9.2500  -2.2500 Du        
   3129 ****        26.7500   9.2500  -2.0000 Du        
   3130 ****        26.7500   9.2500  -1.7500 Du        
   3131 ****        26.7500   9.2500  -1.5000 Du        
   3132 ****        26.7500   9.2500  -1.2500 Du        
   3133 ****        26.7500   9.2500  -1.0000 Du        
   3134 ****        26.7500   9.2500  -0.7500 Du        
   3135 ****        26.7500   9.2500  -0.5000 Du        
   3136 ****        26.7500   9.2500  -0.2500 Du        
   3137 ****        26.7500   9.2500   0.0000 Du        
   3138 ****        26.7500   9.5000  -5.0000 Du        
   3139 ****        26.7500   9.5000  -4.7500 Du        
   3140 ****        26.7500   9.5000  -4.5000 Du        
   3141 ****        26.7500   9.5000  -4.2500 Du        
   3142 ****        26.7500   9.5000  -4.0000 Du        
   3143 ****        26.7500   9.5000  -3.7500 Du        
   3144 ****        26.7500   9.5000  -3.5000 Du        
   3145 ****        26.7500   9.5000  -3.2500 Du        
   3146 ****        26.7500   9.5000  -2.0000 Du        
   3147 ****        26.7500   9.5000  -1.7500 Du        
   3148 ****        26.7500   9.5000  -1.5000 Du        
   3149 ****        26.7500   9.5000  -1.2500 Du        
   3150 ****        26.7500   9.5000  -1.0000 Du        
   3151 ****        26.7500   9.5000  -0.7500 Du        
   3152 ****        26.7500   9.5000  -0.5000 Du        
   3153 ****        26.7500   9.5000  -0.2500 Du        
   3154 ****        26.7500   9.5000   0.0000 Du        
   3155 ****        26.7500   9.5000   0.2500 Du        
   3156 ****        26.7500   9.5000   0.5000 Du        
   3157 ****        26.7500   9.7500  -5.5000 Du        
   3158 ****        26.7500   9.7500  -5.2500 Du        
   3159 ****        26.7500   9.7500  -5.0000 Du        
   3160 ****        26.7500   9.7500  -4.7500 Du        
   3161 ****        26.7500   9.7500  -4.5000 Du        
   3162 ****        26.7500   9.7500  -4.2500 Du        
   3163 ****        26.7500   9.7500  -4.0000 Du        
   3164 ****        26.7500   9.7500  -3.7500 Du        
   3165 ****        26.7500   9.7500  -3.5000 Du        
   3166 ****        26.7500   9.7500  -3.2500 Du        
   3167 ****        26.7500   9.7500  -1.2500 Du        
   3168 ****        26.7500   9.7500  -1.0000 Du        
   3169 ****        26.7500   9.7500  -0.7500 Du        
   3170 ****        26.7500   9.7500  -0.5000 Du        
   3171 ****        26.7500   9.7500  -0.2500 Du        
   3172 ****        26.7500   9.7500   0.0000 Du        
   3173 ****        26.7500   9.7500   0.2500 Du        
   3174 ****        26.7500   9.7500   0.5000 Du        
   3175 ****        26.7500   9.7500   0.7500 Du        
   3176 ****        26.7500  10.0000  -5.7500 Du        
   3177 ****        26.7500  10.0000  -5.5000 Du        
   3178 ****        26.7500  10.0000  -5.2500 Du        
   3179 ****        26.7500  10.0000  -5.0000 Du        
   3180 ****        26.7500  10.0000  -4.7500 Du        
   3181 ****        26.7500  10.0000  -4.5000 Du        
   3182 ****        26.7500  10.0000  -4.2500 Du        
   3183 ****        26.7500  10.0000  -4.0000 Du        
   3184 ****        26.7500  10.0000  -3.7500 Du        
   3185 ****        26.7500  10.0000  -0.7500 Du        
   3186 ****        26.7500  10.0000  -0.5000 Du        
   3187 ****        26.7500  10.0000  -0.2500 Du        
   3188 ****        26.7500  10.0000   0.0000 Du        
   3189 ****        26.7500  10.0000   0.2500 Du        
   3190 ****        26.7500  10.0000   0.5000 Du        
   3191 ****        26.7500  10.0000   0.7500 Du        
   3192 ****        26.7500  10.2500  -5.2500 Du        
   3193 ****        26.7500  10.2500  -5.0000 Du        
   3194 ****        26.7500  10.2500  -4.7500 Du        
   3195 ****        26.7500  10.2500  -4.5000 Du        
   3196 ****        26.7500  10.2500  -4.2500 Du        
   3197 ****        26.7500  10.2500  -4.0000 Du        
   3198 ****        26.7500  10.2500  -3.7500 Du        
   3199 ****        26.7500  10.2500  -0.2500 Du        
   3200 ****        26.7500  10.2500   0.0000 Du        
   3201 ****        26.7500  10.2500   0.2500 Du        
   3202 ****        26.7500  10.2500   0.5000 Du        
   3203 ****        26.7500  10.5000  -5.0000 Du        
   3204 ****        26.7500  10.5000  -4.7500 Du        
   3205 ****        26.7500  10.5000  -4.5000 Du        
   3206 ****        26.7500  10.5000  -4.2500 Du        
   3207 ****        26.7500  10.5000  -4.0000 Du        
   3208 ****        26.7500  10.5000   0.0000 Du        
   3209 ****        26.7500  10.5000   0.2500 Du        
   3210 ****        26.7500  10.7500  -4.5000 Du        
   3211 ****        27.0000   6.7500  -3.2500 Du        
   3212 ****        27.0000   7.0000  -3.7500 Du        
   3213 ****        27.0000   7.0000  -3.5000 Du        
   3214 ****        27.0000   7.0000  -3.2500 Du        
   3215 ****        27.0000   7.0000  -3.0000 Du        
   3216 ****        27.0000   7.2500  -4.0000 Du        
   3217 ****        27.0000   7.2500  -3.7500 Du        
   3218 ****        27.0000   7.2500  -3.5000 Du        
   3219 ****        27.0000   7.2500  -3.2500 Du        
   3220 ****        27.0000   7.2500  -3.0000 Du        
   3221 ****        27.0000   7.2500  -2.7500 Du        
   3222 ****        27.0000   7.5000  -4.0000 Du        
   3223 ****        27.0000   7.5000  -3.7500 Du        
   3224 ****        27.0000   7.5000  -3.5000 Du        
   3225 ****        27.0000   7.5000  -3.2500 Du        
   3226 ****        27.0000   7.5000  -3.0000 Du        
   3227 ****        27.0000   7.5000  -2.7500 Du        
   3228 ****        27.0000   7.7500  -4.0000 Du        
   3229 ****        27.0000   7.7500  -3.7500 Du        
   3230 ****        27.0000   7.7500  -3.5000 Du        
   3231 ****        27.0000   7.7500  -3.2500 Du        
   3232 ****        27.0000   7.7500  -3.0000 Du        
   3233 ****        27.0000   7.7500  -2.7500 Du        
   3234 ****        27.0000   8.0000  -4.2500 Du        
   3235 ****        27.0000   8.0000  -4.0000 Du        
   3236 ****        27.0000   8.0000  -3.7500 Du        
   3237 ****        27.0000   8.0000  -3.5000 Du        
   3238 ****        27.0000   8.0000  -3.2500 Du        
   3239 ****        27.0000   8.0000  -3.0000 Du        
   3240 ****        27.0000   8.0000  -2.7500 Du        
   3241 ****        27.0000   8.0000  -2.5000 Du        
   3242 ****        27.0000   8.2500  -4.2500 Du        
   3243 ****        27.0000   8.2500  -4.0000 Du        
   3244 ****        27.0000   8.2500  -3.7500 Du        
   3245 ****        27.0000   8.2500  -3.5000 Du        
   3246 ****        27.0000   8.2500  -3.2500 Du        
   3247 ****        27.0000   8.2500  -3.0000 Du        
   3248 ****        27.0000   8.2500  -2.7500 Du        
   3249 ****        27.0000   8.2500  -2.5000 Du        
   3250 ****        27.0000   8.2500  -2.2500 Du        
   3251 ****        27.0000   8.5000  -4.2500 Du        
   3252 ****        27.0000   8.5000  -4.0000 Du        
   3253 ****        27.0000   8.5000  -3.7500 Du        
   3254 ****        27.0000   8.5000  -3.5000 Du        
   3255 ****        27.0000   8.5000  -3.2500 Du        
   3256 ****        27.0000   8.5000  -3.0000 Du        
   3257 ****        27.0000   8.5000  -2.7500 Du        
   3258 ****        27.0000   8.5000  -2.5000 Du        
   3259 ****        27.0000   8.5000  -2.2500 Du        
   3260 ****        27.0000   8.5000  -2.0000 Du        
   3261 ****        27.0000   8.7500  -4.5000 Du        
   3262 ****        27.0000   8.7500  -4.2500 Du        
   3263 ****        27.0000   8.7500  -4.0000 Du        
   3264 ****        27.0000   8.7500  -3.7500 Du        
   3265 ****        27.0000   8.7500  -3.5000 Du        
   3266 ****        27.0000   8.7500  -3.2500 Du        
   3267 ****        27.0000   8.7500  -3.0000 Du        
   3268 ****        27.0000   8.7500  -2.7500 Du        
   3269 ****        27.0000   8.7500  -2.5000 Du        
   3270 ****        27.0000   8.7500  -2.2500 Du        
   3271 ****        27.0000   8.7500  -2.0000 Du        
   3272 ****        27.0000   8.7500  -1.7500 Du        
   3273 ****        27.0000   9.0000  -4.7500 Du        
   3274 ****        27.0000   9.0000  -4.5000 Du        
   3275 ****        27.0000   9.0000  -4.2500 Du        
   3276 ****        27.0000   9.0000  -4.0000 Du        
   3277 ****        27.0000   9.0000  -3.7500 Du        
   3278 ****        27.0000   9.0000  -3.5000 Du        
   3279 ****        27.0000   9.0000  -3.2500 Du        
   3280 ****        27.0000   9.0000  -3.0000 Du        
   3281 ****        27.0000   9.0000  -2.7500 Du        
   3282 ****        27.0000   9.0000  -2.5000 Du        
   3283 ****        27.0000   9.0000  -2.2500 Du        
   3284 ****        27.0000   9.0000  -2.0000 Du        
   3285 ****        27.0000   9.0000  -1.7500 Du        
   3286 ****        27.0000   9.0000  -1.5000 Du        
   3287 ****        27.0000   9.0000  -1.2500 Du        
   3288 ****        27.0000   9.0000  -1.0000 Du        
   3289 ****        27.0000   9.2500  -5.0000 Du        
   3290 ****        27.0000   9.2500  -4.7500 Du        
   3291 ****        27.0000   9.2500  -4.5000 Du        
   3292 ****        27.0000   9.2500  -4.2500 Du        
   3293 ****        27.0000   9.2500  -4.0000 Du        
   3294 ****        27.0000   9.2500  -3.7500 Du        
   3295 ****        27.0000   9.2500  -3.5000 Du        
   3296 ****        27.0000   9.2500  -3.2500 Du        
   3297 ****        27.0000   9.2500  -3.0000 Du        
   3298 ****        27.0000   9.2500  -2.7500 Du        
   3299 ****        27.0000   9.2500  -2.5000 Du        
   3300 ****        27.0000   9.2500  -2.2500 Du        
   3301 ****        27.0000   9.2500  -2.0000 Du        
   3302 ****        27.0000   9.2500  -1.7500 Du        
   3303 ****        27.0000   9.2500  -1.5000 Du        
   3304 ****        27.0000   9.2500  -1.2500 Du        
   3305 ****        27.0000   9.2500  -1.0000 Du        
   3306 ****        27.0000   9.2500  -0.7500 Du        
   3307 ****        27.0000   9.2500  -0.5000 Du        
   3308 ****        27.0000   9.2500  -0.2500 Du        
   3309 ****        27.0000   9.2500   0.0000 Du        
   3310 ****        27.0000   9.5000  -5.2500 Du        
   3311 ****        27.0000   9.5000  -5.0000 Du        
   3312 ****        27.0000   9.5000  -4.7500 Du        
   3313 ****        27.0000   9.5000  -4.5000 Du        
   3314 ****        27.0000   9.5000  -4.2500 Du        
   3315 ****        27.0000   9.5000  -4.0000 Du        
   3316 ****        27.0000   9.5000  -3.7500 Du        
   3317 ****        27.0000   9.5000  -3.5000 Du        
   3318 ****        27.0000   9.5000  -3.2500 Du        
   3319 ****        27.0000   9.5000  -3.0000 Du        
   3320 ****        27.0000   9.5000  -2.0000 Du        
   3321 ****        27.0000   9.5000  -1.7500 Du        
   3322 ****        27.0000   9.5000  -1.5000 Du        
   3323 ****        27.0000   9.5000  -1.2500 Du        
   3324 ****        27.0000   9.5000  -1.0000 Du        
   3325 ****        27.0000   9.5000  -0.7500 Du        
   3326 ****        27.0000   9.5000  -0.5000 Du        
   3327 ****        27.0000   9.5000  -0.2500 Du        
   3328 ****        27.0000   9.5000   0.0000 Du        
   3329 ****        27.0000   9.5000   0.2500 Du        
   3330 ****        27.0000   9.5000   0.5000 Du        
   3331 ****        27.0000   9.7500  -6.0000 Du        
   3332 ****        27.0000   9.7500  -5.7500 Du        
   3333 ****        27.0000   9.7500  -5.5000 Du        
   3334 ****        27.0000   9.7500  -5.2500 Du        
   3335 ****        27.0000   9.7500  -5.0000 Du        
   3336 ****        27.0000   9.7500  -4.7500 Du        
   3337 ****        27.0000   9.7500  -4.5000 Du        
   3338 ****        27.0000   9.7500  -4.2500 Du        
   3339 ****        27.0000   9.7500  -4.0000 Du        
   3340 ****        27.0000   9.7500  -3.7500 Du        
   3341 ****        27.0000   9.7500  -3.5000 Du        
   3342 ****        27.0000   9.7500  -3.2500 Du        
   3343 ****        27.0000   9.7500  -1.2500 Du        
   3344 ****        27.0000   9.7500  -1.0000 Du        
   3345 ****        27.0000   9.7500  -0.7500 Du        
   3346 ****        27.0000   9.7500  -0.5000 Du        
   3347 ****        27.0000   9.7500  -0.2500 Du        
   3348 ****        27.0000   9.7500   0.0000 Du        
   3349 ****        27.0000   9.7500   0.2500 Du        
   3350 ****        27.0000   9.7500   0.5000 Du        
   3351 ****        27.0000   9.7500   0.7500 Du        
   3352 ****        27.0000  10.0000  -6.0000 Du        
   3353 ****        27.0000  10.0000  -5.7500 Du        
   3354 ****        27.0000  10.0000  -5.5000 Du        
   3355 ****        27.0000  10.0000  -5.2500 Du        
   3356 ****        27.0000  10.0000  -5.0000 Du        
   3357 ****        27.0000  10.0000  -4.7500 Du        
   3358 ****        27.0000  10.0000  -4.5000 Du        
   3359 ****        27.0000  10.0000  -4.2500 Du        
   3360 ****        27.0000  10.0000  -4.0000 Du        
   3361 ****        27.0000  10.0000  -3.7500 Du        
   3362 ****        27.0000  10.0000  -0.7500 Du        
   3363 ****        27.0000  10.0000  -0.5000 Du        
   3364 ****        27.0000  10.0000  -0.2500 Du        
   3365 ****        27.0000  10.0000   0.0000 Du        
   3366 ****        27.0000  10.0000   0.2500 Du        
   3367 ****        27.0000  10.0000   0.5000 Du        
   3368 ****        27.0000  10.0000   0.7500 Du        
   3369 ****        27.0000  10.2500  -5.7500 Du        
   3370 ****        27.0000  10.2500  -5.5000 Du        
   3371 ****        27.0000  10.2500  -5.2500 Du        
   3372 ****        27.0000  10.2500  -5.0000 Du        
   3373 ****        27.0000  10.2500  -4.7500 Du        
   3374 ****        27.0000  10.2500  -4.5000 Du        
   3375 ****        27.0000  10.2500  -4.2500 Du        
   3376 ****        27.0000  10.2500  -4.0000 Du        
   3377 ****        27.0000  10.2500  -3.7500 Du        
   3378 ****        27.0000  10.2500  -0.2500 Du        
   3379 ****        27.0000  10.2500   0.0000 Du        
   3380 ****        27.0000  10.2500   0.2500 Du        
   3381 ****        27.0000  10.2500   0.5000 Du        
   3382 ****        27.0000  10.2500   0.7500 Du        
   3383 ****        27.0000  10.5000  -5.5000 Du        
   3384 ****        27.0000  10.5000  -5.2500 Du        
   3385 ****        27.0000  10.5000  -5.0000 Du        
   3386 ****        27.0000  10.5000  -4.7500 Du        
   3387 ****        27.0000  10.5000  -4.5000 Du        
   3388 ****        27.0000  10.5000  -4.2500 Du        
   3389 ****        27.0000  10.5000  -4.0000 Du        
   3390 ****        27.0000  10.5000   0.0000 Du        
   3391 ****        27.0000  10.5000   0.2500 Du        
   3392 ****        27.0000  10.5000   0.5000 Du        
   3393 ****        27.0000  10.7500  -5.2500 Du        
   3394 ****        27.0000  10.7500  -5.0000 Du        
   3395 ****        27.0000  10.7500  -4.7500 Du        
   3396 ****        27.0000  10.7500  -4.5000 Du        
   3397 ****        27.0000  10.7500  -4.2500 Du        
   3398 ****        27.2500   6.7500  -3.7500 Du        
   3399 ****        27.2500   6.7500  -3.5000 Du        
   3400 ****        27.2500   6.7500  -3.2500 Du        
   3401 ****        27.2500   7.0000  -3.7500 Du        
   3402 ****        27.2500   7.0000  -3.5000 Du        
   3403 ****        27.2500   7.0000  -3.2500 Du        
   3404 ****        27.2500   7.0000  -3.0000 Du        
   3405 ****        27.2500   7.2500  -4.0000 Du        
   3406 ****        27.2500   7.2500  -3.7500 Du        
   3407 ****        27.2500   7.2500  -3.5000 Du        
   3408 ****        27.2500   7.2500  -3.2500 Du        
   3409 ****        27.2500   7.2500  -3.0000 Du        
   3410 ****        27.2500   7.5000  -4.0000 Du        
   3411 ****        27.2500   7.5000  -3.7500 Du        
   3412 ****        27.2500   7.5000  -3.5000 Du        
   3413 ****        27.2500   7.5000  -3.2500 Du        
   3414 ****        27.2500   7.5000  -3.0000 Du        
   3415 ****        27.2500   7.7500  -4.0000 Du        
   3416 ****        27.2500   7.7500  -3.7500 Du        
   3417 ****        27.2500   7.7500  -3.5000 Du        
   3418 ****        27.2500   7.7500  -3.2500 Du        
   3419 ****        27.2500   7.7500  -3.0000 Du        
   3420 ****        27.2500   7.7500  -2.7500 Du        
   3421 ****        27.2500   8.0000  -4.2500 Du        
   3422 ****        27.2500   8.0000  -4.0000 Du        
   3423 ****        27.2500   8.0000  -3.7500 Du        
   3424 ****        27.2500   8.0000  -3.5000 Du        
   3425 ****        27.2500   8.0000  -3.2500 Du        
   3426 ****        27.2500   8.0000  -3.0000 Du        
   3427 ****        27.2500   8.0000  -2.7500 Du        
   3428 ****        27.2500   8.0000  -2.5000 Du        
   3429 ****        27.2500   8.2500  -4.2500 Du        
   3430 ****        27.2500   8.2500  -4.0000 Du        
   3431 ****        27.2500   8.2500  -3.7500 Du        
   3432 ****        27.2500   8.2500  -3.5000 Du        
   3433 ****        27.2500   8.2500  -3.2500 Du        
   3434 ****        27.2500   8.2500  -3.0000 Du        
   3435 ****        27.2500   8.2500  -2.7500 Du        
   3436 ****        27.2500   8.2500  -2.5000 Du        
   3437 ****        27.2500   8.5000  -4.2500 Du        
   3438 ****        27.2500   8.5000  -4.0000 Du        
   3439 ****        27.2500   8.5000  -3.7500 Du        
   3440 ****        27.2500   8.5000  -3.5000 Du        
   3441 ****        27.2500   8.5000  -3.2500 Du        
   3442 ****        27.2500   8.5000  -3.0000 Du        
   3443 ****        27.2500   8.5000  -2.7500 Du        
   3444 ****        27.2500   8.5000  -2.5000 Du        
   3445 ****        27.2500   8.5000  -2.2500 Du        
   3446 ****        27.2500   8.7500  -4.5000 Du        
   3447 ****        27.2500   8.7500  -4.2500 Du        
   3448 ****        27.2500   8.7500  -4.0000 Du        
   3449 ****        27.2500   8.7500  -3.7500 Du        
   3450 ****        27.2500   8.7500  -3.5000 Du        
   3451 ****        27.2500   8.7500  -3.2500 Du        
   3452 ****        27.2500   8.7500  -3.0000 Du        
   3453 ****        27.2500   8.7500  -2.7500 Du        
   3454 ****        27.2500   8.7500  -2.5000 Du        
   3455 ****        27.2500   8.7500  -2.2500 Du        
   3456 ****        27.2500   8.7500  -2.0000 Du        
   3457 ****        27.2500   9.0000  -5.0000 Du        
   3458 ****        27.2500   9.0000  -4.7500 Du        
   3459 ****        27.2500   9.0000  -4.5000 Du        
   3460 ****        27.2500   9.0000  -4.2500 Du        
   3461 ****        27.2500   9.0000  -4.0000 Du        
   3462 ****        27.2500   9.0000  -3.7500 Du        
   3463 ****        27.2500   9.0000  -3.5000 Du        
   3464 ****        27.2500   9.0000  -3.2500 Du        
   3465 ****        27.2500   9.0000  -3.0000 Du        
   3466 ****        27.2500   9.0000  -2.7500 Du        
   3467 ****        27.2500   9.0000  -2.5000 Du        
   3468 ****        27.2500   9.0000  -2.2500 Du        
   3469 ****        27.2500   9.0000  -2.0000 Du        
   3470 ****        27.2500   9.0000  -1.7500 Du        
   3471 ****        27.2500   9.0000  -1.5000 Du        
   3472 ****        27.2500   9.0000  -1.2500 Du        
   3473 ****        27.2500   9.2500  -5.2500 Du        
   3474 ****        27.2500   9.2500  -5.0000 Du        
   3475 ****        27.2500   9.2500  -4.7500 Du        
   3476 ****        27.2500   9.2500  -4.5000 Du        
   3477 ****        27.2500   9.2500  -4.2500 Du        
   3478 ****        27.2500   9.2500  -4.0000 Du        
   3479 ****        27.2500   9.2500  -3.7500 Du        
   3480 ****        27.2500   9.2500  -3.5000 Du        
   3481 ****        27.2500   9.2500  -3.2500 Du        
   3482 ****        27.2500   9.2500  -3.0000 Du        
   3483 ****        27.2500   9.2500  -2.7500 Du        
   3484 ****        27.2500   9.2500  -2.5000 Du        
   3485 ****        27.2500   9.2500  -2.2500 Du        
   3486 ****        27.2500   9.2500  -2.0000 Du        
   3487 ****        27.2500   9.2500  -1.7500 Du        
   3488 ****        27.2500   9.2500  -1.5000 Du        
   3489 ****        27.2500   9.2500  -1.2500 Du        
   3490 ****        27.2500   9.2500  -1.0000 Du        
   3491 ****        27.2500   9.2500  -0.7500 Du        
   3492 ****        27.2500   9.2500  -0.5000 Du        
   3493 ****        27.2500   9.5000  -5.5000 Du        
   3494 ****        27.2500   9.5000  -5.2500 Du        
   3495 ****        27.2500   9.5000  -5.0000 Du        
   3496 ****        27.2500   9.5000  -4.7500 Du        
   3497 ****        27.2500   9.5000  -4.5000 Du        
   3498 ****        27.2500   9.5000  -4.2500 Du        
   3499 ****        27.2500   9.5000  -4.0000 Du        
   3500 ****        27.2500   9.5000  -3.7500 Du        
   3501 ****        27.2500   9.5000  -3.5000 Du        
   3502 ****        27.2500   9.5000  -3.2500 Du        
   3503 ****        27.2500   9.5000  -3.0000 Du        
   3504 ****        27.2500   9.5000  -2.2500 Du        
   3505 ****        27.2500   9.5000  -2.0000 Du        
   3506 ****        27.2500   9.5000  -1.7500 Du        
   3507 ****        27.2500   9.5000  -1.5000 Du        
   3508 ****        27.2500   9.5000  -1.2500 Du        
   3509 ****        27.2500   9.5000  -1.0000 Du        
   3510 ****        27.2500   9.5000  -0.7500 Du        
   3511 ****        27.2500   9.5000  -0.5000 Du        
   3512 ****        27.2500   9.5000  -0.2500 Du        
   3513 ****        27.2500   9.5000   0.0000 Du        
   3514 ****        27.2500   9.5000   0.2500 Du        
   3515 ****        27.2500   9.7500  -6.0000 Du        
   3516 ****        27.2500   9.7500  -5.7500 Du        
   3517 ****        27.2500   9.7500  -5.5000 Du        
   3518 ****        27.2500   9.7500  -5.2500 Du        
   3519 ****        27.2500   9.7500  -5.0000 Du        
   3520 ****        27.2500   9.7500  -4.7500 Du        
   3521 ****        27.2500   9.7500  -4.5000 Du        
   3522 ****        27.2500   9.7500  -4.2500 Du        
   3523 ****        27.2500   9.7500  -4.0000 Du        
   3524 ****        27.2500   9.7500  -3.7500 Du        
   3525 ****        27.2500   9.7500  -3.5000 Du        
   3526 ****        27.2500   9.7500  -3.2500 Du        
   3527 ****        27.2500   9.7500  -1.2500 Du        
   3528 ****        27.2500   9.7500  -1.0000 Du        
   3529 ****        27.2500   9.7500  -0.7500 Du        
   3530 ****        27.2500   9.7500  -0.5000 Du        
   3531 ****        27.2500   9.7500  -0.2500 Du        
   3532 ****        27.2500   9.7500   0.0000 Du        
   3533 ****        27.2500   9.7500   0.2500 Du        
   3534 ****        27.2500   9.7500   0.5000 Du        
   3535 ****        27.2500   9.7500   0.7500 Du        
   3536 ****        27.2500  10.0000  -6.0000 Du        
   3537 ****        27.2500  10.0000  -5.7500 Du        
   3538 ****        27.2500  10.0000  -5.5000 Du        
   3539 ****        27.2500  10.0000  -5.2500 Du        
   3540 ****        27.2500  10.0000  -5.0000 Du        
   3541 ****        27.2500  10.0000  -4.7500 Du        
   3542 ****        27.2500  10.0000  -4.5000 Du        
   3543 ****        27.2500  10.0000  -4.2500 Du        
   3544 ****        27.2500  10.0000  -4.0000 Du        
   3545 ****        27.2500  10.0000  -3.7500 Du        
   3546 ****        27.2500  10.0000  -3.5000 Du        
   3547 ****        27.2500  10.0000  -0.7500 Du        
   3548 ****        27.2500  10.0000  -0.5000 Du        
   3549 ****        27.2500  10.0000  -0.2500 Du        
   3550 ****        27.2500  10.0000   0.0000 Du        
   3551 ****        27.2500  10.0000   0.2500 Du        
   3552 ****        27.2500  10.0000   0.5000 Du        
   3553 ****        27.2500  10.0000   0.7500 Du        
   3554 ****        27.2500  10.2500  -5.7500 Du        
   3555 ****        27.2500  10.2500  -5.5000 Du        
   3556 ****        27.2500  10.2500  -5.2500 Du        
   3557 ****        27.2500  10.2500  -5.0000 Du        
   3558 ****        27.2500  10.2500  -4.7500 Du        
   3559 ****        27.2500  10.2500  -4.5000 Du        
   3560 ****        27.2500  10.2500  -4.2500 Du        
   3561 ****        27.2500  10.2500  -4.0000 Du        
   3562 ****        27.2500  10.2500  -3.7500 Du        
   3563 ****        27.2500  10.2500  -0.2500 Du        
   3564 ****        27.2500  10.2500   0.0000 Du        
   3565 ****        27.2500  10.2500   0.2500 Du        
   3566 ****        27.2500  10.2500   0.5000 Du        
   3567 ****        27.2500  10.2500   0.7500 Du        
   3568 ****        27.2500  10.5000  -5.7500 Du        
   3569 ****        27.2500  10.5000  -5.5000 Du        
   3570 ****        27.2500  10.5000  -5.2500 Du        
   3571 ****        27.2500  10.5000  -5.0000 Du        
   3572 ****        27.2500  10.5000  -4.7500 Du        
   3573 ****        27.2500  10.5000  -4.5000 Du        
   3574 ****        27.2500  10.5000  -4.2500 Du        
   3575 ****        27.2500  10.5000  -4.0000 Du        
   3576 ****        27.2500  10.5000   0.0000 Du        
   3577 ****        27.2500  10.5000   0.2500 Du        
   3578 ****        27.2500  10.5000   0.5000 Du        
   3579 ****        27.2500  10.7500  -5.5000 Du        
   3580 ****        27.2500  10.7500  -5.2500 Du        
   3581 ****        27.2500  10.7500  -5.0000 Du        
   3582 ****        27.2500  10.7500  -4.7500 Du        
   3583 ****        27.2500  10.7500  -4.5000 Du        
   3584 ****        27.2500  11.0000  -5.0000 Du        
   3585 ****        27.2500  11.0000  -4.7500 Du        
   3586 ****        27.5000   6.5000  -3.5000 Du        
   3587 ****        27.5000   6.7500  -3.7500 Du        
   3588 ****        27.5000   6.7500  -3.5000 Du        
   3589 ****        27.5000   6.7500  -3.2500 Du        
   3590 ****        27.5000   7.0000  -3.7500 Du        
   3591 ****        27.5000   7.0000  -3.5000 Du        
   3592 ****        27.5000   7.0000  -3.2500 Du        
   3593 ****        27.5000   7.0000  -3.0000 Du        
   3594 ****        27.5000   7.2500  -3.7500 Du        
   3595 ****        27.5000   7.2500  -3.5000 Du        
   3596 ****        27.5000   7.2500  -3.2500 Du        
   3597 ****        27.5000   7.2500  -3.0000 Du        
   3598 ****        27.5000   7.5000  -3.7500 Du        
   3599 ****        27.5000   7.5000  -3.5000 Du        
   3600 ****        27.5000   7.5000  -3.2500 Du        
   3601 ****        27.5000   7.5000  -3.0000 Du        
   3602 ****        27.5000   7.7500  -4.0000 Du        
   3603 ****        27.5000   7.7500  -3.7500 Du        
   3604 ****        27.5000   7.7500  -3.5000 Du        
   3605 ****        27.5000   7.7500  -3.2500 Du        
   3606 ****        27.5000   7.7500  -3.0000 Du        
   3607 ****        27.5000   8.0000  -4.0000 Du        
   3608 ****        27.5000   8.0000  -3.7500 Du        
   3609 ****        27.5000   8.0000  -3.5000 Du        
   3610 ****        27.5000   8.0000  -3.2500 Du        
   3611 ****        27.5000   8.0000  -3.0000 Du        
   3612 ****        27.5000   8.0000  -2.7500 Du        
   3613 ****        27.5000   8.2500  -4.0000 Du        
   3614 ****        27.5000   8.2500  -3.7500 Du        
   3615 ****        27.5000   8.2500  -3.5000 Du        
   3616 ****        27.5000   8.2500  -3.2500 Du        
   3617 ****        27.5000   8.2500  -3.0000 Du        
   3618 ****        27.5000   8.2500  -2.7500 Du        
   3619 ****        27.5000   8.2500  -2.5000 Du        
   3620 ****        27.5000   8.5000  -4.2500 Du        
   3621 ****        27.5000   8.5000  -4.0000 Du        
   3622 ****        27.5000   8.5000  -3.7500 Du        
   3623 ****        27.5000   8.5000  -3.5000 Du        
   3624 ****        27.5000   8.5000  -3.2500 Du        
   3625 ****        27.5000   8.5000  -3.0000 Du        
   3626 ****        27.5000   8.5000  -2.7500 Du        
   3627 ****        27.5000   8.5000  -2.5000 Du        
   3628 ****        27.5000   8.7500  -4.7500 Du        
   3629 ****        27.5000   8.7500  -4.5000 Du        
   3630 ****        27.5000   8.7500  -4.2500 Du        
   3631 ****        27.5000   8.7500  -4.0000 Du        
   3632 ****        27.5000   8.7500  -3.7500 Du        
   3633 ****        27.5000   8.7500  -3.5000 Du        
   3634 ****        27.5000   8.7500  -3.2500 Du        
   3635 ****        27.5000   8.7500  -3.0000 Du        
   3636 ****        27.5000   8.7500  -2.7500 Du        
   3637 ****        27.5000   8.7500  -2.5000 Du        
   3638 ****        27.5000   8.7500  -2.2500 Du        
   3639 ****        27.5000   8.7500  -2.0000 Du        
   3640 ****        27.5000   9.0000  -5.0000 Du        
   3641 ****        27.5000   9.0000  -4.7500 Du        
   3642 ****        27.5000   9.0000  -4.5000 Du        
   3643 ****        27.5000   9.0000  -4.2500 Du        
   3644 ****        27.5000   9.0000  -4.0000 Du        
   3645 ****        27.5000   9.0000  -3.7500 Du        
   3646 ****        27.5000   9.0000  -3.5000 Du        
   3647 ****        27.5000   9.0000  -3.2500 Du        
   3648 ****        27.5000   9.0000  -3.0000 Du        
   3649 ****        27.5000   9.0000  -2.7500 Du        
   3650 ****        27.5000   9.0000  -2.5000 Du        
   3651 ****        27.5000   9.0000  -2.2500 Du        
   3652 ****        27.5000   9.0000  -2.0000 Du        
   3653 ****        27.5000   9.0000  -1.7500 Du        
   3654 ****        27.5000   9.2500  -5.2500 Du        
   3655 ****        27.5000   9.2500  -5.0000 Du        
   3656 ****        27.5000   9.2500  -4.7500 Du        
   3657 ****        27.5000   9.2500  -4.5000 Du        
   3658 ****        27.5000   9.2500  -4.2500 Du        
   3659 ****        27.5000   9.2500  -4.0000 Du        
   3660 ****        27.5000   9.2500  -3.7500 Du        
   3661 ****        27.5000   9.2500  -3.5000 Du        
   3662 ****        27.5000   9.2500  -3.2500 Du        
   3663 ****        27.5000   9.2500  -3.0000 Du        
   3664 ****        27.5000   9.2500  -2.7500 Du        
   3665 ****        27.5000   9.2500  -2.5000 Du        
   3666 ****        27.5000   9.2500  -2.2500 Du        
   3667 ****        27.5000   9.2500  -2.0000 Du        
   3668 ****        27.5000   9.2500  -1.7500 Du        
   3669 ****        27.5000   9.2500  -1.5000 Du        
   3670 ****        27.5000   9.2500  -1.2500 Du        
   3671 ****        27.5000   9.2500  -1.0000 Du        
   3672 ****        27.5000   9.5000  -5.5000 Du        
   3673 ****        27.5000   9.5000  -5.2500 Du        
   3674 ****        27.5000   9.5000  -5.0000 Du        
   3675 ****        27.5000   9.5000  -4.7500 Du        
   3676 ****        27.5000   9.5000  -4.5000 Du        
   3677 ****        27.5000   9.5000  -4.2500 Du        
   3678 ****        27.5000   9.5000  -4.0000 Du        
   3679 ****        27.5000   9.5000  -3.7500 Du        
   3680 ****        27.5000   9.5000  -3.5000 Du        
   3681 ****        27.5000   9.5000  -3.2500 Du        
   3682 ****        27.5000   9.5000  -3.0000 Du        
   3683 ****        27.5000   9.5000  -2.7500 Du        
   3684 ****        27.5000   9.5000  -2.5000 Du        
   3685 ****        27.5000   9.5000  -2.2500 Du        
   3686 ****        27.5000   9.5000  -2.0000 Du        
   3687 ****        27.5000   9.5000  -1.7500 Du        
   3688 ****        27.5000   9.5000  -1.5000 Du        
   3689 ****        27.5000   9.5000  -1.2500 Du        
   3690 ****        27.5000   9.5000  -1.0000 Du        
   3691 ****        27.5000   9.5000  -0.7500 Du        
   3692 ****        27.5000   9.5000  -0.5000 Du        
   3693 ****        27.5000   9.5000  -0.2500 Du        
   3694 ****        27.5000   9.5000   0.0000 Du        
   3695 ****        27.5000   9.7500  -5.7500 Du        
   3696 ****        27.5000   9.7500  -5.5000 Du        
   3697 ****        27.5000   9.7500  -5.2500 Du        
   3698 ****        27.5000   9.7500  -5.0000 Du        
   3699 ****        27.5000   9.7500  -4.7500 Du        
   3700 ****        27.5000   9.7500  -4.5000 Du        
   3701 ****        27.5000   9.7500  -4.2500 Du        
   3702 ****        27.5000   9.7500  -4.0000 Du        
   3703 ****        27.5000   9.7500  -3.7500 Du        
   3704 ****        27.5000   9.7500  -3.5000 Du        
   3705 ****        27.5000   9.7500  -3.2500 Du        
   3706 ****        27.5000   9.7500  -3.0000 Du        
   3707 ****        27.5000   9.7500  -1.5000 Du        
   3708 ****        27.5000   9.7500  -1.2500 Du        
   3709 ****        27.5000   9.7500  -1.0000 Du        
   3710 ****        27.5000   9.7500  -0.7500 Du        
   3711 ****        27.5000   9.7500  -0.5000 Du        
   3712 ****        27.5000   9.7500  -0.2500 Du        
   3713 ****        27.5000   9.7500   0.0000 Du        
   3714 ****        27.5000   9.7500   0.2500 Du        
   3715 ****        27.5000   9.7500   0.5000 Du        
   3716 ****        27.5000   9.7500   0.7500 Du        
   3717 ****        27.5000  10.0000  -5.7500 Du        
   3718 ****        27.5000  10.0000  -5.5000 Du        
   3719 ****        27.5000  10.0000  -5.2500 Du        
   3720 ****        27.5000  10.0000  -5.0000 Du        
   3721 ****        27.5000  10.0000  -4.7500 Du        
   3722 ****        27.5000  10.0000  -4.5000 Du        
   3723 ****        27.5000  10.0000  -4.2500 Du        
   3724 ****        27.5000  10.0000  -4.0000 Du        
   3725 ****        27.5000  10.0000  -3.7500 Du        
   3726 ****        27.5000  10.0000  -3.5000 Du        
   3727 ****        27.5000  10.0000  -0.7500 Du        
   3728 ****        27.5000  10.0000  -0.5000 Du        
   3729 ****        27.5000  10.0000  -0.2500 Du        
   3730 ****        27.5000  10.0000   0.0000 Du        
   3731 ****        27.5000  10.0000   0.2500 Du        
   3732 ****        27.5000  10.0000   0.5000 Du        
   3733 ****        27.5000  10.0000   0.7500 Du        
   3734 ****        27.5000  10.0000   1.0000 Du        
   3735 ****        27.5000  10.2500  -5.7500 Du        
   3736 ****        27.5000  10.2500  -5.5000 Du        
   3737 ****        27.5000  10.2500  -5.2500 Du        
   3738 ****        27.5000  10.2500  -5.0000 Du        
   3739 ****        27.5000  10.2500  -4.7500 Du        
   3740 ****        27.5000  10.2500  -4.5000 Du        
   3741 ****        27.5000  10.2500  -4.2500 Du        
   3742 ****        27.5000  10.2500  -4.0000 Du        
   3743 ****        27.5000  10.2500  -3.7500 Du        
   3744 ****        27.5000  10.2500  -0.2500 Du        
   3745 ****        27.5000  10.2500   0.0000 Du        
   3746 ****        27.5000  10.2500   0.2500 Du        
   3747 ****        27.5000  10.2500   0.5000 Du        
   3748 ****        27.5000  10.2500   0.7500 Du        
   3749 ****        27.5000  10.5000  -5.7500 Du        
   3750 ****        27.5000  10.5000  -5.5000 Du        
   3751 ****        27.5000  10.5000  -5.2500 Du        
   3752 ****        27.5000  10.5000  -5.0000 Du        
   3753 ****        27.5000  10.5000  -4.7500 Du        
   3754 ****        27.5000  10.5000  -4.5000 Du        
   3755 ****        27.5000  10.5000  -4.2500 Du        
   3756 ****        27.5000  10.5000  -4.0000 Du        
   3757 ****        27.5000  10.5000   0.0000 Du        
   3758 ****        27.5000  10.5000   0.2500 Du        
   3759 ****        27.5000  10.5000   0.5000 Du        
   3760 ****        27.5000  10.7500  -5.5000 Du        
   3761 ****        27.5000  10.7500  -5.2500 Du        
   3762 ****        27.5000  10.7500  -5.0000 Du        
   3763 ****        27.5000  10.7500  -4.7500 Du        
   3764 ****        27.5000  10.7500  -4.5000 Du        
   3765 ****        27.5000  11.0000  -5.2500 Du        
   3766 ****        27.5000  11.0000  -5.0000 Du        
   3767 ****        27.5000  11.0000  -4.7500 Du        
   3768 ****        27.7500   6.7500  -3.5000 Du        
   3769 ****        27.7500   6.7500  -3.2500 Du        
   3770 ****        27.7500   7.0000  -3.5000 Du        
   3771 ****        27.7500   7.0000  -3.2500 Du        
   3772 ****        27.7500   7.2500  -3.5000 Du        
   3773 ****        27.7500   7.2500  -3.2500 Du        
   3774 ****        27.7500   7.2500  -3.0000 Du        
   3775 ****        27.7500   7.5000  -3.5000 Du        
   3776 ****        27.7500   7.5000  -3.2500 Du        
   3777 ****        27.7500   7.5000  -3.0000 Du        
   3778 ****        27.7500   7.7500  -3.5000 Du        
   3779 ****        27.7500   7.7500  -3.2500 Du        
   3780 ****        27.7500   7.7500  -3.0000 Du        
   3781 ****        27.7500   8.0000  -3.7500 Du        
   3782 ****        27.7500   8.0000  -3.5000 Du        
   3783 ****        27.7500   8.0000  -3.2500 Du        
   3784 ****        27.7500   8.0000  -3.0000 Du        
   3785 ****        27.7500   8.0000  -2.7500 Du        
   3786 ****        27.7500   8.2500  -3.7500 Du        
   3787 ****        27.7500   8.2500  -3.5000 Du        
   3788 ****        27.7500   8.2500  -3.2500 Du        
   3789 ****        27.7500   8.2500  -3.0000 Du        
   3790 ****        27.7500   8.2500  -2.7500 Du        
   3791 ****        27.7500   8.5000  -4.0000 Du        
   3792 ****        27.7500   8.5000  -3.7500 Du        
   3793 ****        27.7500   8.5000  -3.5000 Du        
   3794 ****        27.7500   8.5000  -3.2500 Du        
   3795 ****        27.7500   8.5000  -3.0000 Du        
   3796 ****        27.7500   8.5000  -2.7500 Du        
   3797 ****        27.7500   8.5000  -2.5000 Du        
   3798 ****        27.7500   8.7500  -4.2500 Du        
   3799 ****        27.7500   8.7500  -4.0000 Du        
   3800 ****        27.7500   8.7500  -3.7500 Du        
   3801 ****        27.7500   8.7500  -3.5000 Du        
   3802 ****        27.7500   8.7500  -3.2500 Du        
   3803 ****        27.7500   8.7500  -3.0000 Du        
   3804 ****        27.7500   8.7500  -2.7500 Du        
   3805 ****        27.7500   8.7500  -2.5000 Du        
   3806 ****        27.7500   8.7500  -2.2500 Du        
   3807 ****        27.7500   9.0000  -5.0000 Du        
   3808 ****        27.7500   9.0000  -4.7500 Du        
   3809 ****        27.7500   9.0000  -4.5000 Du        
   3810 ****        27.7500   9.0000  -4.2500 Du        
   3811 ****        27.7500   9.0000  -4.0000 Du        
   3812 ****        27.7500   9.0000  -3.7500 Du        
   3813 ****        27.7500   9.0000  -3.5000 Du        
   3814 ****        27.7500   9.0000  -3.2500 Du        
   3815 ****        27.7500   9.0000  -3.0000 Du        
   3816 ****        27.7500   9.0000  -2.7500 Du        
   3817 ****        27.7500   9.0000  -2.5000 Du        
   3818 ****        27.7500   9.0000  -2.2500 Du        
   3819 ****        27.7500   9.0000  -2.0000 Du        
   3820 ****        27.7500   9.2500  -5.2500 Du        
   3821 ****        27.7500   9.2500  -5.0000 Du        
   3822 ****        27.7500   9.2500  -4.7500 Du        
   3823 ****        27.7500   9.2500  -4.5000 Du        
   3824 ****        27.7500   9.2500  -4.2500 Du        
   3825 ****        27.7500   9.2500  -4.0000 Du        
   3826 ****        27.7500   9.2500  -3.7500 Du        
   3827 ****        27.7500   9.2500  -3.5000 Du        
   3828 ****        27.7500   9.2500  -3.2500 Du        
   3829 ****        27.7500   9.2500  -3.0000 Du        
   3830 ****        27.7500   9.2500  -2.7500 Du        
   3831 ****        27.7500   9.2500  -2.5000 Du        
   3832 ****        27.7500   9.2500  -2.2500 Du        
   3833 ****        27.7500   9.2500  -2.0000 Du        
   3834 ****        27.7500   9.2500  -1.7500 Du        
   3835 ****        27.7500   9.2500  -1.5000 Du        
   3836 ****        27.7500   9.2500  -1.2500 Du        
   3837 ****        27.7500   9.5000  -5.2500 Du        
   3838 ****        27.7500   9.5000  -5.0000 Du        
   3839 ****        27.7500   9.5000  -4.7500 Du        
   3840 ****        27.7500   9.5000  -4.5000 Du        
   3841 ****        27.7500   9.5000  -4.2500 Du        
   3842 ****        27.7500   9.5000  -4.0000 Du        
   3843 ****        27.7500   9.5000  -3.7500 Du        
   3844 ****        27.7500   9.5000  -3.5000 Du        
   3845 ****        27.7500   9.5000  -3.2500 Du        
   3846 ****        27.7500   9.5000  -3.0000 Du        
   3847 ****        27.7500   9.5000  -2.7500 Du        
   3848 ****        27.7500   9.5000  -2.5000 Du        
   3849 ****        27.7500   9.5000  -2.2500 Du        
   3850 ****        27.7500   9.5000  -2.0000 Du        
   3851 ****        27.7500   9.5000  -1.7500 Du        
   3852 ****        27.7500   9.5000  -1.5000 Du        
   3853 ****        27.7500   9.5000  -1.2500 Du        
   3854 ****        27.7500   9.5000  -1.0000 Du        
   3855 ****        27.7500   9.5000  -0.7500 Du        
   3856 ****        27.7500   9.7500  -5.5000 Du        
   3857 ****        27.7500   9.7500  -5.2500 Du        
   3858 ****        27.7500   9.7500  -5.0000 Du        
   3859 ****        27.7500   9.7500  -4.7500 Du        
   3860 ****        27.7500   9.7500  -4.5000 Du        
   3861 ****        27.7500   9.7500  -4.2500 Du        
   3862 ****        27.7500   9.7500  -4.0000 Du        
   3863 ****        27.7500   9.7500  -3.7500 Du        
   3864 ****        27.7500   9.7500  -3.5000 Du        
   3865 ****        27.7500   9.7500  -3.2500 Du        
   3866 ****        27.7500   9.7500  -3.0000 Du        
   3867 ****        27.7500   9.7500  -2.7500 Du        
   3868 ****        27.7500   9.7500  -1.5000 Du        
   3869 ****        27.7500   9.7500  -1.2500 Du        
   3870 ****        27.7500   9.7500  -1.0000 Du        
   3871 ****        27.7500   9.7500  -0.7500 Du        
   3872 ****        27.7500   9.7500  -0.5000 Du        
   3873 ****        27.7500   9.7500  -0.2500 Du        
   3874 ****        27.7500   9.7500   0.0000 Du        
   3875 ****        27.7500   9.7500   0.2500 Du        
   3876 ****        27.7500   9.7500   0.5000 Du        
   3877 ****        27.7500  10.0000  -5.7500 Du        
   3878 ****        27.7500  10.0000  -5.5000 Du        
   3879 ****        27.7500  10.0000  -5.2500 Du        
   3880 ****        27.7500  10.0000  -5.0000 Du        
   3881 ****        27.7500  10.0000  -4.7500 Du        
   3882 ****        27.7500  10.0000  -4.5000 Du        
   3883 ****        27.7500  10.0000  -4.2500 Du        
   3884 ****        27.7500  10.0000  -4.0000 Du        
   3885 ****        27.7500  10.0000  -3.7500 Du        
   3886 ****        27.7500  10.0000  -3.5000 Du        
   3887 ****        27.7500  10.0000  -0.7500 Du        
   3888 ****        27.7500  10.0000  -0.5000 Du        
   3889 ****        27.7500  10.0000  -0.2500 Du        
   3890 ****        27.7500  10.0000   0.0000 Du        
   3891 ****        27.7500  10.0000   0.2500 Du        
   3892 ****        27.7500  10.0000   0.5000 Du        
   3893 ****        27.7500  10.0000   0.7500 Du        
   3894 ****        27.7500  10.0000   1.0000 Du        
   3895 ****        27.7500  10.2500  -5.7500 Du        
   3896 ****        27.7500  10.2500  -5.5000 Du        
   3897 ****        27.7500  10.2500  -5.2500 Du        
   3898 ****        27.7500  10.2500  -5.0000 Du        
   3899 ****        27.7500  10.2500  -4.7500 Du        
   3900 ****        27.7500  10.2500  -4.5000 Du        
   3901 ****        27.7500  10.2500  -4.2500 Du        
   3902 ****        27.7500  10.2500  -4.0000 Du        
   3903 ****        27.7500  10.2500  -3.7500 Du        
   3904 ****        27.7500  10.2500  -0.2500 Du        
   3905 ****        27.7500  10.2500   0.0000 Du        
   3906 ****        27.7500  10.2500   0.2500 Du        
   3907 ****        27.7500  10.2500   0.5000 Du        
   3908 ****        27.7500  10.2500   0.7500 Du        
   3909 ****        27.7500  10.5000  -5.7500 Du        
   3910 ****        27.7500  10.5000  -5.5000 Du        
   3911 ****        27.7500  10.5000  -5.2500 Du        
   3912 ****        27.7500  10.5000  -5.0000 Du        
   3913 ****        27.7500  10.5000  -4.7500 Du        
   3914 ****        27.7500  10.5000  -4.5000 Du        
   3915 ****        27.7500  10.5000  -4.2500 Du        
   3916 ****        27.7500  10.5000  -4.0000 Du        
   3917 ****        27.7500  10.5000   0.0000 Du        
   3918 ****        27.7500  10.5000   0.2500 Du        
   3919 ****        27.7500  10.5000   0.5000 Du        
   3920 ****        27.7500  10.7500  -5.5000 Du        
   3921 ****        27.7500  10.7500  -5.2500 Du        
   3922 ****        27.7500  10.7500  -5.0000 Du        
   3923 ****        27.7500  10.7500  -4.7500 Du        
   3924 ****        27.7500  10.7500  -4.5000 Du        
   3925 ****        27.7500  11.0000  -5.2500 Du        
   3926 ****        27.7500  11.0000  -5.0000 Du        
   3927 ****        28.0000   7.7500  -3.2500 Du        
   3928 ****        28.0000   8.0000  -3.2500 Du        
   3929 ****        28.0000   8.0000  -3.0000 Du        
   3930 ****        28.0000   8.2500  -3.2500 Du        
   3931 ****        28.0000   8.2500  -3.0000 Du        
   3932 ****        28.0000   8.2500  -2.7500 Du        
   3933 ****        28.0000   8.5000  -3.5000 Du        
   3934 ****        28.0000   8.5000  -3.2500 Du        
   3935 ****        28.0000   8.5000  -3.0000 Du        
   3936 ****        28.0000   8.5000  -2.7500 Du        
   3937 ****        28.0000   8.7500  -4.0000 Du        
   3938 ****        28.0000   8.7500  -3.7500 Du        
   3939 ****        28.0000   8.7500  -3.5000 Du        
   3940 ****        28.0000   8.7500  -3.2500 Du        
   3941 ****        28.0000   8.7500  -3.0000 Du        
   3942 ****        28.0000   8.7500  -2.7500 Du        
   3943 ****        28.0000   8.7500  -2.5000 Du        
   3944 ****        28.0000   9.0000  -4.2500 Du        
   3945 ****        28.0000   9.0000  -4.0000 Du        
   3946 ****        28.0000   9.0000  -3.7500 Du        
   3947 ****        28.0000   9.0000  -3.5000 Du        
   3948 ****        28.0000   9.0000  -3.2500 Du        
   3949 ****        28.0000   9.0000  -3.0000 Du        
   3950 ****        28.0000   9.0000  -2.7500 Du        
   3951 ****        28.0000   9.0000  -2.5000 Du        
   3952 ****        28.0000   9.0000  -2.2500 Du        
   3953 ****        28.0000   9.0000  -2.0000 Du        
   3954 ****        28.0000   9.2500  -5.0000 Du        
   3955 ****        28.0000   9.2500  -4.7500 Du        
   3956 ****        28.0000   9.2500  -4.5000 Du        
   3957 ****        28.0000   9.2500  -4.2500 Du        
   3958 ****        28.0000   9.2500  -4.0000 Du        
   3959 ****        28.0000   9.2500  -3.7500 Du        
   3960 ****        28.0000   9.2500  -3.5000 Du        
   3961 ****        28.0000   9.2500  -3.2500 Du        
   3962 ****        28.0000   9.2500  -3.0000 Du        
   3963 ****        28.0000   9.2500  -2.7500 Du        
   3964 ****        28.0000   9.2500  -2.5000 Du        
   3965 ****        28.0000   9.2500  -2.2500 Du        
   3966 ****        28.0000   9.2500  -2.0000 Du        
   3967 ****        28.0000   9.2500  -1.7500 Du        
   3968 ****        28.0000   9.5000  -5.2500 Du        
   3969 ****        28.0000   9.5000  -5.0000 Du        
   3970 ****        28.0000   9.5000  -4.7500 Du        
   3971 ****        28.0000   9.5000  -4.5000 Du        
   3972 ****        28.0000   9.5000  -4.2500 Du        
   3973 ****        28.0000   9.5000  -4.0000 Du        
   3974 ****        28.0000   9.5000  -3.7500 Du        
   3975 ****        28.0000   9.5000  -3.5000 Du        
   3976 ****        28.0000   9.5000  -3.2500 Du        
   3977 ****        28.0000   9.5000  -3.0000 Du        
   3978 ****        28.0000   9.5000  -2.7500 Du        
   3979 ****        28.0000   9.5000  -2.5000 Du        
   3980 ****        28.0000   9.5000  -2.2500 Du        
   3981 ****        28.0000   9.5000  -2.0000 Du        
   3982 ****        28.0000   9.5000  -1.7500 Du        
   3983 ****        28.0000   9.5000  -1.5000 Du        
   3984 ****        28.0000   9.5000  -1.2500 Du        
   3985 ****        28.0000   9.7500  -5.2500 Du        
   3986 ****        28.0000   9.7500  -5.0000 Du        
   3987 ****        28.0000   9.7500  -4.7500 Du        
   3988 ****        28.0000   9.7500  -4.5000 Du        
   3989 ****        28.0000   9.7500  -4.2500 Du        
   3990 ****        28.0000   9.7500  -4.0000 Du        
   3991 ****        28.0000   9.7500  -3.7500 Du        
   3992 ****        28.0000   9.7500  -3.5000 Du        
   3993 ****        28.0000   9.7500  -3.2500 Du        
   3994 ****        28.0000   9.7500  -3.0000 Du        
   3995 ****        28.0000   9.7500  -2.7500 Du        
   3996 ****        28.0000   9.7500  -2.2500 Du        
   3997 ****        28.0000   9.7500  -2.0000 Du        
   3998 ****        28.0000   9.7500  -1.7500 Du        
   3999 ****        28.0000   9.7500  -1.5000 Du        
   4000 ****        28.0000   9.7500  -1.2500 Du        
   4001 ****        28.0000   9.7500  -1.0000 Du        
   4002 ****        28.0000   9.7500  -0.7500 Du        
   4003 ****        28.0000   9.7500  -0.5000 Du        
   4004 ****        28.0000   9.7500  -0.2500 Du        
   4005 ****        28.0000  10.0000  -5.5000 Du        
   4006 ****        28.0000  10.0000  -5.2500 Du        
   4007 ****        28.0000  10.0000  -5.0000 Du        
   4008 ****        28.0000  10.0000  -4.7500 Du        
   4009 ****        28.0000  10.0000  -4.5000 Du        
   4010 ****        28.0000  10.0000  -4.2500 Du        
   4011 ****        28.0000  10.0000  -4.0000 Du        
   4012 ****        28.0000  10.0000  -3.7500 Du        
   4013 ****        28.0000  10.0000  -3.5000 Du        
   4014 ****        28.0000  10.0000  -3.2500 Du        
   4015 ****        28.0000  10.0000  -1.2500 Du        
   4016 ****        28.0000  10.0000  -1.0000 Du        
   4017 ****        28.0000  10.0000  -0.7500 Du        
   4018 ****        28.0000  10.0000  -0.5000 Du        
   4019 ****        28.0000  10.0000  -0.2500 Du        
   4020 ****        28.0000  10.0000   0.0000 Du        
   4021 ****        28.0000  10.0000   0.2500 Du        
   4022 ****        28.0000  10.0000   0.5000 Du        
   4023 ****        28.0000  10.0000   0.7500 Du        
   4024 ****        28.0000  10.2500  -5.5000 Du        
   4025 ****        28.0000  10.2500  -5.2500 Du        
   4026 ****        28.0000  10.2500  -5.0000 Du        
   4027 ****        28.0000  10.2500  -4.7500 Du        
   4028 ****        28.0000  10.2500  -4.5000 Du        
   4029 ****        28.0000  10.2500  -4.2500 Du        
   4030 ****        28.0000  10.2500  -4.0000 Du        
   4031 ****        28.0000  10.2500  -3.7500 Du        
   4032 ****        28.0000  10.2500  -0.5000 Du        
   4033 ****        28.0000  10.2500  -0.2500 Du        
   4034 ****        28.0000  10.2500   0.0000 Du        
   4035 ****        28.0000  10.2500   0.2500 Du        
   4036 ****        28.0000  10.2500   0.5000 Du        
   4037 ****        28.0000  10.2500   0.7500 Du        
   4038 ****        28.0000  10.5000  -5.7500 Du        
   4039 ****        28.0000  10.5000  -5.5000 Du        
   4040 ****        28.0000  10.5000  -5.2500 Du        
   4041 ****        28.0000  10.5000  -5.0000 Du        
   4042 ****        28.0000  10.5000  -4.7500 Du        
   4043 ****        28.0000  10.5000  -4.5000 Du        
   4044 ****        28.0000  10.5000  -4.2500 Du        
   4045 ****        28.0000  10.5000  -0.2500 Du        
   4046 ****        28.0000  10.5000   0.0000 Du        
   4047 ****        28.0000  10.5000   0.2500 Du        
   4048 ****        28.0000  10.7500  -5.5000 Du        
   4049 ****        28.0000  10.7500  -5.2500 Du        
   4050 ****        28.0000  10.7500  -5.0000 Du        
   4051 ****        28.0000  10.7500  -4.7500 Du        
   4052 ****        28.0000  11.0000  -5.2500 Du        
   4053 ****        28.0000  11.0000  -5.0000 Du        
   4054 ****        28.2500   8.7500  -3.2500 Du        
   4055 ****        28.2500   8.7500  -3.0000 Du        
   4056 ****        28.2500   8.7500  -2.7500 Du        
   4057 ****        28.2500   9.0000  -3.7500 Du        
   4058 ****        28.2500   9.0000  -3.5000 Du        
   4059 ****        28.2500   9.0000  -3.2500 Du        
   4060 ****        28.2500   9.0000  -3.0000 Du        
   4061 ****        28.2500   9.0000  -2.7500 Du        
   4062 ****        28.2500   9.0000  -2.5000 Du        
   4063 ****        28.2500   9.0000  -2.2500 Du        
   4064 ****        28.2500   9.2500  -4.2500 Du        
   4065 ****        28.2500   9.2500  -4.0000 Du        
   4066 ****        28.2500   9.2500  -3.7500 Du        
   4067 ****        28.2500   9.2500  -3.5000 Du        
   4068 ****        28.2500   9.2500  -3.2500 Du        
   4069 ****        28.2500   9.2500  -3.0000 Du        
   4070 ****        28.2500   9.2500  -2.7500 Du        
   4071 ****        28.2500   9.2500  -2.5000 Du        
   4072 ****        28.2500   9.2500  -2.2500 Du        
   4073 ****        28.2500   9.2500  -2.0000 Du        
   4074 ****        28.2500   9.2500  -1.7500 Du        
   4075 ****        28.2500   9.5000  -5.0000 Du        
   4076 ****        28.2500   9.5000  -4.7500 Du        
   4077 ****        28.2500   9.5000  -4.5000 Du        
   4078 ****        28.2500   9.5000  -4.2500 Du        
   4079 ****        28.2500   9.5000  -4.0000 Du        
   4080 ****        28.2500   9.5000  -3.7500 Du        
   4081 ****        28.2500   9.5000  -3.5000 Du        
   4082 ****        28.2500   9.5000  -3.2500 Du        
   4083 ****        28.2500   9.5000  -3.0000 Du        
   4084 ****        28.2500   9.5000  -2.7500 Du        
   4085 ****        28.2500   9.5000  -2.5000 Du        
   4086 ****        28.2500   9.5000  -2.2500 Du        
   4087 ****        28.2500   9.5000  -2.0000 Du        
   4088 ****        28.2500   9.5000  -1.7500 Du        
   4089 ****        28.2500   9.5000  -1.5000 Du        
   4090 ****        28.2500   9.7500  -5.2500 Du        
   4091 ****        28.2500   9.7500  -5.0000 Du        
   4092 ****        28.2500   9.7500  -4.7500 Du        
   4093 ****        28.2500   9.7500  -4.5000 Du        
   4094 ****        28.2500   9.7500  -4.2500 Du        
   4095 ****        28.2500   9.7500  -4.0000 Du        
   4096 ****        28.2500   9.7500  -3.7500 Du        
   4097 ****        28.2500   9.7500  -3.5000 Du        
   4098 ****        28.2500   9.7500  -3.2500 Du        
   4099 ****        28.2500   9.7500  -3.0000 Du        
   4100 ****        28.2500   9.7500  -2.7500 Du        
   4101 ****        28.2500   9.7500  -2.5000 Du        
   4102 ****        28.2500   9.7500  -2.2500 Du        
   4103 ****        28.2500   9.7500  -2.0000 Du        
   4104 ****        28.2500   9.7500  -1.7500 Du        
   4105 ****        28.2500   9.7500  -1.5000 Du        
   4106 ****        28.2500   9.7500  -1.2500 Du        
   4107 ****        28.2500   9.7500  -1.0000 Du        
   4108 ****        28.2500   9.7500  -0.7500 Du        
   4109 ****        28.2500  10.0000  -5.2500 Du        
   4110 ****        28.2500  10.0000  -5.0000 Du        
   4111 ****        28.2500  10.0000  -4.7500 Du        
   4112 ****        28.2500  10.0000  -4.5000 Du        
   4113 ****        28.2500  10.0000  -4.2500 Du        
   4114 ****        28.2500  10.0000  -4.0000 Du        
   4115 ****        28.2500  10.0000  -3.7500 Du        
   4116 ****        28.2500  10.0000  -3.5000 Du        
   4117 ****        28.2500  10.0000  -3.2500 Du        
   4118 ****        28.2500  10.0000  -3.0000 Du        
   4119 ****        28.2500  10.0000  -1.2500 Du        
   4120 ****        28.2500  10.0000  -1.0000 Du        
   4121 ****        28.2500  10.0000  -0.7500 Du        
   4122 ****        28.2500  10.0000  -0.5000 Du        
   4123 ****        28.2500  10.0000  -0.2500 Du        
   4124 ****        28.2500  10.0000   0.0000 Du        
   4125 ****        28.2500  10.0000   0.2500 Du        
   4126 ****        28.2500  10.2500  -5.5000 Du        
   4127 ****        28.2500  10.2500  -5.2500 Du        
   4128 ****        28.2500  10.2500  -5.0000 Du        
   4129 ****        28.2500  10.2500  -4.7500 Du        
   4130 ****        28.2500  10.2500  -4.5000 Du        
   4131 ****        28.2500  10.2500  -4.2500 Du        
   4132 ****        28.2500  10.2500  -4.0000 Du        
   4133 ****        28.2500  10.2500  -3.7500 Du        
   4134 ****        28.2500  10.2500  -0.7500 Du        
   4135 ****        28.2500  10.2500  -0.5000 Du        
   4136 ****        28.2500  10.2500  -0.2500 Du        
   4137 ****        28.2500  10.2500   0.0000 Du        
   4138 ****        28.2500  10.2500   0.2500 Du        
   4139 ****        28.2500  10.5000  -5.5000 Du        
   4140 ****        28.2500  10.5000  -5.2500 Du        
   4141 ****        28.2500  10.5000  -5.0000 Du        
   4142 ****        28.2500  10.5000  -4.7500 Du        
   4143 ****        28.2500  10.5000  -4.5000 Du        
   4144 ****        28.2500  10.5000  -4.2500 Du        
   4145 ****        28.2500  10.5000  -0.2500 Du        
   4146 ****        28.2500  10.5000   0.0000 Du        
   4147 ****        28.2500  10.7500  -5.5000 Du        
   4148 ****        28.2500  10.7500  -5.2500 Du        
   4149 ****        28.2500  10.7500  -5.0000 Du        
   4150 ****        28.2500  10.7500  -4.7500 Du        
   4151 ****        28.5000   9.2500  -4.0000 Du        
   4152 ****        28.5000   9.2500  -3.7500 Du        
   4153 ****        28.5000   9.2500  -3.5000 Du        
   4154 ****        28.5000   9.2500  -3.2500 Du        
   4155 ****        28.5000   9.2500  -3.0000 Du        
   4156 ****        28.5000   9.2500  -2.7500 Du        
   4157 ****        28.5000   9.2500  -2.5000 Du        
   4158 ****        28.5000   9.2500  -2.2500 Du        
   4159 ****        28.5000   9.2500  -2.0000 Du        
   4160 ****        28.5000   9.5000  -4.7500 Du        
   4161 ****        28.5000   9.5000  -4.5000 Du        
   4162 ****        28.5000   9.5000  -4.2500 Du        
   4163 ****        28.5000   9.5000  -4.0000 Du        
   4164 ****        28.5000   9.5000  -3.7500 Du        
   4165 ****        28.5000   9.5000  -3.5000 Du        
   4166 ****        28.5000   9.5000  -3.2500 Du        
   4167 ****        28.5000   9.5000  -3.0000 Du        
   4168 ****        28.5000   9.5000  -2.7500 Du        
   4169 ****        28.5000   9.5000  -2.5000 Du        
   4170 ****        28.5000   9.5000  -2.2500 Du        
   4171 ****        28.5000   9.5000  -2.0000 Du        
   4172 ****        28.5000   9.7500  -5.0000 Du        
   4173 ****        28.5000   9.7500  -4.7500 Du        
   4174 ****        28.5000   9.7500  -4.5000 Du        
   4175 ****        28.5000   9.7500  -4.2500 Du        
   4176 ****        28.5000   9.7500  -4.0000 Du        
   4177 ****        28.5000   9.7500  -3.7500 Du        
   4178 ****        28.5000   9.7500  -3.5000 Du        
   4179 ****        28.5000   9.7500  -3.2500 Du        
   4180 ****        28.5000   9.7500  -3.0000 Du        
   4181 ****        28.5000   9.7500  -2.7500 Du        
   4182 ****        28.5000   9.7500  -2.5000 Du        
   4183 ****        28.5000   9.7500  -2.2500 Du        
   4184 ****        28.5000   9.7500  -2.0000 Du        
   4185 ****        28.5000   9.7500  -1.7500 Du        
   4186 ****        28.5000   9.7500  -1.5000 Du        
   4187 ****        28.5000   9.7500  -1.2500 Du        
   4188 ****        28.5000   9.7500  -1.0000 Du        
   4189 ****        28.5000  10.0000  -5.2500 Du        
   4190 ****        28.5000  10.0000  -5.0000 Du        
   4191 ****        28.5000  10.0000  -4.7500 Du        
   4192 ****        28.5000  10.0000  -4.5000 Du        
   4193 ****        28.5000  10.0000  -4.2500 Du        
   4194 ****        28.5000  10.0000  -4.0000 Du        
   4195 ****        28.5000  10.0000  -3.7500 Du        
   4196 ****        28.5000  10.0000  -3.5000 Du        
   4197 ****        28.5000  10.0000  -3.2500 Du        
   4198 ****        28.5000  10.0000  -3.0000 Du        
   4199 ****        28.5000  10.0000  -2.7500 Du        
   4200 ****        28.5000  10.0000  -1.5000 Du        
   4201 ****        28.5000  10.0000  -1.2500 Du        
   4202 ****        28.5000  10.0000  -1.0000 Du        
   4203 ****        28.5000  10.0000  -0.7500 Du        
   4204 ****        28.5000  10.0000  -0.5000 Du        
   4205 ****        28.5000  10.0000  -0.2500 Du        
   4206 ****        28.5000  10.0000   3.7500 Du        
   4207 ****        28.5000  10.0000   4.0000 Du        
   4208 ****        28.5000  10.0000   4.2500 Du        
   4209 ****        28.5000  10.2500  -5.2500 Du        
   4210 ****        28.5000  10.2500  -5.0000 Du        
   4211 ****        28.5000  10.2500  -4.7500 Du        
   4212 ****        28.5000  10.2500  -4.5000 Du        
   4213 ****        28.5000  10.2500  -4.2500 Du        
   4214 ****        28.5000  10.2500  -4.0000 Du        
   4215 ****        28.5000  10.2500  -3.7500 Du        
   4216 ****        28.5000  10.2500  -1.0000 Du        
   4217 ****        28.5000  10.2500  -0.7500 Du        
   4218 ****        28.5000  10.2500  -0.5000 Du        
   4219 ****        28.5000  10.2500  -0.2500 Du        
   4220 ****        28.5000  10.2500   0.0000 Du        
   4221 ****        28.5000  10.2500   3.5000 Du        
   4222 ****        28.5000  10.2500   3.7500 Du        
   4223 ****        28.5000  10.2500   4.0000 Du        
   4224 ****        28.5000  10.2500   4.2500 Du        
   4225 ****        28.5000  10.5000  -5.5000 Du        
   4226 ****        28.5000  10.5000  -5.2500 Du        
   4227 ****        28.5000  10.5000  -5.0000 Du        
   4228 ****        28.5000  10.5000  -4.7500 Du        
   4229 ****        28.5000  10.5000  -4.5000 Du        
   4230 ****        28.5000  10.5000  -0.5000 Du        
   4231 ****        28.5000  10.5000  -0.2500 Du        
   4232 ****        28.5000  10.5000   3.7500 Du        
   4233 ****        28.5000  10.5000   4.0000 Du        
   4234 ****        28.5000  10.5000   4.2500 Du        
   4235 ****        28.5000  10.7500  -5.5000 Du        
   4236 ****        28.5000  10.7500  -5.2500 Du        
   4237 ****        28.5000  10.7500  -5.0000 Du        
   4238 ****        28.5000  10.7500  -4.7500 Du        
   4239 ****        28.5000  10.7500   4.0000 Du        
   4240 ****        28.5000  10.7500   4.2500 Du        
   4241 ****        28.7500   9.5000  -4.2500 Du        
   4242 ****        28.7500   9.5000  -4.0000 Du        
   4243 ****        28.7500   9.5000  -3.7500 Du        
   4244 ****        28.7500   9.5000  -3.5000 Du        
   4245 ****        28.7500   9.5000  -3.2500 Du        
   4246 ****        28.7500   9.5000  -3.0000 Du        
   4247 ****        28.7500   9.5000  -2.7500 Du        
   4248 ****        28.7500   9.5000  -2.2500 Du        
   4249 ****        28.7500   9.7500  -5.0000 Du        
   4250 ****        28.7500   9.7500  -4.7500 Du        
   4251 ****        28.7500   9.7500  -4.5000 Du        
   4252 ****        28.7500   9.7500  -4.2500 Du        
   4253 ****        28.7500   9.7500  -4.0000 Du        
   4254 ****        28.7500   9.7500  -3.7500 Du        
   4255 ****        28.7500   9.7500  -3.5000 Du        
   4256 ****        28.7500   9.7500  -3.2500 Du        
   4257 ****        28.7500   9.7500  -3.0000 Du        
   4258 ****        28.7500   9.7500  -2.7500 Du        
   4259 ****        28.7500   9.7500  -2.5000 Du        
   4260 ****        28.7500   9.7500  -2.2500 Du        
   4261 ****        28.7500   9.7500  -2.0000 Du        
   4262 ****        28.7500   9.7500  -1.7500 Du        
   4263 ****        28.7500   9.7500  -1.5000 Du        
   4264 ****        28.7500   9.7500  -1.2500 Du        
   4265 ****        28.7500   9.7500  -1.0000 Du        
   4266 ****        28.7500   9.7500   4.0000 Du        
   4267 ****        28.7500   9.7500   4.2500 Du        
   4268 ****        28.7500  10.0000  -5.0000 Du        
   4269 ****        28.7500  10.0000  -4.7500 Du        
   4270 ****        28.7500  10.0000  -4.5000 Du        
   4271 ****        28.7500  10.0000  -4.2500 Du        
   4272 ****        28.7500  10.0000  -4.0000 Du        
   4273 ****        28.7500  10.0000  -3.7500 Du        
   4274 ****        28.7500  10.0000  -3.5000 Du        
   4275 ****        28.7500  10.0000  -3.2500 Du        
   4276 ****        28.7500  10.0000  -3.0000 Du        
   4277 ****        28.7500  10.0000  -2.7500 Du        
   4278 ****        28.7500  10.0000  -2.2500 Du        
   4279 ****        28.7500  10.0000  -2.0000 Du        
   4280 ****        28.7500  10.0000  -1.7500 Du        
   4281 ****        28.7500  10.0000  -1.5000 Du        
   4282 ****        28.7500  10.0000  -1.2500 Du        
   4283 ****        28.7500  10.0000  -1.0000 Du        
   4284 ****        28.7500  10.0000  -0.7500 Du        
   4285 ****        28.7500  10.0000  -0.5000 Du        
   4286 ****        28.7500  10.0000   3.7500 Du        
   4287 ****        28.7500  10.0000   4.0000 Du        
   4288 ****        28.7500  10.0000   4.2500 Du        
   4289 ****        28.7500  10.2500  -5.2500 Du        
   4290 ****        28.7500  10.2500  -5.0000 Du        
   4291 ****        28.7500  10.2500  -4.7500 Du        
   4292 ****        28.7500  10.2500  -4.5000 Du        
   4293 ****        28.7500  10.2500  -4.2500 Du        
   4294 ****        28.7500  10.2500  -4.0000 Du        
   4295 ****        28.7500  10.2500  -3.7500 Du        
   4296 ****        28.7500  10.2500  -1.5000 Du        
   4297 ****        28.7500  10.2500  -1.2500 Du        
   4298 ****        28.7500  10.2500  -1.0000 Du        
   4299 ****        28.7500  10.2500  -0.7500 Du        
   4300 ****        28.7500  10.2500  -0.5000 Du        
   4301 ****        28.7500  10.2500  -0.2500 Du        
   4302 ****        28.7500  10.2500   3.7500 Du        
   4303 ****        28.7500  10.2500   4.0000 Du        
   4304 ****        28.7500  10.2500   4.2500 Du        
   4305 ****        28.7500  10.5000  -5.2500 Du        
   4306 ****        28.7500  10.5000  -5.0000 Du        
   4307 ****        28.7500  10.5000  -4.7500 Du        
   4308 ****        28.7500  10.5000  -4.5000 Du        
   4309 ****        28.7500  10.5000  -1.0000 Du        
   4310 ****        28.7500  10.5000  -0.7500 Du        
   4311 ****        28.7500  10.5000  -0.5000 Du        
   4312 ****        28.7500  10.5000  -0.2500 Du        
   4313 ****        28.7500  10.5000   4.0000 Du        
   4314 ****        28.7500  10.5000   4.2500 Du        
   4315 ****        28.7500  10.7500  -5.2500 Du        
   4316 ****        28.7500  10.7500  -5.0000 Du        
   4317 ****        28.7500  10.7500  -4.7500 Du        
   4318 ****        28.7500  10.7500   4.2500 Du        
   4319 ****        28.7500  11.0000   4.2500 Du        
   4320 ****        29.0000   9.5000   4.2500 Du        
   4321 ****        29.0000   9.7500  -4.7500 Du        
   4322 ****        29.0000   9.7500  -4.5000 Du        
   4323 ****        29.0000   9.7500  -4.2500 Du        
   4324 ****        29.0000   9.7500  -4.0000 Du        
   4325 ****        29.0000   9.7500  -3.7500 Du        
   4326 ****        29.0000   9.7500  -3.5000 Du        
   4327 ****        29.0000   9.7500  -3.2500 Du        
   4328 ****        29.0000   9.7500  -3.0000 Du        
   4329 ****        29.0000   9.7500  -2.7500 Du        
   4330 ****        29.0000   9.7500  -2.5000 Du        
   4331 ****        29.0000   9.7500  -2.2500 Du        
   4332 ****        29.0000   9.7500  -2.0000 Du        
   4333 ****        29.0000   9.7500  -1.7500 Du        
   4334 ****        29.0000   9.7500  -1.5000 Du        
   4335 ****        29.0000   9.7500  -1.2500 Du        
   4336 ****        29.0000   9.7500   4.0000 Du        
   4337 ****        29.0000   9.7500   4.2500 Du        
   4338 ****        29.0000  10.0000  -5.0000 Du        
   4339 ****        29.0000  10.0000  -4.7500 Du        
   4340 ****        29.0000  10.0000  -4.5000 Du        
   4341 ****        29.0000  10.0000  -4.2500 Du        
   4342 ****        29.0000  10.0000  -4.0000 Du        
   4343 ****        29.0000  10.0000  -3.7500 Du        
   4344 ****        29.0000  10.0000  -3.5000 Du        
   4345 ****        29.0000  10.0000  -3.2500 Du        
   4346 ****        29.0000  10.0000  -3.0000 Du        
   4347 ****        29.0000  10.0000  -2.7500 Du        
   4348 ****        29.0000  10.0000  -2.2500 Du        
   4349 ****        29.0000  10.0000  -2.0000 Du        
   4350 ****        29.0000  10.0000  -1.7500 Du        
   4351 ****        29.0000  10.0000  -1.5000 Du        
   4352 ****        29.0000  10.0000  -1.2500 Du        
   4353 ****        29.0000  10.0000  -1.0000 Du        
   4354 ****        29.0000  10.0000  -0.7500 Du        
   4355 ****        29.0000  10.0000  -0.5000 Du        
   4356 ****        29.0000  10.0000   4.0000 Du        
   4357 ****        29.0000  10.0000   4.2500 Du        
   4358 ****        29.0000  10.2500  -5.2500 Du        
   4359 ****        29.0000  10.2500  -5.0000 Du        
   4360 ****        29.0000  10.2500  -4.7500 Du        
   4361 ****        29.0000  10.2500  -4.5000 Du        
   4362 ****        29.0000  10.2500  -4.2500 Du        
   4363 ****        29.0000  10.2500  -4.0000 Du        
   4364 ****        29.0000  10.2500  -3.7500 Du        
   4365 ****        29.0000  10.2500  -2.0000 Du        
   4366 ****        29.0000  10.2500  -1.7500 Du        
   4367 ****        29.0000  10.2500  -1.5000 Du        
   4368 ****        29.0000  10.2500  -1.2500 Du        
   4369 ****        29.0000  10.2500  -1.0000 Du        
   4370 ****        29.0000  10.2500  -0.7500 Du        
   4371 ****        29.0000  10.2500  -0.5000 Du        
   4372 ****        29.0000  10.2500  -0.2500 Du        
   4373 ****        29.0000  10.2500   4.0000 Du        
   4374 ****        29.0000  10.2500   4.2500 Du        
   4375 ****        29.0000  10.5000  -5.2500 Du        
   4376 ****        29.0000  10.5000  -5.0000 Du        
   4377 ****        29.0000  10.5000  -4.7500 Du        
   4378 ****        29.0000  10.5000  -4.5000 Du        
   4379 ****        29.0000  10.5000  -1.2500 Du        
   4380 ****        29.0000  10.5000  -1.0000 Du        
   4381 ****        29.0000  10.5000  -0.7500 Du        
   4382 ****        29.0000  10.5000  -0.5000 Du        
   4383 ****        29.0000  10.5000   4.2500 Du        
   4384 ****        29.0000  10.7500  -5.2500 Du        
   4385 ****        29.0000  10.7500  -5.0000 Du        
   4386 ****        29.0000  10.7500  -1.0000 Du        
   4387 ****        29.0000  10.7500  -0.7500 Du        
   4388 ****        29.2500   9.5000   4.2500 Du        
   4389 ****        29.2500   9.7500  -4.5000 Du        
   4390 ****        29.2500   9.7500  -4.2500 Du        
   4391 ****        29.2500   9.7500  -4.0000 Du        
   4392 ****        29.2500   9.7500  -2.0000 Du        
   4393 ****        29.2500   9.7500  -1.5000 Du        
   4394 ****        29.2500   9.7500  -1.2500 Du        
   4395 ****        29.2500   9.7500   4.2500 Du        
   4396 ****        29.2500  10.0000  -5.0000 Du        
   4397 ****        29.2500  10.0000  -4.7500 Du        
   4398 ****        29.2500  10.0000  -4.5000 Du        
   4399 ****        29.2500  10.0000  -4.2500 Du        
   4400 ****        29.2500  10.0000  -4.0000 Du        
   4401 ****        29.2500  10.0000  -3.7500 Du        
   4402 ****        29.2500  10.0000  -3.5000 Du        
   4403 ****        29.2500  10.0000  -3.2500 Du        
   4404 ****        29.2500  10.0000  -3.0000 Du        
   4405 ****        29.2500  10.0000  -2.7500 Du        
   4406 ****        29.2500  10.0000  -2.2500 Du        
   4407 ****        29.2500  10.0000  -2.0000 Du        
   4408 ****        29.2500  10.0000  -1.7500 Du        
   4409 ****        29.2500  10.0000  -1.5000 Du        
   4410 ****        29.2500  10.0000  -1.2500 Du        
   4411 ****        29.2500  10.0000  -1.0000 Du        
   4412 ****        29.2500  10.0000  -0.7500 Du        
   4413 ****        29.2500  10.2500  -5.0000 Du        
   4414 ****        29.2500  10.2500  -4.7500 Du        
   4415 ****        29.2500  10.2500  -4.5000 Du        
   4416 ****        29.2500  10.2500  -4.2500 Du        
   4417 ****        29.2500  10.2500  -4.0000 Du        
   4418 ****        29.2500  10.2500  -3.7500 Du        
   4419 ****        29.2500  10.2500  -2.0000 Du        
   4420 ****        29.2500  10.2500  -1.7500 Du        
   4421 ****        29.2500  10.2500  -1.5000 Du        
   4422 ****        29.2500  10.2500  -1.2500 Du        
   4423 ****        29.2500  10.2500  -1.0000 Du        
   4424 ****        29.2500  10.2500  -0.7500 Du        
   4425 ****        29.2500  10.2500  -0.5000 Du        
   4426 ****        29.2500  10.5000  -5.2500 Du        
   4427 ****        29.2500  10.5000  -5.0000 Du        
   4428 ****        29.2500  10.5000  -4.7500 Du        
   4429 ****        29.2500  10.5000  -4.5000 Du        
   4430 ****        29.2500  10.5000  -1.7500 Du        
   4431 ****        29.2500  10.5000  -1.5000 Du        
   4432 ****        29.2500  10.5000  -1.2500 Du        
   4433 ****        29.2500  10.5000  -1.0000 Du        
   4434 ****        29.2500  10.5000  -0.7500 Du        
   4435 ****        29.2500  10.5000  -0.5000 Du        
   4436 ****        29.2500  10.7500  -5.2500 Du        
   4437 ****        29.2500  10.7500  -5.0000 Du        
   4438 ****        29.2500  10.7500  -4.7500 Du        
   4439 ****        29.2500  10.7500  -1.2500 Du        
   4440 ****        29.2500  10.7500  -1.0000 Du        
   4441 ****        29.2500  10.7500  -0.7500 Du        
   4442 ****        29.5000  10.0000  -5.0000 Du        
   4443 ****        29.5000  10.0000  -4.7500 Du        
   4444 ****        29.5000  10.0000  -4.5000 Du        
   4445 ****        29.5000  10.0000  -4.2500 Du        
   4446 ****        29.5000  10.0000  -4.0000 Du        
   4447 ****        29.5000  10.0000  -3.7500 Du        
   4448 ****        29.5000  10.0000  -2.5000 Du        
   4449 ****        29.5000  10.0000  -2.2500 Du        
   4450 ****        29.5000  10.0000  -2.0000 Du        
   4451 ****        29.5000  10.0000  -1.7500 Du        
   4452 ****        29.5000  10.0000  -1.5000 Du        
   4453 ****        29.5000  10.0000  -1.2500 Du        
   4454 ****        29.5000  10.0000  -1.0000 Du        
   4455 ****        29.5000  10.0000  -0.7500 Du        
   4456 ****        29.5000  10.2500  -5.0000 Du        
   4457 ****        29.5000  10.2500  -4.7500 Du        
   4458 ****        29.5000  10.2500  -4.5000 Du        
   4459 ****        29.5000  10.2500  -4.2500 Du        
   4460 ****        29.5000  10.2500  -4.0000 Du        
   4461 ****        29.5000  10.2500  -3.7500 Du        
   4462 ****        29.5000  10.2500  -2.2500 Du        
   4463 ****        29.5000  10.2500  -2.0000 Du        
   4464 ****        29.5000  10.2500  -1.7500 Du        
   4465 ****        29.5000  10.2500  -1.5000 Du        
   4466 ****        29.5000  10.2500  -1.2500 Du        
   4467 ****        29.5000  10.2500  -1.0000 Du        
   4468 ****        29.5000  10.2500  -0.7500 Du        
   4469 ****        29.5000  10.2500  -0.5000 Du        
   4470 ****        29.5000  10.5000  -5.2500 Du        
   4471 ****        29.5000  10.5000  -5.0000 Du        
   4472 ****        29.5000  10.5000  -4.7500 Du        
   4473 ****        29.5000  10.5000  -4.5000 Du        
   4474 ****        29.5000  10.5000  -4.2500 Du        
   4475 ****        29.5000  10.5000  -2.0000 Du        
   4476 ****        29.5000  10.5000  -1.7500 Du        
   4477 ****        29.5000  10.5000  -1.5000 Du        
   4478 ****        29.5000  10.5000  -1.2500 Du        
   4479 ****        29.5000  10.5000  -1.0000 Du        
   4480 ****        29.5000  10.5000  -0.7500 Du        
   4481 ****        29.5000  10.5000  -0.5000 Du        
   4482 ****        29.5000  10.7500  -5.2500 Du        
   4483 ****        29.5000  10.7500  -5.0000 Du        
   4484 ****        29.5000  10.7500  -4.7500 Du        
   4485 ****        29.5000  10.7500  -1.5000 Du        
   4486 ****        29.5000  10.7500  -1.2500 Du        
   4487 ****        29.5000  10.7500  -1.0000 Du        
   4488 ****        29.5000  10.7500  -0.7500 Du        
   4489 ****        29.5000  11.0000  -1.2500 Du        
   4490 ****        29.5000  11.0000  -1.0000 Du        
   4491 ****        29.7500  10.0000  -5.0000 Du        
   4492 ****        29.7500  10.0000  -4.7500 Du        
   4493 ****        29.7500  10.0000  -4.5000 Du        
   4494 ****        29.7500  10.0000  -4.2500 Du        
   4495 ****        29.7500  10.0000  -4.0000 Du        
   4496 ****        29.7500  10.0000  -2.2500 Du        
   4497 ****        29.7500  10.0000  -2.0000 Du        
   4498 ****        29.7500  10.0000  -1.7500 Du        
   4499 ****        29.7500  10.0000  -1.5000 Du        
   4500 ****        29.7500  10.0000  -1.2500 Du        
   4501 ****        29.7500  10.0000  -1.0000 Du        
   4502 ****        29.7500  10.0000  -0.7500 Du        
   4503 ****        29.7500  10.2500  -5.0000 Du        
   4504 ****        29.7500  10.2500  -4.7500 Du        
   4505 ****        29.7500  10.2500  -4.5000 Du        
   4506 ****        29.7500  10.2500  -4.2500 Du        
   4507 ****        29.7500  10.2500  -4.0000 Du        
   4508 ****        29.7500  10.2500  -3.7500 Du        
   4509 ****        29.7500  10.2500  -2.7500 Du        
   4510 ****        29.7500  10.2500  -2.5000 Du        
   4511 ****        29.7500  10.2500  -2.2500 Du        
   4512 ****        29.7500  10.2500  -2.0000 Du        
   4513 ****        29.7500  10.2500  -1.7500 Du        
   4514 ****        29.7500  10.2500  -1.5000 Du        
   4515 ****        29.7500  10.2500  -1.2500 Du        
   4516 ****        29.7500  10.2500  -1.0000 Du        
   4517 ****        29.7500  10.2500  -0.7500 Du        
   4518 ****        29.7500  10.2500  -0.5000 Du        
   4519 ****        29.7500  10.5000  -5.2500 Du        
   4520 ****        29.7500  10.5000  -5.0000 Du        
   4521 ****        29.7500  10.5000  -4.7500 Du        
   4522 ****        29.7500  10.5000  -4.5000 Du        
   4523 ****        29.7500  10.5000  -4.2500 Du        
   4524 ****        29.7500  10.5000  -2.2500 Du        
   4525 ****        29.7500  10.5000  -2.0000 Du        
   4526 ****        29.7500  10.5000  -1.7500 Du        
   4527 ****        29.7500  10.5000  -1.5000 Du        
   4528 ****        29.7500  10.5000  -1.2500 Du        
   4529 ****        29.7500  10.5000  -1.0000 Du        
   4530 ****        29.7500  10.5000  -0.7500 Du        
   4531 ****        29.7500  10.5000  -0.5000 Du        
   4532 ****        29.7500  10.7500  -5.2500 Du        
   4533 ****        29.7500  10.7500  -5.0000 Du        
   4534 ****        29.7500  10.7500  -4.7500 Du        
   4535 ****        29.7500  10.7500  -2.0000 Du        
   4536 ****        29.7500  10.7500  -1.7500 Du        
   4537 ****        29.7500  10.7500  -1.5000 Du        
   4538 ****        29.7500  10.7500  -1.2500 Du        
   4539 ****        29.7500  10.7500  -1.0000 Du        
   4540 ****        29.7500  10.7500  -0.7500 Du        
   4541 ****        29.7500  11.0000  -1.5000 Du        
   4542 ****        29.7500  11.0000  -1.2500 Du        
   4543 ****        29.7500  11.0000  -1.0000 Du        
   4544 ****        30.0000  10.0000  -5.0000 Du        
   4545 ****        30.0000  10.0000  -4.7500 Du        
   4546 ****        30.0000  10.0000  -4.5000 Du        
   4547 ****        30.0000  10.0000  -4.2500 Du        
   4548 ****        30.0000  10.0000  -2.2500 Du        
   4549 ****        30.0000  10.0000  -2.0000 Du        
   4550 ****        30.0000  10.0000  -1.7500 Du        
   4551 ****        30.0000  10.0000  -1.5000 Du        
   4552 ****        30.0000  10.0000  -1.2500 Du        
   4553 ****        30.0000  10.0000  -1.0000 Du        
   4554 ****        30.0000  10.0000  -0.7500 Du        
   4555 ****        30.0000  10.2500  -5.2500 Du        
   4556 ****        30.0000  10.2500  -5.0000 Du        
   4557 ****        30.0000  10.2500  -4.7500 Du        
   4558 ****        30.0000  10.2500  -4.5000 Du        
   4559 ****        30.0000  10.2500  -4.2500 Du        
   4560 ****        30.0000  10.2500  -4.0000 Du        
   4561 ****        30.0000  10.2500  -3.7500 Du        
   4562 ****        30.0000  10.2500  -2.7500 Du        
   4563 ****        30.0000  10.2500  -2.5000 Du        
   4564 ****        30.0000  10.2500  -2.2500 Du        
   4565 ****        30.0000  10.2500  -2.0000 Du        
   4566 ****        30.0000  10.2500  -1.7500 Du        
   4567 ****        30.0000  10.2500  -1.5000 Du        
   4568 ****        30.0000  10.2500  -1.2500 Du        
   4569 ****        30.0000  10.2500  -1.0000 Du        
   4570 ****        30.0000  10.2500  -0.7500 Du        
   4571 ****        30.0000  10.2500  -0.5000 Du        
   4572 ****        30.0000  10.5000  -5.2500 Du        
   4573 ****        30.0000  10.5000  -5.0000 Du        
   4574 ****        30.0000  10.5000  -4.7500 Du        
   4575 ****        30.0000  10.5000  -4.5000 Du        
   4576 ****        30.0000  10.5000  -4.2500 Du        
   4577 ****        30.0000  10.5000  -4.0000 Du        
   4578 ****        30.0000  10.5000  -2.7500 Du        
   4579 ****        30.0000  10.5000  -2.5000 Du        
   4580 ****        30.0000  10.5000  -2.2500 Du        
   4581 ****        30.0000  10.5000  -2.0000 Du        
   4582 ****        30.0000  10.5000  -1.7500 Du        
   4583 ****        30.0000  10.5000  -1.5000 Du        
   4584 ****        30.0000  10.5000  -1.2500 Du        
   4585 ****        30.0000  10.5000  -1.0000 Du        
   4586 ****        30.0000  10.5000  -0.7500 Du        
   4587 ****        30.0000  10.5000  -0.5000 Du        
   4588 ****        30.0000  10.7500  -5.2500 Du        
   4589 ****        30.0000  10.7500  -5.0000 Du        
   4590 ****        30.0000  10.7500  -4.7500 Du        
   4591 ****        30.0000  10.7500  -4.5000 Du        
   4592 ****        30.0000  10.7500  -2.2500 Du        
   4593 ****        30.0000  10.7500  -2.0000 Du        
   4594 ****        30.0000  10.7500  -1.7500 Du        
   4595 ****        30.0000  10.7500  -1.5000 Du        
   4596 ****        30.0000  10.7500  -1.2500 Du        
   4597 ****        30.0000  10.7500  -1.0000 Du        
   4598 ****        30.0000  10.7500  -0.7500 Du        
   4599 ****        30.0000  11.0000  -5.0000 Du        
   4600 ****        30.0000  11.0000  -1.7500 Du        
   4601 ****        30.0000  11.0000  -1.5000 Du        
   4602 ****        30.0000  11.0000  -1.2500 Du        
   4603 ****        30.0000  11.0000  -1.0000 Du        
   4604 ****        30.0000  11.2500  -1.2500 Du        
   4605 ****        30.2500  10.0000  -5.0000 Du        
   4606 ****        30.2500  10.0000  -4.7500 Du        
   4607 ****        30.2500  10.0000  -4.5000 Du        
   4608 ****        30.2500  10.0000  -2.0000 Du        
   4609 ****        30.2500  10.0000  -1.7500 Du        
   4610 ****        30.2500  10.0000  -1.5000 Du        
   4611 ****        30.2500  10.0000  -1.2500 Du        
   4612 ****        30.2500  10.0000  -1.0000 Du        
   4613 ****        30.2500  10.0000  -0.7500 Du        
   4614 ****        30.2500  10.2500  -5.2500 Du        
   4615 ****        30.2500  10.2500  -5.0000 Du        
   4616 ****        30.2500  10.2500  -4.7500 Du        
   4617 ****        30.2500  10.2500  -4.5000 Du        
   4618 ****        30.2500  10.2500  -4.2500 Du        
   4619 ****        30.2500  10.2500  -4.0000 Du        
   4620 ****        30.2500  10.2500  -3.7500 Du        
   4621 ****        30.2500  10.2500  -2.7500 Du        
   4622 ****        30.2500  10.2500  -2.5000 Du        
   4623 ****        30.2500  10.2500  -2.2500 Du        
   4624 ****        30.2500  10.2500  -2.0000 Du        
   4625 ****        30.2500  10.2500  -1.7500 Du        
   4626 ****        30.2500  10.2500  -1.5000 Du        
   4627 ****        30.2500  10.2500  -1.2500 Du        
   4628 ****        30.2500  10.2500  -1.0000 Du        
   4629 ****        30.2500  10.2500  -0.7500 Du        
   4630 ****        30.2500  10.2500  -0.5000 Du        
   4631 ****        30.2500  10.5000  -5.2500 Du        
   4632 ****        30.2500  10.5000  -5.0000 Du        
   4633 ****        30.2500  10.5000  -4.7500 Du        
   4634 ****        30.2500  10.5000  -4.5000 Du        
   4635 ****        30.2500  10.5000  -4.2500 Du        
   4636 ****        30.2500  10.5000  -4.0000 Du        
   4637 ****        30.2500  10.5000  -3.7500 Du        
   4638 ****        30.2500  10.5000  -3.0000 Du        
   4639 ****        30.2500  10.5000  -2.7500 Du        
   4640 ****        30.2500  10.5000  -2.5000 Du        
   4641 ****        30.2500  10.5000  -2.2500 Du        
   4642 ****        30.2500  10.5000  -2.0000 Du        
   4643 ****        30.2500  10.5000  -1.7500 Du        
   4644 ****        30.2500  10.5000  -1.5000 Du        
   4645 ****        30.2500  10.5000  -1.2500 Du        
   4646 ****        30.2500  10.5000  -1.0000 Du        
   4647 ****        30.2500  10.5000  -0.7500 Du        
   4648 ****        30.2500  10.7500  -5.2500 Du        
   4649 ****        30.2500  10.7500  -5.0000 Du        
   4650 ****        30.2500  10.7500  -4.7500 Du        
   4651 ****        30.2500  10.7500  -4.5000 Du        
   4652 ****        30.2500  10.7500  -4.2500 Du        
   4653 ****        30.2500  10.7500  -4.0000 Du        
   4654 ****        30.2500  10.7500  -2.2500 Du        
   4655 ****        30.2500  10.7500  -2.0000 Du        
   4656 ****        30.2500  10.7500  -1.7500 Du        
   4657 ****        30.2500  10.7500  -1.5000 Du        
   4658 ****        30.2500  10.7500  -1.2500 Du        
   4659 ****        30.2500  10.7500  -1.0000 Du        
   4660 ****        30.2500  10.7500  -0.7500 Du        
   4661 ****        30.2500  11.0000  -5.0000 Du        
   4662 ****        30.2500  11.0000  -4.7500 Du        
   4663 ****        30.2500  11.0000  -2.0000 Du        
   4664 ****        30.2500  11.0000  -1.7500 Du        
   4665 ****        30.2500  11.0000  -1.5000 Du        
   4666 ****        30.2500  11.0000  -1.2500 Du        
   4667 ****        30.2500  11.0000  -1.0000 Du        
   4668 ****        30.2500  11.2500  -1.5000 Du        
   4669 ****        30.2500  11.2500  -1.2500 Du        
   4670 ****        30.5000  10.0000  -5.0000 Du        
   4671 ****        30.5000  10.0000  -4.7500 Du        
   4672 ****        30.5000  10.0000  -4.5000 Du        
   4673 ****        30.5000  10.0000  -2.0000 Du        
   4674 ****        30.5000  10.0000  -1.7500 Du        
   4675 ****        30.5000  10.0000  -1.5000 Du        
   4676 ****        30.5000  10.0000  -1.2500 Du        
   4677 ****        30.5000  10.0000  -1.0000 Du        
   4678 ****        30.5000  10.0000  -0.7500 Du        
   4679 ****        30.5000  10.2500  -5.2500 Du        
   4680 ****        30.5000  10.2500  -5.0000 Du        
   4681 ****        30.5000  10.2500  -4.7500 Du        
   4682 ****        30.5000  10.2500  -4.5000 Du        
   4683 ****        30.5000  10.2500  -4.2500 Du        
   4684 ****        30.5000  10.2500  -4.0000 Du        
   4685 ****        30.5000  10.2500  -3.7500 Du        
   4686 ****        30.5000  10.2500  -3.5000 Du        
   4687 ****        30.5000  10.2500  -3.0000 Du        
   4688 ****        30.5000  10.2500  -2.7500 Du        
   4689 ****        30.5000  10.2500  -2.5000 Du        
   4690 ****        30.5000  10.2500  -2.2500 Du        
   4691 ****        30.5000  10.2500  -2.0000 Du        
   4692 ****        30.5000  10.2500  -1.7500 Du        
   4693 ****        30.5000  10.2500  -1.5000 Du        
   4694 ****        30.5000  10.2500  -1.2500 Du        
   4695 ****        30.5000  10.2500  -1.0000 Du        
   4696 ****        30.5000  10.2500  -0.7500 Du        
   4697 ****        30.5000  10.2500  -0.5000 Du        
   4698 ****        30.5000  10.5000  -5.2500 Du        
   4699 ****        30.5000  10.5000  -5.0000 Du        
   4700 ****        30.5000  10.5000  -4.7500 Du        
   4701 ****        30.5000  10.5000  -4.5000 Du        
   4702 ****        30.5000  10.5000  -4.2500 Du        
   4703 ****        30.5000  10.5000  -4.0000 Du        
   4704 ****        30.5000  10.5000  -3.7500 Du        
   4705 ****        30.5000  10.5000  -3.5000 Du        
   4706 ****        30.5000  10.5000  -3.2500 Du        
   4707 ****        30.5000  10.5000  -3.0000 Du        
   4708 ****        30.5000  10.5000  -2.7500 Du        
   4709 ****        30.5000  10.5000  -2.5000 Du        
   4710 ****        30.5000  10.5000  -2.2500 Du        
   4711 ****        30.5000  10.5000  -2.0000 Du        
   4712 ****        30.5000  10.5000  -1.7500 Du        
   4713 ****        30.5000  10.5000  -1.5000 Du        
   4714 ****        30.5000  10.5000  -1.2500 Du        
   4715 ****        30.5000  10.5000  -1.0000 Du        
   4716 ****        30.5000  10.5000  -0.7500 Du        
   4717 ****        30.5000  10.7500  -5.2500 Du        
   4718 ****        30.5000  10.7500  -5.0000 Du        
   4719 ****        30.5000  10.7500  -4.7500 Du        
   4720 ****        30.5000  10.7500  -4.5000 Du        
   4721 ****        30.5000  10.7500  -4.2500 Du        
   4722 ****        30.5000  10.7500  -4.0000 Du        
   4723 ****        30.5000  10.7500  -3.7500 Du        
   4724 ****        30.5000  10.7500  -3.2500 Du        
   4725 ****        30.5000  10.7500  -3.0000 Du        
   4726 ****        30.5000  10.7500  -2.7500 Du        
   4727 ****        30.5000  10.7500  -2.5000 Du        
   4728 ****        30.5000  10.7500  -2.2500 Du        
   4729 ****        30.5000  10.7500  -2.0000 Du        
   4730 ****        30.5000  10.7500  -1.7500 Du        
   4731 ****        30.5000  10.7500  -1.5000 Du        
   4732 ****        30.5000  10.7500  -1.2500 Du        
   4733 ****        30.5000  10.7500  -1.0000 Du        
   4734 ****        30.5000  10.7500  -0.7500 Du        
   4735 ****        30.5000  11.0000  -5.0000 Du        
   4736 ****        30.5000  11.0000  -4.7500 Du        
   4737 ****        30.5000  11.0000  -4.5000 Du        
   4738 ****        30.5000  11.0000  -2.0000 Du        
   4739 ****        30.5000  11.0000  -1.7500 Du        
   4740 ****        30.5000  11.0000  -1.5000 Du        
   4741 ****        30.5000  11.0000  -1.2500 Du        
   4742 ****        30.5000  11.0000  -1.0000 Du        
   4743 ****        30.5000  11.2500  -1.5000 Du        
   4744 ****        30.5000  11.2500  -1.2500 Du        
   4745 ****        30.7500  10.0000  -5.2500 Du        
   4746 ****        30.7500  10.0000  -5.0000 Du        
   4747 ****        30.7500  10.0000  -4.7500 Du        
   4748 ****        30.7500  10.0000  -2.0000 Du        
   4749 ****        30.7500  10.0000  -1.7500 Du        
   4750 ****        30.7500  10.0000  -1.5000 Du        
   4751 ****        30.7500  10.0000  -1.2500 Du        
   4752 ****        30.7500  10.0000  -1.0000 Du        
   4753 ****        30.7500  10.0000  -0.7500 Du        
   4754 ****        30.7500  10.0000  -0.5000 Du        
   4755 ****        30.7500  10.2500  -5.2500 Du        
   4756 ****        30.7500  10.2500  -5.0000 Du        
   4757 ****        30.7500  10.2500  -4.7500 Du        
   4758 ****        30.7500  10.2500  -4.5000 Du        
   4759 ****        30.7500  10.2500  -4.2500 Du        
   4760 ****        30.7500  10.2500  -4.0000 Du        
   4761 ****        30.7500  10.2500  -3.7500 Du        
   4762 ****        30.7500  10.2500  -3.5000 Du        
   4763 ****        30.7500  10.2500  -3.0000 Du        
   4764 ****        30.7500  10.2500  -2.7500 Du        
   4765 ****        30.7500  10.2500  -2.5000 Du        
   4766 ****        30.7500  10.2500  -2.2500 Du        
   4767 ****        30.7500  10.2500  -2.0000 Du        
   4768 ****        30.7500  10.2500  -1.7500 Du        
   4769 ****        30.7500  10.2500  -1.5000 Du        
   4770 ****        30.7500  10.2500  -1.2500 Du        
   4771 ****        30.7500  10.2500  -1.0000 Du        
   4772 ****        30.7500  10.2500  -0.7500 Du        
   4773 ****        30.7500  10.2500  -0.5000 Du        
   4774 ****        30.7500  10.5000  -5.2500 Du        
   4775 ****        30.7500  10.5000  -5.0000 Du        
   4776 ****        30.7500  10.5000  -4.7500 Du        
   4777 ****        30.7500  10.5000  -4.5000 Du        
   4778 ****        30.7500  10.5000  -4.2500 Du        
   4779 ****        30.7500  10.5000  -4.0000 Du        
   4780 ****        30.7500  10.5000  -3.7500 Du        
   4781 ****        30.7500  10.5000  -3.5000 Du        
   4782 ****        30.7500  10.5000  -3.2500 Du        
   4783 ****        30.7500  10.5000  -3.0000 Du        
   4784 ****        30.7500  10.5000  -2.7500 Du        
   4785 ****        30.7500  10.5000  -2.5000 Du        
   4786 ****        30.7500  10.5000  -2.2500 Du        
   4787 ****        30.7500  10.5000  -2.0000 Du        
   4788 ****        30.7500  10.5000  -1.7500 Du        
   4789 ****        30.7500  10.5000  -1.5000 Du        
   4790 ****        30.7500  10.5000  -1.2500 Du        
   4791 ****        30.7500  10.5000  -1.0000 Du        
   4792 ****        30.7500  10.5000  -0.7500 Du        
   4793 ****        30.7500  10.7500  -5.2500 Du        
   4794 ****        30.7500  10.7500  -5.0000 Du        
   4795 ****        30.7500  10.7500  -4.7500 Du        
   4796 ****        30.7500  10.7500  -4.5000 Du        
   4797 ****        30.7500  10.7500  -4.2500 Du        
   4798 ****        30.7500  10.7500  -4.0000 Du        
   4799 ****        30.7500  10.7500  -3.7500 Du        
   4800 ****        30.7500  10.7500  -3.5000 Du        
   4801 ****        30.7500  10.7500  -3.2500 Du        
   4802 ****        30.7500  10.7500  -3.0000 Du        
   4803 ****        30.7500  10.7500  -2.7500 Du        
   4804 ****        30.7500  10.7500  -2.5000 Du        
   4805 ****        30.7500  10.7500  -2.2500 Du        
   4806 ****        30.7500  10.7500  -2.0000 Du        
   4807 ****        30.7500  10.7500  -1.7500 Du        
   4808 ****        30.7500  10.7500  -1.5000 Du        
   4809 ****        30.7500  10.7500  -1.2500 Du        
   4810 ****        30.7500  10.7500  -1.0000 Du        
   4811 ****        30.7500  10.7500  -0.7500 Du        
   4812 ****        30.7500  11.0000  -5.0000 Du        
   4813 ****        30.7500  11.0000  -4.7500 Du        
   4814 ****        30.7500  11.0000  -4.5000 Du        
   4815 ****        30.7500  11.0000  -4.2500 Du        
   4816 ****        30.7500  11.0000  -4.0000 Du        
   4817 ****        30.7500  11.0000  -2.0000 Du        
   4818 ****        30.7500  11.0000  -1.7500 Du        
   4819 ****        30.7500  11.0000  -1.5000 Du        
   4820 ****        30.7500  11.0000  -1.2500 Du        
   4821 ****        30.7500  11.0000  -1.0000 Du        
   4822 ****        30.7500  11.2500  -1.5000 Du        
   4823 ****        30.7500  11.2500  -1.2500 Du        
   4824 ****        31.0000  10.0000  -5.2500 Du        
   4825 ****        31.0000  10.0000  -5.0000 Du        
   4826 ****        31.0000  10.0000  -4.7500 Du        
   4827 ****        31.0000  10.0000  -2.0000 Du        
   4828 ****        31.0000  10.0000  -1.7500 Du        
   4829 ****        31.0000  10.0000  -1.5000 Du        
   4830 ****        31.0000  10.0000  -1.2500 Du        
   4831 ****        31.0000  10.0000  -1.0000 Du        
   4832 ****        31.0000  10.0000  -0.7500 Du        
   4833 ****        31.0000  10.0000  -0.5000 Du        
   4834 ****        31.0000  10.2500  -5.5000 Du        
   4835 ****        31.0000  10.2500  -5.2500 Du        
   4836 ****        31.0000  10.2500  -5.0000 Du        
   4837 ****        31.0000  10.2500  -4.7500 Du        
   4838 ****        31.0000  10.2500  -4.5000 Du        
   4839 ****        31.0000  10.2500  -4.2500 Du        
   4840 ****        31.0000  10.2500  -4.0000 Du        
   4841 ****        31.0000  10.2500  -3.7500 Du        
   4842 ****        31.0000  10.2500  -3.5000 Du        
   4843 ****        31.0000  10.2500  -3.0000 Du        
   4844 ****        31.0000  10.2500  -2.7500 Du        
   4845 ****        31.0000  10.2500  -2.5000 Du        
   4846 ****        31.0000  10.2500  -2.2500 Du        
   4847 ****        31.0000  10.2500  -2.0000 Du        
   4848 ****        31.0000  10.2500  -1.7500 Du        
   4849 ****        31.0000  10.2500  -1.5000 Du        
   4850 ****        31.0000  10.2500  -1.2500 Du        
   4851 ****        31.0000  10.2500  -1.0000 Du        
   4852 ****        31.0000  10.2500  -0.7500 Du        
   4853 ****        31.0000  10.2500  -0.5000 Du        
   4854 ****        31.0000  10.5000  -5.5000 Du        
   4855 ****        31.0000  10.5000  -5.2500 Du        
   4856 ****        31.0000  10.5000  -5.0000 Du        
   4857 ****        31.0000  10.5000  -4.7500 Du        
   4858 ****        31.0000  10.5000  -4.5000 Du        
   4859 ****        31.0000  10.5000  -4.2500 Du        
   4860 ****        31.0000  10.5000  -4.0000 Du        
   4861 ****        31.0000  10.5000  -3.7500 Du        
   4862 ****        31.0000  10.5000  -3.5000 Du        
   4863 ****        31.0000  10.5000  -3.2500 Du        
   4864 ****        31.0000  10.5000  -3.0000 Du        
   4865 ****        31.0000  10.5000  -2.7500 Du        
   4866 ****        31.0000  10.5000  -2.5000 Du        
   4867 ****        31.0000  10.5000  -2.2500 Du        
   4868 ****        31.0000  10.5000  -2.0000 Du        
   4869 ****        31.0000  10.5000  -1.7500 Du        
   4870 ****        31.0000  10.5000  -1.5000 Du        
   4871 ****        31.0000  10.5000  -1.2500 Du        
   4872 ****        31.0000  10.5000  -1.0000 Du        
   4873 ****        31.0000  10.5000  -0.7500 Du        
   4874 ****        31.0000  10.7500  -5.2500 Du        
   4875 ****        31.0000  10.7500  -5.0000 Du        
   4876 ****        31.0000  10.7500  -4.7500 Du        
   4877 ****        31.0000  10.7500  -4.5000 Du        
   4878 ****        31.0000  10.7500  -4.2500 Du        
   4879 ****        31.0000  10.7500  -4.0000 Du        
   4880 ****        31.0000  10.7500  -3.7500 Du        
   4881 ****        31.0000  10.7500  -3.5000 Du        
   4882 ****        31.0000  10.7500  -3.2500 Du        
   4883 ****        31.0000  10.7500  -3.0000 Du        
   4884 ****        31.0000  10.7500  -2.7500 Du        
   4885 ****        31.0000  10.7500  -2.5000 Du        
   4886 ****        31.0000  10.7500  -2.2500 Du        
   4887 ****        31.0000  10.7500  -2.0000 Du        
   4888 ****        31.0000  10.7500  -1.7500 Du        
   4889 ****        31.0000  10.7500  -1.5000 Du        
   4890 ****        31.0000  10.7500  -1.2500 Du        
   4891 ****        31.0000  10.7500  -1.0000 Du        
   4892 ****        31.0000  10.7500  -0.7500 Du        
   4893 ****        31.0000  11.0000  -5.0000 Du        
   4894 ****        31.0000  11.0000  -4.7500 Du        
   4895 ****        31.0000  11.0000  -4.5000 Du        
   4896 ****        31.0000  11.0000  -4.2500 Du        
   4897 ****        31.0000  11.0000  -4.0000 Du        
   4898 ****        31.0000  11.0000  -2.0000 Du        
   4899 ****        31.0000  11.0000  -1.7500 Du        
   4900 ****        31.0000  11.0000  -1.5000 Du        
   4901 ****        31.0000  11.0000  -1.2500 Du        
   4902 ****        31.0000  11.0000  -1.0000 Du        
   4903 ****        31.2500  10.0000  -5.2500 Du        
   4904 ****        31.2500  10.0000  -5.0000 Du        
   4905 ****        31.2500  10.0000  -4.7500 Du        
   4906 ****        31.2500  10.0000  -2.0000 Du        
   4907 ****        31.2500  10.0000  -1.7500 Du        
   4908 ****        31.2500  10.0000  -1.5000 Du        
   4909 ****        31.2500  10.0000  -1.2500 Du        
   4910 ****        31.2500  10.0000  -1.0000 Du        
   4911 ****        31.2500  10.0000  -0.7500 Du        
   4912 ****        31.2500  10.2500  -5.5000 Du        
   4913 ****        31.2500  10.2500  -5.2500 Du        
   4914 ****        31.2500  10.2500  -5.0000 Du        
   4915 ****        31.2500  10.2500  -4.7500 Du        
   4916 ****        31.2500  10.2500  -4.5000 Du        
   4917 ****        31.2500  10.2500  -4.2500 Du        
   4918 ****        31.2500  10.2500  -4.0000 Du        
   4919 ****        31.2500  10.2500  -3.7500 Du        
   4920 ****        31.2500  10.2500  -3.5000 Du        
   4921 ****        31.2500  10.2500  -3.2500 Du        
   4922 ****        31.2500  10.2500  -3.0000 Du        
   4923 ****        31.2500  10.2500  -2.7500 Du        
   4924 ****        31.2500  10.2500  -2.5000 Du        
   4925 ****        31.2500  10.2500  -2.2500 Du        
   4926 ****        31.2500  10.2500  -2.0000 Du        
   4927 ****        31.2500  10.2500  -1.7500 Du        
   4928 ****        31.2500  10.2500  -1.5000 Du        
   4929 ****        31.2500  10.2500  -1.2500 Du        
   4930 ****        31.2500  10.2500  -1.0000 Du        
   4931 ****        31.2500  10.2500  -0.7500 Du        
   4932 ****        31.2500  10.2500  -0.5000 Du        
   4933 ****        31.2500  10.5000  -5.5000 Du        
   4934 ****        31.2500  10.5000  -5.2500 Du        
   4935 ****        31.2500  10.5000  -5.0000 Du        
   4936 ****        31.2500  10.5000  -4.7500 Du        
   4937 ****        31.2500  10.5000  -4.5000 Du        
   4938 ****        31.2500  10.5000  -4.2500 Du        
   4939 ****        31.2500  10.5000  -4.0000 Du        
   4940 ****        31.2500  10.5000  -3.7500 Du        
   4941 ****        31.2500  10.5000  -3.5000 Du        
   4942 ****        31.2500  10.5000  -3.2500 Du        
   4943 ****        31.2500  10.5000  -3.0000 Du        
   4944 ****        31.2500  10.5000  -2.7500 Du        
   4945 ****        31.2500  10.5000  -2.5000 Du        
   4946 ****        31.2500  10.5000  -2.2500 Du        
   4947 ****        31.2500  10.5000  -2.0000 Du        
   4948 ****        31.2500  10.5000  -1.7500 Du        
   4949 ****        31.2500  10.5000  -1.5000 Du        
   4950 ****        31.2500  10.5000  -1.2500 Du        
   4951 ****        31.2500  10.5000  -1.0000 Du        
   4952 ****        31.2500  10.5000  -0.7500 Du        
   4953 ****        31.2500  10.7500  -5.2500 Du        
   4954 ****        31.2500  10.7500  -5.0000 Du        
   4955 ****        31.2500  10.7500  -4.7500 Du        
   4956 ****        31.2500  10.7500  -4.5000 Du        
   4957 ****        31.2500  10.7500  -4.2500 Du        
   4958 ****        31.2500  10.7500  -4.0000 Du        
   4959 ****        31.2500  10.7500  -3.7500 Du        
   4960 ****        31.2500  10.7500  -3.5000 Du        
   4961 ****        31.2500  10.7500  -3.2500 Du        
   4962 ****        31.2500  10.7500  -3.0000 Du        
   4963 ****        31.2500  10.7500  -2.7500 Du        
   4964 ****        31.2500  10.7500  -2.5000 Du        
   4965 ****        31.2500  10.7500  -2.2500 Du        
   4966 ****        31.2500  10.7500  -2.0000 Du        
   4967 ****        31.2500  10.7500  -1.7500 Du        
   4968 ****        31.2500  10.7500  -1.5000 Du        
   4969 ****        31.2500  10.7500  -1.2500 Du        
   4970 ****        31.2500  10.7500  -1.0000 Du        
   4971 ****        31.2500  10.7500  -0.7500 Du        
   4972 ****        31.2500  11.0000  -5.0000 Du        
   4973 ****        31.2500  11.0000  -4.7500 Du        
   4974 ****        31.2500  11.0000  -4.5000 Du        
   4975 ****        31.2500  11.0000  -4.2500 Du        
   4976 ****        31.2500  11.0000  -4.0000 Du        
   4977 ****        31.2500  11.0000  -1.5000 Du        
   4978 ****        31.2500  11.0000  -1.2500 Du        
   4979 ****        31.2500  11.0000  -1.0000 Du        
   4980 ****        31.5000  10.0000  -5.2500 Du        
   4981 ****        31.5000  10.0000  -5.0000 Du        
   4982 ****        31.5000  10.0000  -4.7500 Du        
   4983 ****        31.5000  10.0000  -2.2500 Du        
   4984 ****        31.5000  10.0000  -2.0000 Du        
   4985 ****        31.5000  10.0000  -1.7500 Du        
   4986 ****        31.5000  10.0000  -1.5000 Du        
   4987 ****        31.5000  10.0000  -1.2500 Du        
   4988 ****        31.5000  10.0000  -1.0000 Du        
   4989 ****        31.5000  10.0000  -0.7500 Du        
   4990 ****        31.5000  10.2500  -5.5000 Du        
   4991 ****        31.5000  10.2500  -5.2500 Du        
   4992 ****        31.5000  10.2500  -5.0000 Du        
   4993 ****        31.5000  10.2500  -4.7500 Du        
   4994 ****        31.5000  10.2500  -4.5000 Du        
   4995 ****        31.5000  10.2500  -4.2500 Du        
   4996 ****        31.5000  10.2500  -4.0000 Du        
   4997 ****        31.5000  10.2500  -3.7500 Du        
   4998 ****        31.5000  10.2500  -3.5000 Du        
   4999 ****        31.5000  10.2500  -3.2500 Du        
   5000 ****        31.5000  10.2500  -3.0000 Du        
   5001 ****        31.5000  10.2500  -2.7500 Du        
   5002 ****        31.5000  10.2500  -2.5000 Du        
   5003 ****        31.5000  10.2500  -2.2500 Du        
   5004 ****        31.5000  10.2500  -2.0000 Du        
   5005 ****        31.5000  10.2500  -1.7500 Du        
   5006 ****        31.5000  10.2500  -1.5000 Du        
   5007 ****        31.5000  10.2500  -1.2500 Du        
   5008 ****        31.5000  10.2500  -1.0000 Du        
   5009 ****        31.5000  10.2500  -0.7500 Du        
   5010 ****        31.5000  10.5000  -5.5000 Du        
   5011 ****        31.5000  10.5000  -5.2500 Du        
   5012 ****        31.5000  10.5000  -5.0000 Du        
   5013 ****        31.5000  10.5000  -4.7500 Du        
   5014 ****        31.5000  10.5000  -4.5000 Du        
   5015 ****        31.5000  10.5000  -4.2500 Du        
   5016 ****        31.5000  10.5000  -4.0000 Du        
   5017 ****        31.5000  10.5000  -3.7500 Du        
   5018 ****        31.5000  10.5000  -3.5000 Du        
   5019 ****        31.5000  10.5000  -3.2500 Du        
   5020 ****        31.5000  10.5000  -3.0000 Du        
   5021 ****        31.5000  10.5000  -2.7500 Du        
   5022 ****        31.5000  10.5000  -2.5000 Du        
   5023 ****        31.5000  10.5000  -2.2500 Du        
   5024 ****        31.5000  10.5000  -2.0000 Du        
   5025 ****        31.5000  10.5000  -1.7500 Du        
   5026 ****        31.5000  10.5000  -1.5000 Du        
   5027 ****        31.5000  10.5000  -1.2500 Du        
   5028 ****        31.5000  10.5000  -1.0000 Du        
   5029 ****        31.5000  10.5000  -0.7500 Du        
   5030 ****        31.5000  10.7500  -5.2500 Du        
   5031 ****        31.5000  10.7500  -5.0000 Du        
   5032 ****        31.5000  10.7500  -4.7500 Du        
   5033 ****        31.5000  10.7500  -4.5000 Du        
   5034 ****        31.5000  10.7500  -4.2500 Du        
   5035 ****        31.5000  10.7500  -4.0000 Du        
   5036 ****        31.5000  10.7500  -3.7500 Du        
   5037 ****        31.5000  10.7500  -3.5000 Du        
   5038 ****        31.5000  10.7500  -3.2500 Du        
   5039 ****        31.5000  10.7500  -2.2500 Du        
   5040 ****        31.5000  10.7500  -2.0000 Du        
   5041 ****        31.5000  10.7500  -1.7500 Du        
   5042 ****        31.5000  10.7500  -1.5000 Du        
   5043 ****        31.5000  10.7500  -1.2500 Du        
   5044 ****        31.5000  10.7500  -1.0000 Du        
   5045 ****        31.5000  10.7500  -0.7500 Du        
   5046 ****        31.5000  11.0000  -5.0000 Du        
   5047 ****        31.5000  11.0000  -4.7500 Du        
   5048 ****        31.5000  11.0000  -4.5000 Du        
   5049 ****        31.5000  11.0000  -4.2500 Du        
   5050 ****        31.7500   9.7500  -1.7500 Du        
   5051 ****        31.7500   9.7500  -1.5000 Du        
   5052 ****        31.7500   9.7500  -1.2500 Du        
   5053 ****        31.7500  10.0000  -5.2500 Du        
   5054 ****        31.7500  10.0000  -5.0000 Du        
   5055 ****        31.7500  10.0000  -4.7500 Du        
   5056 ****        31.7500  10.0000  -2.2500 Du        
   5057 ****        31.7500  10.0000  -2.0000 Du        
   5058 ****        31.7500  10.0000  -1.7500 Du        
   5059 ****        31.7500  10.0000  -1.5000 Du        
   5060 ****        31.7500  10.0000  -1.2500 Du        
   5061 ****        31.7500  10.0000  -1.0000 Du        
   5062 ****        31.7500  10.0000  -0.7500 Du        
   5063 ****        31.7500  10.2500  -5.5000 Du        
   5064 ****        31.7500  10.2500  -5.2500 Du        
   5065 ****        31.7500  10.2500  -5.0000 Du        
   5066 ****        31.7500  10.2500  -4.7500 Du        
   5067 ****        31.7500  10.2500  -4.5000 Du        
   5068 ****        31.7500  10.2500  -4.2500 Du        
   5069 ****        31.7500  10.2500  -4.0000 Du        
   5070 ****        31.7500  10.2500  -3.7500 Du        
   5071 ****        31.7500  10.2500  -3.5000 Du        
   5072 ****        31.7500  10.2500  -3.2500 Du        
   5073 ****        31.7500  10.2500  -3.0000 Du        
   5074 ****        31.7500  10.2500  -2.7500 Du        
   5075 ****        31.7500  10.2500  -2.5000 Du        
   5076 ****        31.7500  10.2500  -2.2500 Du        
   5077 ****        31.7500  10.2500  -2.0000 Du        
   5078 ****        31.7500  10.2500  -1.7500 Du        
   5079 ****        31.7500  10.2500  -1.5000 Du        
   5080 ****        31.7500  10.2500  -1.2500 Du        
   5081 ****        31.7500  10.2500  -1.0000 Du        
   5082 ****        31.7500  10.2500  -0.7500 Du        
   5083 ****        31.7500  10.5000  -5.5000 Du        
   5084 ****        31.7500  10.5000  -5.2500 Du        
   5085 ****        31.7500  10.5000  -5.0000 Du        
   5086 ****        31.7500  10.5000  -4.7500 Du        
   5087 ****        31.7500  10.5000  -4.5000 Du        
   5088 ****        31.7500  10.5000  -4.2500 Du        
   5089 ****        31.7500  10.5000  -4.0000 Du        
   5090 ****        31.7500  10.5000  -3.7500 Du        
   5091 ****        31.7500  10.5000  -3.5000 Du        
   5092 ****        31.7500  10.5000  -3.2500 Du        
   5093 ****        31.7500  10.5000  -3.0000 Du        
   5094 ****        31.7500  10.5000  -2.7500 Du        
   5095 ****        31.7500  10.5000  -2.5000 Du        
   5096 ****        31.7500  10.5000  -2.2500 Du        
   5097 ****        31.7500  10.5000  -2.0000 Du        
   5098 ****        31.7500  10.5000  -1.7500 Du        
   5099 ****        31.7500  10.5000  -1.5000 Du        
   5100 ****        31.7500  10.5000  -1.2500 Du        
   5101 ****        31.7500  10.5000  -1.0000 Du        
   5102 ****        31.7500  10.5000  -0.7500 Du        
   5103 ****        31.7500  10.7500  -5.2500 Du        
   5104 ****        31.7500  10.7500  -5.0000 Du        
   5105 ****        31.7500  10.7500  -4.7500 Du        
   5106 ****        31.7500  10.7500  -4.5000 Du        
   5107 ****        31.7500  10.7500  -4.2500 Du        
   5108 ****        31.7500  10.7500  -4.0000 Du        
   5109 ****        31.7500  10.7500  -3.7500 Du        
   5110 ****        31.7500  10.7500  -1.7500 Du        
   5111 ****        31.7500  10.7500  -1.5000 Du        
   5112 ****        31.7500  10.7500  -1.2500 Du        
   5113 ****        31.7500  10.7500  -1.0000 Du        
   5114 ****        31.7500  11.0000  -5.0000 Du        
   5115 ****        31.7500  11.0000  -4.7500 Du        
   5116 ****        31.7500  11.0000  -4.5000 Du        
   5117 ****        32.0000   9.7500  -2.0000 Du        
   5118 ****        32.0000   9.7500  -1.7500 Du        
   5119 ****        32.0000   9.7500  -1.5000 Du        
   5120 ****        32.0000  10.0000  -5.2500 Du        
   5121 ****        32.0000  10.0000  -5.0000 Du        
   5122 ****        32.0000  10.0000  -4.7500 Du        
   5123 ****        32.0000  10.0000  -2.7500 Du        
   5124 ****        32.0000  10.0000  -2.5000 Du        
   5125 ****        32.0000  10.0000  -2.2500 Du        
   5126 ****        32.0000  10.0000  -2.0000 Du        
   5127 ****        32.0000  10.0000  -1.7500 Du        
   5128 ****        32.0000  10.0000  -1.5000 Du        
   5129 ****        32.0000  10.0000  -1.2500 Du        
   5130 ****        32.0000  10.0000  -1.0000 Du        
   5131 ****        32.0000  10.2500  -5.5000 Du        
   5132 ****        32.0000  10.2500  -5.2500 Du        
   5133 ****        32.0000  10.2500  -5.0000 Du        
   5134 ****        32.0000  10.2500  -4.7500 Du        
   5135 ****        32.0000  10.2500  -4.5000 Du        
   5136 ****        32.0000  10.2500  -4.2500 Du        
   5137 ****        32.0000  10.2500  -4.0000 Du        
   5138 ****        32.0000  10.2500  -3.7500 Du        
   5139 ****        32.0000  10.2500  -3.5000 Du        
   5140 ****        32.0000  10.2500  -3.2500 Du        
   5141 ****        32.0000  10.2500  -3.0000 Du        
   5142 ****        32.0000  10.2500  -2.7500 Du        
   5143 ****        32.0000  10.2500  -2.5000 Du        
   5144 ****        32.0000  10.2500  -2.2500 Du        
   5145 ****        32.0000  10.2500  -2.0000 Du        
   5146 ****        32.0000  10.2500  -1.7500 Du        
   5147 ****        32.0000  10.2500  -1.5000 Du        
   5148 ****        32.0000  10.2500  -1.2500 Du        
   5149 ****        32.0000  10.2500  -1.0000 Du        
   5150 ****        32.0000  10.5000  -5.5000 Du        
   5151 ****        32.0000  10.5000  -5.2500 Du        
   5152 ****        32.0000  10.5000  -5.0000 Du        
   5153 ****        32.0000  10.5000  -4.7500 Du        
   5154 ****        32.0000  10.5000  -4.5000 Du        
   5155 ****        32.0000  10.5000  -4.2500 Du        
   5156 ****        32.0000  10.5000  -4.0000 Du        
   5157 ****        32.0000  10.5000  -3.7500 Du        
   5158 ****        32.0000  10.5000  -3.5000 Du        
   5159 ****        32.0000  10.5000  -3.2500 Du        
   5160 ****        32.0000  10.5000  -3.0000 Du        
   5161 ****        32.0000  10.5000  -2.7500 Du        
   5162 ****        32.0000  10.5000  -2.5000 Du        
   5163 ****        32.0000  10.5000  -2.2500 Du        
   5164 ****        32.0000  10.5000  -2.0000 Du        
   5165 ****        32.0000  10.5000  -1.7500 Du        
   5166 ****        32.0000  10.5000  -1.5000 Du        
   5167 ****        32.0000  10.5000  -1.2500 Du        
   5168 ****        32.0000  10.5000  -1.0000 Du        
   5169 ****        32.0000  10.7500  -5.2500 Du        
   5170 ****        32.0000  10.7500  -5.0000 Du        
   5171 ****        32.0000  10.7500  -4.7500 Du        
   5172 ****        32.0000  10.7500  -4.5000 Du        
   5173 ****        32.0000  10.7500  -4.2500 Du        
   5174 ****        32.2500   9.7500  -2.2500 Du        
   5175 ****        32.2500   9.7500  -2.0000 Du        
   5176 ****        32.2500   9.7500  -1.7500 Du        
   5177 ****        32.2500   9.7500  -1.5000 Du        
   5178 ****        32.2500  10.0000  -5.0000 Du        
   5179 ****        32.2500  10.0000  -3.0000 Du        
   5180 ****        32.2500  10.0000  -2.7500 Du        
   5181 ****        32.2500  10.0000  -2.5000 Du        
   5182 ****        32.2500  10.0000  -2.2500 Du        
   5183 ****        32.2500  10.0000  -2.0000 Du        
   5184 ****        32.2500  10.0000  -1.7500 Du        
   5185 ****        32.2500  10.0000  -1.5000 Du        
   5186 ****        32.2500  10.0000  -1.2500 Du        
   5187 ****        32.2500  10.2500  -5.2500 Du        
   5188 ****        32.2500  10.2500  -5.0000 Du        
   5189 ****        32.2500  10.2500  -4.7500 Du        
   5190 ****        32.2500  10.2500  -4.5000 Du        
   5191 ****        32.2500  10.2500  -4.2500 Du        
   5192 ****        32.2500  10.2500  -4.0000 Du        
   5193 ****        32.2500  10.2500  -3.7500 Du        
   5194 ****        32.2500  10.2500  -3.5000 Du        
   5195 ****        32.2500  10.2500  -3.2500 Du        
   5196 ****        32.2500  10.2500  -3.0000 Du        
   5197 ****        32.2500  10.2500  -2.7500 Du        
   5198 ****        32.2500  10.2500  -2.5000 Du        
   5199 ****        32.2500  10.2500  -2.2500 Du        
   5200 ****        32.2500  10.2500  -2.0000 Du        
   5201 ****        32.2500  10.2500  -1.7500 Du        
   5202 ****        32.2500  10.2500  -1.5000 Du        
   5203 ****        32.2500  10.2500  -1.2500 Du        
   5204 ****        32.2500  10.2500  -1.0000 Du        
   5205 ****        32.2500  10.5000  -5.2500 Du        
   5206 ****        32.2500  10.5000  -5.0000 Du        
   5207 ****        32.2500  10.5000  -4.7500 Du        
   5208 ****        32.2500  10.5000  -4.5000 Du        
   5209 ****        32.2500  10.5000  -4.2500 Du        
   5210 ****        32.2500  10.5000  -4.0000 Du        
   5211 ****        32.2500  10.5000  -3.7500 Du        
   5212 ****        32.2500  10.5000  -3.5000 Du        
   5213 ****        32.2500  10.5000  -3.2500 Du        
   5214 ****        32.2500  10.5000  -3.0000 Du        
   5215 ****        32.2500  10.5000  -2.7500 Du        
   5216 ****        32.2500  10.5000  -2.5000 Du        
   5217 ****        32.2500  10.5000  -2.2500 Du        
   5218 ****        32.2500  10.5000  -2.0000 Du        
   5219 ****        32.2500  10.5000  -1.7500 Du        
   5220 ****        32.2500  10.5000  -1.5000 Du        
   5221 ****        32.2500  10.5000  -1.2500 Du        
   5222 ****        32.2500  10.5000  -1.0000 Du        
   5223 ****        32.2500  10.7500  -5.0000 Du        
   5224 ****        32.2500  10.7500  -4.7500 Du        
   5225 ****        32.5000   9.7500  -2.5000 Du        
   5226 ****        32.5000   9.7500  -2.2500 Du        
   5227 ****        32.5000   9.7500  -2.0000 Du        
   5228 ****        32.5000   9.7500  -1.7500 Du        
   5229 ****        32.5000  10.0000  -3.2500 Du        
   5230 ****        32.5000  10.0000  -3.0000 Du        
   5231 ****        32.5000  10.0000  -2.7500 Du        
   5232 ****        32.5000  10.0000  -2.5000 Du        
   5233 ****        32.5000  10.0000  -2.2500 Du        
   5234 ****        32.5000  10.0000  -2.0000 Du        
   5235 ****        32.5000  10.0000  -1.7500 Du        
   5236 ****        32.5000  10.0000  -1.5000 Du        
   5237 ****        32.5000  10.2500  -3.7500 Du        
   5238 ****        32.5000  10.2500  -3.5000 Du        
   5239 ****        32.5000  10.2500  -3.2500 Du        
   5240 ****        32.5000  10.2500  -3.0000 Du        
   5241 ****        32.5000  10.2500  -2.7500 Du        
   5242 ****        32.5000  10.2500  -2.5000 Du        
   5243 ****        32.5000  10.2500  -2.2500 Du        
   5244 ****        32.5000  10.2500  -2.0000 Du        
   5245 ****        32.5000  10.2500  -1.7500 Du        
   5246 ****        32.5000  10.2500  -1.5000 Du        
   5247 ****        32.5000  10.2500  -1.2500 Du        
   5248 ****        32.5000  10.5000  -1.7500 Du        
   5249 ****        32.7500   9.7500  -2.5000 Du        
   5250 ****        32.7500   9.7500  -2.2500 Du        
   5251 ****        32.7500   9.7500  -2.0000 Du        
   5252 ****        32.7500   9.7500  -1.7500 Du        
   5253 ****        32.7500  10.0000  -3.2500 Du        
   5254 ****        32.7500  10.0000  -3.0000 Du        
   5255 ****        32.7500  10.0000  -2.7500 Du        
   5256 ****        32.7500  10.0000  -2.5000 Du        
   5257 ****        32.7500  10.0000  -2.2500 Du        
   5258 ****        32.7500  10.0000  -2.0000 Du        
   5259 ****        32.7500  10.0000  -1.7500 Du        
   5260 ****        32.7500  10.2500  -3.2500 Du        
   5261 ****        32.7500  10.2500  -3.0000 Du        
   5262 ****        32.7500  10.2500  -2.7500 Du        
   5263 ****        32.7500  10.2500  -2.5000 Du        
   5264 ****        32.7500  10.2500  -2.2500 Du        
   5265 ****        32.7500  10.2500  -2.0000 Du        
   5266 ****        32.7500  10.2500  -1.7500 Du        
   5267 ****        33.0000   9.7500  -2.2500 Du        
   5268 ****        33.0000   9.7500  -2.0000 Du        
   5269 ****        33.0000  10.0000  -3.0000 Du        
   5270 ****        33.0000  10.0000  -2.7500 Du        
   5271 ****        33.0000  10.0000  -2.5000 Du        
   5272 ****        33.0000  10.0000  -2.2500 Du        
   5273 ****        33.0000  10.2500  -3.0000 Du        
   5274 ****        33.0000  10.2500  -2.7500 Du        
