#       Name:                CT1002167954
#       Creating user name   hitesit
#       Creation time:       Sun Apr 16 22:50:12 2023


#       File generated by GOLD software.
#

@<TRIPOS>MOLECULE
CT1002167954|ligand_prepared|mol2|1|dock5
    29    30     1
SMALL
NO_CHARGES


@<TRIPOS>ATOM
      1 C1          25.7129   9.0963  -2.2013 C.3            1 RES1               0.0000
      2 C2          27.0998   9.4849  -1.6496 C.ar           1 RES1               0.0000
      3 C3          24.9712   8.4152  -1.0549 C.2            1 RES1               0.0000
      4 C4          25.0655  10.3915  -2.6787 C.2            1 RES1               0.0000
      5 C5          25.7683   8.1199  -3.3993 C.3            1 RES1               0.0000
      6 C6          27.2603   9.8206  -0.3086 C.ar           1 RES1               0.0000
      7 C7          28.2264   9.5096  -2.4673 C.ar           1 RES1               0.0000
      8 N8          23.9737   9.1157  -0.4432 N.am           1 RES1               0.0000
      9 O9          25.2832   7.2959  -0.6676 O.2            1 RES1               0.0000
     10 N10         23.9480  10.8319  -2.0192 N.am           1 RES1               0.0000
     11 O11         25.5227  11.0434  -3.6095 O.2            1 RES1               0.0000
     12 C12         24.4188   7.5233  -3.7669 C.3            1 RES1               0.0000
     13 C13         28.5026  10.1656   0.1974 C.ar           1 RES1               0.0000
     14 C14         29.4678   9.8551  -1.9593 C.ar           1 RES1               0.0000
     15 C15         23.3907  10.2688  -0.9036 C.2            1 RES1               0.0000
     16 C16         29.6071  10.1827  -0.6273 C.ar           1 RES1               0.0000
     17 O17         22.4173  10.7542  -0.3343 O.2            1 RES1               0.0000
     18 H18         26.1680   8.6528  -4.2709 H              1 RES1               0.0000
     19 H19         26.4611   7.3042  -3.1584 H              1 RES1               0.0000
     20 H20         26.4021   9.8151   0.3551 H              1 RES1               0.0000
     21 H21         28.1404   9.2566  -3.5186 H              1 RES1               0.0000
     22 H22         23.6294   8.7481   0.4381 H              1 RES1               0.0000
     23 H23         23.4890  11.6556  -2.3948 H              1 RES1               0.0000
     24 H24         24.5141   6.8460  -4.6130 H              1 RES1               0.0000
     25 H25         24.0033   6.9647  -2.9307 H              1 RES1               0.0000
     26 H26         23.7120   8.3053  -4.0367 H              1 RES1               0.0000
     27 H27         28.6066  10.4239   1.2461 H              1 RES1               0.0000
     28 H28         30.3343   9.8679  -2.6122 H              1 RES1               0.0000
     29 H29         30.5803  10.4526  -0.2307 H              1 RES1               0.0000
@<TRIPOS>BOND
    1    1    2 1     
    2    1    3 1     
    3    1    4 1     
    4    1    5 1     
    5    2    6 ar    
    6    2    7 ar    
    7    3    8 1     
    8    3    9 2     
    9    4   10 1     
   10    4   11 2     
   11    5   12 1     
   12    5   18 1     
   13    5   19 1     
   14    6   13 ar    
   15    6   20 1     
   16    7   14 ar    
   17    7   21 1     
   18    8   15 1     
   19    8   22 1     
   20   10   15 1     
   21   10   23 1     
   22   12   24 1     
   23   12   25 1     
   24   12   26 1     
   25   13   16 ar    
   26   13   27 1     
   27   14   16 ar    
   28   14   28 1     
   29   15   17 2     
   30   16   29 1     
@<TRIPOS>SUBSTRUCTURE
      1 RES1           1
@<TRIPOS>SET
DONOR_HYDROGENS      STATIC     ATOMS    <user>   **** ""
2 22 23
ATOM$RED        STATIC     ATOMS    COLORGROUP SYSTEM
2 22 23
@<TRIPOS>COMMENT
> <Gold.Version>
2022.3.0

> <Gold.Id.Protein>
unknown|3oog_clean|pdb

> <Gold.Protein.RotatedTorsions>
[ 2749 2742 2740 2737 ] final  173.33 input   59.98 | X-H torsion
[ 1733 1732 1731 1729 ] final  107.24 input   60.02 | X-H torsion
[ 2432 2423 2422 2420 ] final    2.85 input   60.03 | X-H torsion
[ 4996 4987 4986 4984 ] final   84.19 input   60.02 | X-H torsion

> <Gold.Protein.ActiveResidues>
 LEU49   GLY50   THR51   ARG56   VAL57   MET58   LEU59   HIS68   TYR69   ALA70  
 MET71   LYS72   LEU74   GLU91   LEU95   VAL104  LYS105  LEU106  MET118  VAL119 
 MET120  GLU121  TYR122  VAL123  PRO124  GLY125  GLY126  GLU127  TYR164  GLU170 
 ASN171  LEU172  LEU173  ILE174  ASP175  GLN181  VAL182  THR183  ASP184  PHE185 
 GLY186  THR324  PHE327  TYR330 

> <Gold.Protein.RotatedAtoms>
   34.5703   13.0547  -10.8286 H   0  0  0  0  0  0  0  0  0  0  0  0  # atno 1733 bound_to 1732
   26.8263    3.2591    3.1895 H   0  0  0  0  0  0  0  0  0  0  0  0  # atno 2432 bound_to 2423
   28.2466    7.0268   -1.2012 H   0  0  0  0  0  0  0  0  0  0  0  0  # atno 2749 bound_to 2742
   23.0230   10.4501   -8.4585 H   0  0  0  0  0  0  0  0  0  0  0  0  # atno 4996 bound_to 4987
   27.5238    6.2665    0.0432 LP  0  0  0  0  0  0  0  0  0  0  0  0  # atno 5321 bound_to 2742
   28.5334    5.4455   -0.9435 LP  0  0  0  0  0  0  0  0  0  0  0  0  # atno 5322 bound_to 2742
   33.7977   11.7044  -10.3511 LP  0  0  0  0  0  0  0  0  0  0  0  0  # atno 5347 bound_to 1732
   35.3088   11.6108  -10.9632 LP  0  0  0  0  0  0  0  0  0  0  0  0  # atno 5348 bound_to 1732

> <Gold.Score>
     Fitness  S(hb_ext) S(vdw_ext)  S(hb_int)    S(int)      intcor
     31.41       2.63      21.30       0.00      -0.51      -0.76

> <Gold.Goldscore.Fitness>
31.4061

> <Gold.Goldscore.Internal.Vdw>
-0.6951

> <Gold.Goldscore.Internal.Torsion>
-0.5762

> <Gold.Goldscore.External.Vdw>
21.2998

> <Gold.Goldscore.Internal.HBond>
0.0000

> <Gold.Goldscore.External.HBond>
2.6316

> <Gold.Goldscore.Internal.Correction>
-0.7585

> <Gold.Goldscore.Hbonds>
donor molecule, donor type, donor heavy atom, donor atom, acceptor molecule, acceptor atom, score
      L1  H     8    22       P1  2756  0.44

> <Gold.Goldscore.Internal.Vdw.Weighted>
-0.6951

> <Gold.Goldscore.Internal.Torsion.Weighted>
-0.5762

> <Gold.Goldscore.External.Vdw.Weighted>
29.2873

> <Gold.Goldscore.Internal.HBond.Weighted>
0.0000

> <Gold.Goldscore.External.HBond.Weighted>
2.6316

> <Gold.Goldscore.Internal.Correction.Weighted>
-0.7585

> <Gold.Rescore>
     Score     S(PLP)   S(hbond)     S(cho)   S(metal)  DE(clash)   DE(tors)     intcor
     25.56     -24.91       0.95       0.00       0.00       0.00       1.10       ----

> <Gold.PLP.Fitness>
25.5579

> <Gold.PLP.PLP>
-24.9079

> <Gold.PLP.part.hbond>
-1.5370

> <Gold.PLP.part.metal>
0.0000

> <Gold.PLP.part.buried>
-2.4756

> <Gold.PLP.part.nonpolar>
-24.3412

> <Gold.PLP.part.repulsive>
2.9653

> <Gold.PLP.ligand.clash>
0.0000

> <Gold.PLP.ligand.torsion>
1.1000

> <Gold.PLP.Chemscore.Hbond>
0.9500

> <Gold.PLP.Chemscore.CHOScore>
0.0000

> <Gold.PLP.Chemscore.Metal>
0.0000

> <Gold.Chemscore.Hbonds>
donor molecule, donor type, donor heavy atom, donor atom, acceptor molecule, acceptor atom, score
      L1  H     8    22       P1  2756  1.00

> <Gold.PLP.Chemscore.Internal.Correction>
   9.000000E+99

