#       Name:                CT1002167954
#       Creating user name   hitesit
#       Creation time:       Sun Apr 16 22:50:13 2023


#       File generated by GOLD software.
#

@<TRIPOS>MOLECULE
CT1002167954|ligand_prepared|mol2|1|dock6
    29    30     1
SMALL
NO_CHARGES


@<TRIPOS>ATOM
      1 C1          25.5145   9.3071  -3.5336 C.3            1 RES1               0.0000
      2 C2          24.9795  10.3308  -2.5116 C.ar           1 RES1               0.0000
      3 C3          24.3105   8.4891  -3.9911 C.2            1 RES1               0.0000
      4 C4          26.1743  10.1175  -4.6439 C.2            1 RES1               0.0000
      5 C5          26.5734   8.3405  -2.9539 C.3            1 RES1               0.0000
      6 C6          25.2361  10.1758  -1.1526 C.ar           1 RES1               0.0000
      7 C7          24.2315  11.4347  -2.9122 C.ar           1 RES1               0.0000
      8 N8          23.8231   8.7277  -5.2423 N.am           1 RES1               0.0000
      9 O9          23.7723   7.6752  -3.2507 O.2            1 RES1               0.0000
     10 N10         25.6091  10.0763  -5.8915 N.am           1 RES1               0.0000
     11 O11         27.1687  10.8045  -4.4456 O.2            1 RES1               0.0000
     12 C12         27.1905   7.4142  -3.9900 C.3            1 RES1               0.0000
     13 C13         24.7646  11.0928  -0.2278 C.ar           1 RES1               0.0000
     14 C14         23.7607  12.3504  -1.9857 C.ar           1 RES1               0.0000
     15 C15         24.4457   9.4426  -6.2338 C.2            1 RES1               0.0000
     16 C16         24.0271  12.1807  -0.6437 C.ar           1 RES1               0.0000
     17 O17         23.9717   9.4965  -7.3650 O.2            1 RES1               0.0000
     18 H18         27.3720   8.9302  -2.4872 H              1 RES1               0.0000
     19 H19         26.1047   7.7318  -2.1708 H              1 RES1               0.0000
     20 H20         25.8127   9.3245  -0.8064 H              1 RES1               0.0000
     21 H21         24.0088  11.5879  -3.9627 H              1 RES1               0.0000
     22 H22         22.9115   8.3386  -5.4610 H              1 RES1               0.0000
     23 H23         26.1012  10.5631  -6.6339 H              1 RES1               0.0000
     24 H24         27.9263   6.7574  -3.5306 H              1 RES1               0.0000
     25 H25         26.4276   6.7945  -4.4566 H              1 RES1               0.0000
     26 H26         27.6874   7.9859  -4.7711 H              1 RES1               0.0000
     27 H27         24.9758  10.9540   0.8273 H              1 RES1               0.0000
     28 H28         23.1801  13.2048  -2.3174 H              1 RES1               0.0000
     29 H29         23.6581  12.8991   0.0810 H              1 RES1               0.0000
@<TRIPOS>BOND
    1    1    2 1     
    2    1    3 1     
    3    1    4 1     
    4    1    5 1     
    5    2    6 ar    
    6    2    7 ar    
    7    3    8 1     
    8    3    9 2     
    9    4   10 1     
   10    4   11 2     
   11    5   12 1     
   12    5   18 1     
   13    5   19 1     
   14    6   13 ar    
   15    6   20 1     
   16    7   14 ar    
   17    7   21 1     
   18    8   15 1     
   19    8   22 1     
   20   10   15 1     
   21   10   23 1     
   22   12   24 1     
   23   12   25 1     
   24   12   26 1     
   25   13   16 ar    
   26   13   27 1     
   27   14   16 ar    
   28   14   28 1     
   29   15   17 2     
   30   16   29 1     
@<TRIPOS>SUBSTRUCTURE
      1 RES1           1
@<TRIPOS>SET
DONOR_HYDROGENS      STATIC     ATOMS    <user>   **** ""
2 22 23
ATOM$RED        STATIC     ATOMS    COLORGROUP SYSTEM
2 22 23
@<TRIPOS>COMMENT
> <Gold.Version>
2022.3.0

> <Gold.Id.Protein>
unknown|3oog_clean|pdb

> <Gold.Protein.RotatedTorsions>
[ 2749 2742 2740 2737 ] final -114.16 input   59.98 | X-H torsion
[ 1733 1732 1731 1729 ] final  -32.28 input   60.02 | X-H torsion
[ 2432 2423 2422 2420 ] final -155.35 input   60.03 | X-H torsion
[ 4996 4987 4986 4984 ] final   75.47 input   60.02 | X-H torsion

> <Gold.Protein.ActiveResidues>
 LEU49   GLY50   THR51   ARG56   VAL57   MET58   LEU59   HIS68   TYR69   ALA70  
 MET71   LYS72   LEU74   GLU91   LEU95   VAL104  LYS105  LEU106  MET118  VAL119 
 MET120  GLU121  TYR122  VAL123  PRO124  GLY125  GLY126  GLU127  TYR164  GLU170 
 ASN171  LEU172  LEU173  ILE174  ASP175  GLN181  VAL182  THR183  ASP184  PHE185 
 GLY186  THR324  PHE327  TYR330 

> <Gold.Protein.RotatedAtoms>
   33.9890   11.4538  -10.3975 H   0  0  0  0  0  0  0  0  0  0  0  0  # atno 1733 bound_to 1732
   25.6095    2.1167    2.4165 H   0  0  0  0  0  0  0  0  0  0  0  0  # atno 2432 bound_to 2423
   28.6981    6.0332   -1.3909 H   0  0  0  0  0  0  0  0  0  0  0  0  # atno 2749 bound_to 2742
   23.1463   10.4360   -8.5283 H   0  0  0  0  0  0  0  0  0  0  0  0  # atno 4996 bound_to 4987
   27.7693    7.1268   -0.6225 LP  0  0  0  0  0  0  0  0  0  0  0  0  # atno 5321 bound_to 2742
   27.8333    5.5855   -0.0868 LP  0  0  0  0  0  0  0  0  0  0  0  0  # atno 5322 bound_to 2742
   35.4145   11.9021  -11.0417 LP  0  0  0  0  0  0  0  0  0  0  0  0  # atno 5347 bound_to 1732
   34.2773   13.0252  -10.7068 LP  0  0  0  0  0  0  0  0  0  0  0  0  # atno 5348 bound_to 1732

> <Gold.Score>
     Fitness  S(hb_ext) S(vdw_ext)  S(hb_int)    S(int)      intcor
     30.90       1.78      21.76       0.00      -0.80      -0.76

> <Gold.Goldscore.Fitness>
30.8966

> <Gold.Goldscore.Internal.Vdw>
-1.1551

> <Gold.Goldscore.Internal.Torsion>
-0.4071

> <Gold.Goldscore.External.Vdw>
21.7605

> <Gold.Goldscore.Internal.HBond>
0.0000

> <Gold.Goldscore.External.HBond>
1.7795

> <Gold.Goldscore.Internal.Correction>
-0.7585

> <Gold.Goldscore.Hbonds>
donor molecule, donor type, donor heavy atom, donor atom, acceptor molecule, acceptor atom, score
      P1  H  4987  4996       L1    17  0.40
      L1  H    10    23       P1   503  0.49

> <Gold.Goldscore.Internal.Vdw.Weighted>
-1.1551

> <Gold.Goldscore.Internal.Torsion.Weighted>
-0.4071

> <Gold.Goldscore.External.Vdw.Weighted>
29.9207

> <Gold.Goldscore.Internal.HBond.Weighted>
0.0000

> <Gold.Goldscore.External.HBond.Weighted>
1.7795

> <Gold.Goldscore.Internal.Correction.Weighted>
-0.7585

> <Gold.Rescore>
     Score     S(PLP)   S(hbond)     S(cho)   S(metal)  DE(clash)   DE(tors)     intcor
     32.40     -27.31       1.86       0.00       0.00       0.00       0.25       ----

> <Gold.PLP.Fitness>
32.3958

> <Gold.PLP.PLP>
-27.3064

> <Gold.PLP.part.hbond>
-2.4371

> <Gold.PLP.part.metal>
0.0000

> <Gold.PLP.part.buried>
-0.9039

> <Gold.PLP.part.nonpolar>
-24.2105

> <Gold.PLP.part.repulsive>
0.8378

> <Gold.PLP.ligand.clash>
0.0000

> <Gold.PLP.ligand.torsion>
0.2472

> <Gold.PLP.Chemscore.Hbond>
1.8613

> <Gold.PLP.Chemscore.CHOScore>
0.0000

> <Gold.PLP.Chemscore.Metal>
0.0000

> <Gold.Chemscore.Hbonds>
donor molecule, donor type, donor heavy atom, donor atom, acceptor molecule, acceptor atom, score
      L1  H    10    23       P1   503  1.00
      P1  H  4987  4996       L1    17  1.00

> <Gold.PLP.Chemscore.Internal.Correction>
   9.000000E+99

