#       Name:                CT1002167954
#       Creating user name   hitesit
#       Creation time:       Sun Apr 16 22:50:11 2023


#       File generated by GOLD software.
#

@<TRIPOS>MOLECULE
CT1002167954|ligand_prepared|mol2|1|dock4
    29    30     1
SMALL
NO_CHARGES


@<TRIPOS>ATOM
      1 C1          25.9881   9.2964  -2.6495 C.3            1 RES1               0.0000
      2 C2          27.1830   9.7771  -3.4980 C.ar           1 RES1               0.0000
      3 C3          26.5476   8.2790  -1.6594 C.2            1 RES1               0.0000
      4 C4          25.4002  10.5422  -1.9961 C.2            1 RES1               0.0000
      5 C5          24.8701   8.6163  -3.4736 C.3            1 RES1               0.0000
      6 C6          26.9895  10.2411  -4.7957 C.ar           1 RES1               0.0000
      7 C7          28.4819   9.7651  -2.9967 C.ar           1 RES1               0.0000
      8 N8          26.6692   8.6656  -0.3572 N.am           1 RES1               0.0000
      9 O9          26.9134   7.1680  -2.0229 O.2            1 RES1               0.0000
     10 N10         25.4767  10.6486  -0.6320 N.am           1 RES1               0.0000
     11 O11         24.8863  11.4403  -2.6515 O.2            1 RES1               0.0000
     12 C12         23.8586   7.8595  -2.6273 C.3            1 RES1               0.0000
     13 C13         28.0554  10.6800  -5.5635 C.ar           1 RES1               0.0000
     14 C14         29.5465  10.2043  -3.7663 C.ar           1 RES1               0.0000
     15 C15         26.1119   9.7812   0.2143 C.2            1 RES1               0.0000
     16 C16         29.3344  10.6624  -5.0493 C.ar           1 RES1               0.0000
     17 O17         26.1851   9.9731   1.4247 O.2            1 RES1               0.0000
     18 H18         24.3420   9.3836  -4.0530 H              1 RES1               0.0000
     19 H19         25.3299   7.9174  -4.1833 H              1 RES1               0.0000
     20 H20         25.9904  10.2601  -5.2182 H              1 RES1               0.0000
     21 H21         28.6726   9.4080  -1.9904 H              1 RES1               0.0000
     22 H22         27.2260   8.0702   0.2476 H              1 RES1               0.0000
     23 H23         25.0175  11.4486  -0.2083 H              1 RES1               0.0000
     24 H24         23.0965   7.4017  -3.2544 H              1 RES1               0.0000
     25 H25         24.3458   7.0717  -2.0564 H              1 RES1               0.0000
     26 H26         23.3638   8.5292  -1.9269 H              1 RES1               0.0000
     27 H27         27.8833  11.0383  -6.5731 H              1 RES1               0.0000
     28 H28         30.5515  10.1880  -3.3578 H              1 RES1               0.0000
     29 H29         30.1692  11.0066  -5.6508 H              1 RES1               0.0000
@<TRIPOS>BOND
    1    1    2 1     
    2    1    3 1     
    3    1    4 1     
    4    1    5 1     
    5    2    6 ar    
    6    2    7 ar    
    7    3    8 1     
    8    3    9 2     
    9    4   10 1     
   10    4   11 2     
   11    5   12 1     
   12    5   18 1     
   13    5   19 1     
   14    6   13 ar    
   15    6   20 1     
   16    7   14 ar    
   17    7   21 1     
   18    8   15 1     
   19    8   22 1     
   20   10   15 1     
   21   10   23 1     
   22   12   24 1     
   23   12   25 1     
   24   12   26 1     
   25   13   16 ar    
   26   13   27 1     
   27   14   16 ar    
   28   14   28 1     
   29   15   17 2     
   30   16   29 1     
@<TRIPOS>SUBSTRUCTURE
      1 RES1           1
@<TRIPOS>SET
DONOR_HYDROGENS      STATIC     ATOMS    <user>   **** ""
2 22 23
ATOM$RED        STATIC     ATOMS    COLORGROUP SYSTEM
2 22 23
@<TRIPOS>COMMENT
> <Gold.Version>
2022.3.0

> <Gold.Id.Protein>
unknown|3oog_clean|pdb

> <Gold.Protein.RotatedTorsions>
[ 2749 2742 2740 2737 ] final  -12.52 input   59.98 | X-H torsion
[ 1733 1732 1731 1729 ] final  -74.09 input   60.02 | X-H torsion
[ 2432 2423 2422 2420 ] final  173.43 input   60.03 | X-H torsion
[ 4996 4987 4986 4984 ] final   71.59 input   60.02 | X-H torsion

> <Gold.Protein.ActiveResidues>
 LEU49   GLY50   THR51   ARG56   VAL57   MET58   LEU59   HIS68   TYR69   ALA70  
 MET71   LYS72   LEU74   GLU91   LEU95   VAL104  LYS105  LEU106  MET118  VAL119 
 MET120  GLU121  TYR122  VAL123  PRO124  GLY125  GLY126  GLU127  TYR164  GLU170 
 ASN171  LEU172  LEU173  ILE174  ASP175  GLN181  VAL182  THR183  ASP184  PHE185 
 GLY186  THR324  PHE327  TYR330 

> <Gold.Protein.RotatedAtoms>
   34.5689   11.1956  -10.6058 H   0  0  0  0  0  0  0  0  0  0  0  0  # atno 1733 bound_to 1732
   26.0133    1.8553    2.2656 H   0  0  0  0  0  0  0  0  0  0  0  0  # atno 2432 bound_to 2423
   28.0185    5.4259   -0.2608 H   0  0  0  0  0  0  0  0  0  0  0  0  # atno 2749 bound_to 2742
   23.1973   10.4283   -8.5650 H   0  0  0  0  0  0  0  0  0  0  0  0  # atno 4996 bound_to 4987
   28.6584    6.3228   -1.4588 LP  0  0  0  0  0  0  0  0  0  0  0  0  # atno 5321 bound_to 2742
   27.6285    7.0009   -0.3883 LP  0  0  0  0  0  0  0  0  0  0  0  0  # atno 5322 bound_to 2742
   35.3095   12.5657  -11.0776 LP  0  0  0  0  0  0  0  0  0  0  0  0  # atno 5347 bound_to 1732
   33.7984   12.6216  -10.4610 LP  0  0  0  0  0  0  0  0  0  0  0  0  # atno 5348 bound_to 1732

> <Gold.Score>
     Fitness  S(hb_ext) S(vdw_ext)  S(hb_int)    S(int)      intcor
     37.61       6.00      23.63       0.00      -0.88      -0.76

> <Gold.Goldscore.Fitness>
37.6105

> <Gold.Goldscore.Internal.Vdw>
-0.9756

> <Gold.Goldscore.Internal.Torsion>
-0.6584

> <Gold.Goldscore.External.Vdw>
23.6262

> <Gold.Goldscore.Internal.HBond>
0.0000

> <Gold.Goldscore.External.HBond>
6.0000

> <Gold.Goldscore.Internal.Correction>
-0.7585

> <Gold.Goldscore.Hbonds>
donor molecule, donor type, donor heavy atom, donor atom, acceptor molecule, acceptor atom, score
      P1  H   856   869       L1    17  1.00

> <Gold.Goldscore.Internal.Vdw.Weighted>
-0.9756

> <Gold.Goldscore.Internal.Torsion.Weighted>
-0.6584

> <Gold.Goldscore.External.Vdw.Weighted>
32.4860

> <Gold.Goldscore.Internal.HBond.Weighted>
0.0000

> <Gold.Goldscore.External.HBond.Weighted>
6.0000

> <Gold.Goldscore.Internal.Correction.Weighted>
-0.7585

> <Gold.Rescore>
     Score     S(PLP)   S(hbond)     S(cho)   S(metal)  DE(clash)   DE(tors)     intcor
     35.30     -33.64       1.16       0.00       0.00       0.00       0.91       ----

> <Gold.PLP.Fitness>
35.3040

> <Gold.PLP.PLP>
-33.6415

> <Gold.PLP.part.hbond>
-2.3957

> <Gold.PLP.part.metal>
0.0000

> <Gold.PLP.part.buried>
-2.2129

> <Gold.PLP.part.nonpolar>
-30.5489

> <Gold.PLP.part.repulsive>
0.4779

> <Gold.PLP.ligand.clash>
0.0000

> <Gold.PLP.ligand.torsion>
0.9133

> <Gold.PLP.Chemscore.Hbond>
1.1630

> <Gold.PLP.Chemscore.CHOScore>
0.0000

> <Gold.PLP.Chemscore.Metal>
0.0000

> <Gold.Chemscore.Hbonds>
donor molecule, donor type, donor heavy atom, donor atom, acceptor molecule, acceptor atom, score
      L1  H     8    22       P1  2742  0.16
      P1  H   856   869       L1    17  1.00

> <Gold.PLP.Chemscore.Internal.Correction>
   9.000000E+99

