#       Name:                CT1002167954
#       Creating user name   hitesit
#       Creation time:       Sun Apr 16 22:50:16 2023


#       File generated by GOLD software.
#

@<TRIPOS>MOLECULE
CT1002167954|ligand_prepared|mol2|1|dock9
    29    30     1
SMALL
NO_CHARGES


@<TRIPOS>ATOM
      1 C1          26.3496   8.8834  -2.8234 C.3            1 RES1               0.0000
      2 C2          27.4968   9.5787  -3.5845 C.ar           1 RES1               0.0000
      3 C3          26.8774   7.5120  -2.4124 C.2            1 RES1               0.0000
      4 C4          26.0026   9.7936  -1.6504 C.2            1 RES1               0.0000
      5 C5          25.0698   8.6842  -3.6684 C.3            1 RES1               0.0000
      6 C6          28.8217   9.3723  -3.2119 C.ar           1 RES1               0.0000
      7 C7          27.2465  10.4257  -4.6608 C.ar           1 RES1               0.0000
      8 N8          27.1893   7.3229  -1.0983 N.am           1 RES1               0.0000
      9 O9          27.0546   6.6225  -3.2356 O.2            1 RES1               0.0000
     10 N10         26.2406   9.3277  -0.3839 N.am           1 RES1               0.0000
     11 O11         25.5407  10.9165  -1.8120 O.2            1 RES1               0.0000
     12 C12         24.0354   7.7836  -3.0116 C.3            1 RES1               0.0000
     13 C13         29.8590   9.9878  -3.8926 C.ar           1 RES1               0.0000
     14 C14         28.2853  11.0405  -5.3400 C.ar           1 RES1               0.0000
     15 C15         26.8467   8.1458  -0.0556 C.2            1 RES1               0.0000
     16 C16         29.5916  10.8219  -4.9573 C.ar           1 RES1               0.0000
     17 O17         27.0758   7.8206   1.1058 O.2            1 RES1               0.0000
     18 H18         24.6153   9.6645  -3.8574 H              1 RES1               0.0000
     19 H19         25.3499   8.2520  -4.6370 H              1 RES1               0.0000
     20 H20         29.0513   8.7212  -2.3751 H              1 RES1               0.0000
     21 H21         26.2265  10.6132  -4.9789 H              1 RES1               0.0000
     22 H22         27.7271   6.4929  -0.8698 H              1 RES1               0.0000
     23 H23         25.9376   9.9165   0.3855 H              1 RES1               0.0000
     24 H24         23.1580   7.6774  -3.6460 H              1 RES1               0.0000
     25 H25         24.4457   6.7921  -2.8319 H              1 RES1               0.0000
     26 H26         23.7155   8.1962  -2.0569 H              1 RES1               0.0000
     27 H27         30.8853   9.8136  -3.5866 H              1 RES1               0.0000
     28 H28         28.0702  11.6966  -6.1770 H              1 RES1               0.0000
     29 H29         30.4044  11.3037  -5.4906 H              1 RES1               0.0000
@<TRIPOS>BOND
    1    1    2 1     
    2    1    3 1     
    3    1    4 1     
    4    1    5 1     
    5    2    6 ar    
    6    2    7 ar    
    7    3    8 1     
    8    3    9 2     
    9    4   10 1     
   10    4   11 2     
   11    5   12 1     
   12    5   18 1     
   13    5   19 1     
   14    6   13 ar    
   15    6   20 1     
   16    7   14 ar    
   17    7   21 1     
   18    8   15 1     
   19    8   22 1     
   20   10   15 1     
   21   10   23 1     
   22   12   24 1     
   23   12   25 1     
   24   12   26 1     
   25   13   16 ar    
   26   13   27 1     
   27   14   16 ar    
   28   14   28 1     
   29   15   17 2     
   30   16   29 1     
@<TRIPOS>SUBSTRUCTURE
      1 RES1           1
@<TRIPOS>SET
DONOR_HYDROGENS      STATIC     ATOMS    <user>   **** ""
2 22 23
ATOM$RED        STATIC     ATOMS    COLORGROUP SYSTEM
2 22 23
@<TRIPOS>COMMENT
> <Gold.Version>
2022.3.0

> <Gold.Id.Protein>
unknown|3oog_clean|pdb

> <Gold.Protein.RotatedTorsions>
[ 2749 2742 2740 2737 ] final  -74.97 input   59.98 | X-H torsion
[ 1733 1732 1731 1729 ] final -143.15 input   60.02 | X-H torsion
[ 2432 2423 2422 2420 ] final  -57.10 input   60.03 | X-H torsion
[ 4996 4987 4986 4984 ] final    3.21 input   60.02 | X-H torsion

> <Gold.Protein.ActiveResidues>
 LEU49   GLY50   THR51   ARG56   VAL57   MET58   LEU59   HIS68   TYR69   ALA70  
 MET71   LYS72   LEU74   GLU91   LEU95   VAL104  LYS105  LEU106  MET118  VAL119 
 MET120  GLU121  TYR122  VAL123  PRO124  GLY125  GLY126  GLU127  TYR164  GLU170 
 ASN171  LEU172  LEU173  ILE174  ASP175  GLN181  VAL182  THR183  ASP184  PHE185 
 GLY186  THR324  PHE327  TYR330 

> <Gold.Protein.RotatedAtoms>
   35.3720   11.7632  -11.0049 H   0  0  0  0  0  0  0  0  0  0  0  0  # atno 1733 bound_to 1732
   25.8910    3.2831    3.1692 H   0  0  0  0  0  0  0  0  0  0  0  0  # atno 2432 bound_to 2423
   28.5874    5.5231   -1.0416 H   0  0  0  0  0  0  0  0  0  0  0  0  # atno 2749 bound_to 2742
   23.5153   10.1938   -9.5398 H   0  0  0  0  0  0  0  0  0  0  0  0  # atno 4996 bound_to 4987
   28.1603    7.0918   -1.1182 LP  0  0  0  0  0  0  0  0  0  0  0  0  # atno 5321 bound_to 2742
   27.5538    6.1341    0.0572 LP  0  0  0  0  0  0  0  0  0  0  0  0  # atno 5322 bound_to 2742
   34.4121   13.0553  -10.7660 LP  0  0  0  0  0  0  0  0  0  0  0  0  # atno 5347 bound_to 1732
   33.8871   11.5604  -10.3707 LP  0  0  0  0  0  0  0  0  0  0  0  0  # atno 5348 bound_to 1732

> <Gold.Score>
     Fitness  S(hb_ext) S(vdw_ext)  S(hb_int)    S(int)      intcor
     38.58       6.16      23.86       0.00      -0.38      -0.76

> <Gold.Goldscore.Fitness>
38.5825

> <Gold.Goldscore.Internal.Vdw>
-0.6006

> <Gold.Goldscore.Internal.Torsion>
-0.5428

> <Gold.Goldscore.External.Vdw>
23.8618

> <Gold.Goldscore.Internal.HBond>
0.0000

> <Gold.Goldscore.External.HBond>
6.1574

> <Gold.Goldscore.Internal.Correction>
-0.7585

> <Gold.Goldscore.Hbonds>
donor molecule, donor type, donor heavy atom, donor atom, acceptor molecule, acceptor atom, score
      P1  H   856   869       L1    17  1.00
      L1  H     8    22       P1  2742  0.08

> <Gold.Goldscore.Internal.Vdw.Weighted>
-0.6006

> <Gold.Goldscore.Internal.Torsion.Weighted>
-0.5428

> <Gold.Goldscore.External.Vdw.Weighted>
32.8100

> <Gold.Goldscore.Internal.HBond.Weighted>
0.0000

> <Gold.Goldscore.External.HBond.Weighted>
6.1574

> <Gold.Goldscore.Internal.Correction.Weighted>
-0.7585

> <Gold.Rescore>
     Score     S(PLP)   S(hbond)     S(cho)   S(metal)  DE(clash)   DE(tors)     intcor
     34.55     -34.37       0.83       0.00       0.00       1.72       0.30       ----

> <Gold.PLP.Fitness>
34.5533

> <Gold.PLP.PLP>
-34.3741

> <Gold.PLP.part.hbond>
-1.4711

> <Gold.PLP.part.metal>
0.0000

> <Gold.PLP.part.buried>
-3.5903

> <Gold.PLP.part.nonpolar>
-29.2913

> <Gold.PLP.part.repulsive>
0.4677

> <Gold.PLP.ligand.clash>
1.7234

> <Gold.PLP.ligand.torsion>
0.2967

> <Gold.PLP.Chemscore.Hbond>
0.8320

> <Gold.PLP.Chemscore.CHOScore>
0.0000

> <Gold.PLP.Chemscore.Metal>
0.0000

> <Gold.PLP.Chemscore.Internal.Correction>
   9.000000E+99

