#       Name:                CT1002167954
#       Creating user name   hitesit
#       Creation time:       Sun Apr 16 22:50:09 2023


#       File generated by GOLD software.
#

@<TRIPOS>MOLECULE
CT1002167954|ligand_prepared|mol2|1|dock2
    29    30     1
SMALL
NO_CHARGES


@<TRIPOS>ATOM
      1 C1          26.8448   9.3642  -3.5534 C.3            1 RES1               0.0000
      2 C2          27.0900   9.5346  -2.0402 C.ar           1 RES1               0.0000
      3 C3          26.7917   7.8614  -3.8123 C.2            1 RES1               0.0000
      4 C4          25.5420  10.0947  -3.8594 C.2            1 RES1               0.0000
      5 C5          27.9551   9.9763  -4.4390 C.3            1 RES1               0.0000
      6 C6          26.0424   9.4034  -1.1335 C.ar           1 RES1               0.0000
      7 C7          28.3563   9.8199  -1.5367 C.ar           1 RES1               0.0000
      8 N8          25.5716   7.3063  -4.0635 N.am           1 RES1               0.0000
      9 O9          27.7996   7.1676  -3.7578 O.2            1 RES1               0.0000
     10 N10         24.4693   9.3487  -4.2723 N.am           1 RES1               0.0000
     11 O11         25.4298  11.3076  -3.7307 O.2            1 RES1               0.0000
     12 C12         27.5830  10.0716  -5.9103 C.3            1 RES1               0.0000
     13 C13         26.2536   9.5492   0.2275 C.ar           1 RES1               0.0000
     14 C14         28.5653   9.9655  -0.1752 C.ar           1 RES1               0.0000
     15 C15         24.4161   7.9841  -4.3587 C.2            1 RES1               0.0000
     16 C16         27.5151   9.8299   0.7076 C.ar           1 RES1               0.0000
     17 O17         23.3976   7.3817  -4.6858 O.2            1 RES1               0.0000
     18 H18         28.1885  10.9818  -4.0679 H              1 RES1               0.0000
     19 H19         28.8607   9.3648  -4.3428 H              1 RES1               0.0000
     20 H20         25.0423   9.1850  -1.4929 H              1 RES1               0.0000
     21 H21         29.1972   9.9320  -2.2127 H              1 RES1               0.0000
     22 H22         25.5128   6.2936  -4.0286 H              1 RES1               0.0000
     23 H23         23.6329   9.8577  -4.5402 H              1 RES1               0.0000
     24 H24         28.3964  10.5077  -6.4864 H              1 RES1               0.0000
     25 H25         27.3687   9.0862  -6.3186 H              1 RES1               0.0000
     26 H26         26.7005  10.6937  -6.0454 H              1 RES1               0.0000
     27 H27         25.4235   9.4428   0.9181 H              1 RES1               0.0000
     28 H28         29.5597  10.1871   0.1981 H              1 RES1               0.0000
     29 H29         27.6804   9.9437   1.7739 H              1 RES1               0.0000
@<TRIPOS>BOND
    1    1    2 1     
    2    1    3 1     
    3    1    4 1     
    4    1    5 1     
    5    2    6 ar    
    6    2    7 ar    
    7    3    8 1     
    8    3    9 2     
    9    4   10 1     
   10    4   11 2     
   11    5   12 1     
   12    5   18 1     
   13    5   19 1     
   14    6   13 ar    
   15    6   20 1     
   16    7   14 ar    
   17    7   21 1     
   18    8   15 1     
   19    8   22 1     
   20   10   15 1     
   21   10   23 1     
   22   12   24 1     
   23   12   25 1     
   24   12   26 1     
   25   13   16 ar    
   26   13   27 1     
   27   14   16 ar    
   28   14   28 1     
   29   15   17 2     
   30   16   29 1     
@<TRIPOS>SUBSTRUCTURE
      1 RES1           1
@<TRIPOS>SET
DONOR_HYDROGENS      STATIC     ATOMS    <user>   **** ""
2 22 23
ATOM$RED        STATIC     ATOMS    COLORGROUP SYSTEM
2 22 23
@<TRIPOS>COMMENT
> <Gold.Version>
2022.3.0

> <Gold.Id.Protein>
unknown|3oog_clean|pdb

> <Gold.Protein.RotatedTorsions>
[ 2749 2742 2740 2737 ] final -162.67 input   59.98 | X-H torsion
[ 1733 1732 1731 1729 ] final   17.55 input   60.02 | X-H torsion
[ 2432 2423 2422 2420 ] final -163.06 input   60.03 | X-H torsion
[ 4996 4987 4986 4984 ] final   74.59 input   60.02 | X-H torsion

> <Gold.Protein.ActiveResidues>
 LEU49   GLY50   THR51   ARG56   VAL57   MET58   LEU59   HIS68   TYR69   ALA70  
 MET71   LYS72   LEU74   GLU91   LEU95   VAL104  LYS105  LEU106  MET118  VAL119 
 MET120  GLU121  TYR122  VAL123  PRO124  GLY125  GLY126  GLU127  TYR164  GLU170 
 ASN171  LEU172  LEU173  ILE174  ASP175  GLN181  VAL182  THR183  ASP184  PHE185 
 GLY186  THR324  PHE327  TYR330 

> <Gold.Protein.RotatedAtoms>
   33.6933   12.1843  -10.3628 H   0  0  0  0  0  0  0  0  0  0  0  0  # atno 1733 bound_to 1732
   25.6929    2.0357    2.3682 H   0  0  0  0  0  0  0  0  0  0  0  0  # atno 2432 bound_to 2423
   28.4697    6.7680   -1.3881 H   0  0  0  0  0  0  0  0  0  0  0  0  # atno 2749 bound_to 2742
   23.1581   10.4343   -8.5364 H   0  0  0  0  0  0  0  0  0  0  0  0  # atno 4996 bound_to 4987
   27.5062    6.6373   -0.0828 LP  0  0  0  0  0  0  0  0  0  0  0  0  # atno 5321 bound_to 2742
   28.3264    5.3353   -0.6293 LP  0  0  0  0  0  0  0  0  0  0  0  0  # atno 5322 bound_to 2742
   34.9813   11.2859  -10.7893 LP  0  0  0  0  0  0  0  0  0  0  0  0  # atno 5347 bound_to 1732
   35.0083   12.9058  -10.9941 LP  0  0  0  0  0  0  0  0  0  0  0  0  # atno 5348 bound_to 1732

> <Gold.Score>
     Fitness  S(hb_ext) S(vdw_ext)  S(hb_int)    S(int)      intcor
     38.07       1.70      26.57       0.00      -0.17      -0.76

> <Gold.Goldscore.Fitness>
38.0708

> <Gold.Goldscore.Internal.Vdw>
-0.3341

> <Gold.Goldscore.Internal.Torsion>
-0.5940

> <Gold.Goldscore.External.Vdw>
26.5725

> <Gold.Goldscore.Internal.HBond>
0.0000

> <Gold.Goldscore.External.HBond>
1.7032

> <Gold.Goldscore.Internal.Correction>
-0.7585

> <Gold.Goldscore.Hbonds>
donor molecule, donor type, donor heavy atom, donor atom, acceptor molecule, acceptor atom, score
      P1  H  2742  2749       L1     9  0.02
      L1  H     8    22       P1  2527  0.83

> <Gold.Goldscore.Internal.Vdw.Weighted>
-0.3341

> <Gold.Goldscore.Internal.Torsion.Weighted>
-0.5940

> <Gold.Goldscore.External.Vdw.Weighted>
36.5371

> <Gold.Goldscore.Internal.HBond.Weighted>
0.0000

> <Gold.Goldscore.External.HBond.Weighted>
1.7032

> <Gold.Goldscore.Internal.Correction.Weighted>
-0.7585

> <Gold.Rescore>
     Score     S(PLP)   S(hbond)     S(cho)   S(metal)  DE(clash)   DE(tors)     intcor
     41.91     -37.96       1.81       0.00       0.00       0.00       0.74       ----

> <Gold.PLP.Fitness>
41.9061

> <Gold.PLP.PLP>
-37.9627

> <Gold.PLP.part.hbond>
-2.0415

> <Gold.PLP.part.metal>
0.0000

> <Gold.PLP.part.buried>
-3.7469

> <Gold.PLP.part.nonpolar>
-32.5674

> <Gold.PLP.part.repulsive>
0.4784

> <Gold.PLP.ligand.clash>
0.0000

> <Gold.PLP.ligand.torsion>
0.7403

> <Gold.PLP.Chemscore.Hbond>
1.8080

> <Gold.PLP.Chemscore.CHOScore>
0.0000

> <Gold.PLP.Chemscore.Metal>
0.0000

> <Gold.Chemscore.Hbonds>
donor molecule, donor type, donor heavy atom, donor atom, acceptor molecule, acceptor atom, score
      L1  H     8    22       P1  2527  1.00
      P1  H  2742  2749       L1     9  0.02

> <Gold.PLP.Chemscore.Internal.Correction>
   9.000000E+99

