#       Name:                CT1002167954
#       Creating user name   hitesit
#       Creation time:       Sun Apr 16 22:50:08 2023


#       File generated by GOLD software.
#

@<TRIPOS>MOLECULE
CT1002167954|ligand_prepared|mol2|1|dock1
    29    30     1
SMALL
NO_CHARGES


@<TRIPOS>ATOM
      1 C1          26.9497   9.3899  -3.3882 C.3            1 RES1               0.0000
      2 C2          27.0974   9.5295  -1.8594 C.ar           1 RES1               0.0000
      3 C3          26.8844   7.8931  -3.6775 C.2            1 RES1               0.0000
      4 C4          25.6845  10.1522  -3.7660 C.2            1 RES1               0.0000
      5 C5          28.1279   9.9937  -4.1875 C.3            1 RES1               0.0000
      6 C6          25.9787   9.4881  -1.0327 C.ar           1 RES1               0.0000
      7 C7          28.3438   9.6971  -1.2619 C.ar           1 RES1               0.0000
      8 N8          25.6730   7.3677  -4.0185 N.am           1 RES1               0.0000
      9 O9          27.8728   7.1777  -3.5694 O.2            1 RES1               0.0000
     10 N10         24.6271   9.4357  -4.2621 N.am           1 RES1               0.0000
     11 O11         25.5878  11.3649  -3.6228 O.2            1 RES1               0.0000
     12 C12         27.8789  10.0666  -5.6858 C.3            1 RES1               0.0000
     13 C13         26.1017   9.6071   0.3418 C.ar           1 RES1               0.0000
     14 C14         28.4646   9.8162   0.1128 C.ar           1 RES1               0.0000
     15 C15         24.5531   8.0742  -4.3767 C.2            1 RES1               0.0000
     16 C16         27.3446   9.7708   0.9154 C.ar           1 RES1               0.0000
     17 O17         23.5469   7.4987  -4.7811 O.2            1 RES1               0.0000
     18 H18         28.3270  11.0053  -3.8130 H              1 RES1               0.0000
     19 H19         29.0242   9.3872  -4.0077 H              1 RES1               0.0000
     20 H20         24.9922   9.3624  -1.4662 H              1 RES1               0.0000
     21 H21         29.2387   9.7368  -1.8737 H              1 RES1               0.0000
     22 H22         25.5923   6.3560  -4.0060 H              1 RES1               0.0000
     23 H23         23.8205   9.9664  -4.5752 H              1 RES1               0.0000
     24 H24         28.7361  10.4976  -6.1987 H              1 RES1               0.0000
     25 H25         27.7021   9.0745  -6.0962 H              1 RES1               0.0000
     26 H26         27.0090  10.6831  -5.9026 H              1 RES1               0.0000
     27 H27         25.2170   9.5721   0.9689 H              1 RES1               0.0000
     28 H28         29.4447   9.9455   0.5599 H              1 RES1               0.0000
     29 H29         27.4407   9.8636   1.9921 H              1 RES1               0.0000
@<TRIPOS>BOND
    1    1    2 1     
    2    1    3 1     
    3    1    4 1     
    4    1    5 1     
    5    2    6 ar    
    6    2    7 ar    
    7    3    8 1     
    8    3    9 2     
    9    4   10 1     
   10    4   11 2     
   11    5   12 1     
   12    5   18 1     
   13    5   19 1     
   14    6   13 ar    
   15    6   20 1     
   16    7   14 ar    
   17    7   21 1     
   18    8   15 1     
   19    8   22 1     
   20   10   15 1     
   21   10   23 1     
   22   12   24 1     
   23   12   25 1     
   24   12   26 1     
   25   13   16 ar    
   26   13   27 1     
   27   14   16 ar    
   28   14   28 1     
   29   15   17 2     
   30   16   29 1     
@<TRIPOS>SUBSTRUCTURE
      1 RES1           1
@<TRIPOS>SET
DONOR_HYDROGENS      STATIC     ATOMS    <user>   **** ""
2 22 23
ATOM$RED        STATIC     ATOMS    COLORGROUP SYSTEM
2 22 23
@<TRIPOS>COMMENT
> <Gold.Version>
2022.3.0

> <Gold.Id.Protein>
unknown|3oog_clean|pdb

> <Gold.Protein.RotatedTorsions>
[ 2749 2742 2740 2737 ] final  104.54 input   59.98 | X-H torsion
[ 1733 1732 1731 1729 ] final  109.11 input   60.02 | X-H torsion
[ 2432 2423 2422 2420 ] final  159.57 input   60.03 | X-H torsion
[ 4996 4987 4986 4984 ] final   67.96 input   60.02 | X-H torsion

> <Gold.Protein.ActiveResidues>
 LEU49   GLY50   THR51   ARG56   VAL57   MET58   LEU59   HIS68   TYR69   ALA70  
 MET71   LYS72   LEU74   GLU91   LEU95   VAL104  LYS105  LEU106  MET118  VAL119 
 MET120  GLU121  TYR122  VAL123  PRO124  GLY125  GLY126  GLU127  TYR164  GLU170 
 ASN171  LEU172  LEU173  ILE174  ASP175  GLN181  VAL182  THR183  ASP184  PHE185 
 GLY186  THR324  PHE327  TYR330 

> <Gold.Protein.RotatedAtoms>
   34.5987   13.0524  -10.8401 H   0  0  0  0  0  0  0  0  0  0  0  0  # atno 1733 bound_to 1732
   26.2323    1.8048    2.2418 H   0  0  0  0  0  0  0  0  0  0  0  0  # atno 2432 bound_to 2423
   27.6149    6.9689   -0.3544 H   0  0  0  0  0  0  0  0  0  0  0  0  # atno 2749 bound_to 2742
   23.2426   10.4202   -8.6022 H   0  0  0  0  0  0  0  0  0  0  0  0  # atno 4996 bound_to 4987
   28.0469    5.4010   -0.2913 LP  0  0  0  0  0  0  0  0  0  0  0  0  # atno 5321 bound_to 2742
   28.6462    6.3693   -1.4616 LP  0  0  0  0  0  0  0  0  0  0  0  0  # atno 5322 bound_to 2742
   33.7842   11.7320  -10.3488 LP  0  0  0  0  0  0  0  0  0  0  0  0  # atno 5347 bound_to 1732
   35.2938   11.5854  -10.9540 LP  0  0  0  0  0  0  0  0  0  0  0  0  # atno 5348 bound_to 1732

> <Gold.Score>
     Fitness  S(hb_ext) S(vdw_ext)  S(hb_int)    S(int)      intcor
     37.88       1.72      26.41       0.00      -0.15      -0.81

> <Gold.Goldscore.Fitness>
37.8828

> <Gold.Goldscore.Internal.Vdw>
-0.4429

> <Gold.Goldscore.Internal.Torsion>
-0.5124

> <Gold.Goldscore.External.Vdw>
26.4103

> <Gold.Goldscore.Internal.HBond>
0.0000

> <Gold.Goldscore.External.HBond>
1.7158

> <Gold.Goldscore.Internal.Correction>
-0.8080

> <Gold.Goldscore.Hbonds>
donor molecule, donor type, donor heavy atom, donor atom, acceptor molecule, acceptor atom, score
      L1  H     8    22       P1  2527  0.86

> <Gold.Goldscore.Internal.Vdw.Weighted>
-0.4429

> <Gold.Goldscore.Internal.Torsion.Weighted>
-0.5124

> <Gold.Goldscore.External.Vdw.Weighted>
36.3142

> <Gold.Goldscore.Internal.HBond.Weighted>
0.0000

> <Gold.Goldscore.External.HBond.Weighted>
1.7158

> <Gold.Goldscore.Internal.Correction.Weighted>
-0.8080

> <Gold.Rescore>
     Score     S(PLP)   S(hbond)     S(cho)   S(metal)  DE(clash)   DE(tors)     intcor
     38.58     -38.14       0.86       0.00       0.00       0.00       1.08       ----

> <Gold.PLP.Fitness>
38.5793

> <Gold.PLP.PLP>
-38.1375

> <Gold.PLP.part.hbond>
-2.0968

> <Gold.PLP.part.metal>
0.0000

> <Gold.PLP.part.buried>
-3.7453

> <Gold.PLP.part.nonpolar>
-32.6416

> <Gold.PLP.part.repulsive>
0.4690

> <Gold.PLP.ligand.clash>
0.0000

> <Gold.PLP.ligand.torsion>
1.0751

> <Gold.PLP.Chemscore.Hbond>
0.8640

> <Gold.PLP.Chemscore.CHOScore>
0.0000

> <Gold.PLP.Chemscore.Metal>
0.0000

> <Gold.Chemscore.Hbonds>
donor molecule, donor type, donor heavy atom, donor atom, acceptor molecule, acceptor atom, score
      L1  H     8    22       P1  2527  1.00

> <Gold.PLP.Chemscore.Internal.Correction>
   9.000000E+99

