#       Name:                CT1002167954
#       Creating user name   hitesit
#       Creation time:       Sun Apr 16 22:50:10 2023


#       File generated by GOLD software.
#

@<TRIPOS>MOLECULE
CT1002167954|ligand_prepared|mol2|1|dock3
    29    30     1
SMALL
NO_CHARGES


@<TRIPOS>ATOM
      1 C1          25.8033   9.7412  -2.8148 C.3            1 RES1               0.0000
      2 C2          24.8709  10.8005  -2.1925 C.ar           1 RES1               0.0000
      3 C3          25.5846   9.8110  -4.3233 C.2            1 RES1               0.0000
      4 C4          27.2167  10.1049  -2.3736 C.2            1 RES1               0.0000
      5 C5          25.5119   8.2977  -2.3425 C.3            1 RES1               0.0000
      6 C6          24.5475  11.9589  -2.8928 C.ar           1 RES1               0.0000
      7 C7          24.3254  10.6325  -0.9226 C.ar           1 RES1               0.0000
      8 N8          26.5643  10.3861  -5.0778 N.am           1 RES1               0.0000
      9 O9          24.5509   9.4035  -4.8386 O.2            1 RES1               0.0000
     10 N10         28.1088  10.4978  -3.3366 N.am           1 RES1               0.0000
     11 O11         27.5610  10.0707  -1.1986 O.2            1 RES1               0.0000
     12 C12         26.2415   7.2313  -3.1443 C.3            1 RES1               0.0000
     13 C13         23.7067  12.9133  -2.3446 C.ar           1 RES1               0.0000
     14 C14         23.4850  11.5884  -0.3762 C.ar           1 RES1               0.0000
     15 C15         27.8379  10.6844  -4.6647 C.2            1 RES1               0.0000
     16 C16         23.1746  12.7286  -1.0863 C.ar           1 RES1               0.0000
     17 O17         28.6795  11.0925  -5.4600 O.2            1 RES1               0.0000
     18 H18         25.8007   8.2060  -1.2882 H              1 RES1               0.0000
     19 H19         24.4325   8.1146  -2.4117 H              1 RES1               0.0000
     20 H20         24.9586  12.1227  -3.8833 H              1 RES1               0.0000
     21 H21         24.5565   9.7438  -0.3452 H              1 RES1               0.0000
     22 H22         26.3281  10.6157  -6.0379 H              1 RES1               0.0000
     23 H23         29.0634  10.6667  -3.0355 H              1 RES1               0.0000
     24 H24         26.0020   6.2375  -2.7718 H              1 RES1               0.0000
     25 H25         25.9588   7.2770  -4.1939 H              1 RES1               0.0000
     26 H26         27.3188   7.3679  -3.0771 H              1 RES1               0.0000
     27 H27         23.4667  13.8096  -2.9070 H              1 RES1               0.0000
     28 H28         23.0690  11.4392   0.6148 H              1 RES1               0.0000
     29 H29         22.5158  13.4763  -0.6573 H              1 RES1               0.0000
@<TRIPOS>BOND
    1    1    2 1     
    2    1    3 1     
    3    1    4 1     
    4    1    5 1     
    5    2    6 ar    
    6    2    7 ar    
    7    3    8 1     
    8    3    9 2     
    9    4   10 1     
   10    4   11 2     
   11    5   12 1     
   12    5   18 1     
   13    5   19 1     
   14    6   13 ar    
   15    6   20 1     
   16    7   14 ar    
   17    7   21 1     
   18    8   15 1     
   19    8   22 1     
   20   10   15 1     
   21   10   23 1     
   22   12   24 1     
   23   12   25 1     
   24   12   26 1     
   25   13   16 ar    
   26   13   27 1     
   27   14   16 ar    
   28   14   28 1     
   29   15   17 2     
   30   16   29 1     
@<TRIPOS>SUBSTRUCTURE
      1 RES1           1
@<TRIPOS>SET
DONOR_HYDROGENS      STATIC     ATOMS    <user>   **** ""
2 22 23
ATOM$RED        STATIC     ATOMS    COLORGROUP SYSTEM
2 22 23
@<TRIPOS>COMMENT
> <Gold.Version>
2022.3.0

> <Gold.Id.Protein>
unknown|3oog_clean|pdb

> <Gold.Protein.RotatedTorsions>
[ 2749 2742 2740 2737 ] final -158.94 input   59.98 | X-H torsion
[ 1733 1732 1731 1729 ] final -113.16 input   60.02 | X-H torsion
[ 2432 2423 2422 2420 ] final  107.32 input   60.03 | X-H torsion
[ 4996 4987 4986 4984 ] final   52.27 input   60.02 | X-H torsion

> <Gold.Protein.ActiveResidues>
 LEU49   GLY50   THR51   ARG56   VAL57   MET58   LEU59   HIS68   TYR69   ALA70  
 MET71   LYS72   LEU74   GLU91   LEU95   VAL104  LYS105  LEU106  MET118  VAL119 
 MET120  GLU121  TYR122  VAL123  PRO124  GLY125  GLY126  GLU127  TYR164  GLU170 
 ASN171  LEU172  LEU173  ILE174  ASP175  GLN181  VAL182  THR183  ASP184  PHE185 
 GLY186  THR324  PHE327  TYR330 

> <Gold.Protein.RotatedAtoms>
   35.1128   11.3833  -10.8526 H   0  0  0  0  0  0  0  0  0  0  0  0  # atno 1733 bound_to 1732
   27.0124    2.0163    2.4060 H   0  0  0  0  0  0  0  0  0  0  0  0  # atno 2432 bound_to 2423
   28.4995    6.7183   -1.4070 H   0  0  0  0  0  0  0  0  0  0  0  0  # atno 2749 bound_to 2742
   23.4079   10.3773   -8.7923 H   0  0  0  0  0  0  0  0  0  0  0  0  # atno 4996 bound_to 4987
   27.5129    6.6904   -0.1128 LP  0  0  0  0  0  0  0  0  0  0  0  0  # atno 5321 bound_to 2742
   28.2897    5.3322   -0.5802 LP  0  0  0  0  0  0  0  0  0  0  0  0  # atno 5322 bound_to 2742
   34.8616   12.9886  -10.9434 LP  0  0  0  0  0  0  0  0  0  0  0  0  # atno 5347 bound_to 1732
   33.6986   12.0098  -10.3467 LP  0  0  0  0  0  0  0  0  0  0  0  0  # atno 5348 bound_to 1732

> <Gold.Score>
     Fitness  S(hb_ext) S(vdw_ext)  S(hb_int)    S(int)      intcor
     31.24       0.03      23.12       0.00      -0.58      -0.76

> <Gold.Goldscore.Fitness>
31.2438

> <Gold.Goldscore.Internal.Vdw>
-0.7786

> <Gold.Goldscore.Internal.Torsion>
-0.5627

> <Gold.Goldscore.External.Vdw>
23.1224

> <Gold.Goldscore.Internal.HBond>
0.0000

> <Gold.Goldscore.External.HBond>
0.0332

> <Gold.Goldscore.Internal.Correction>
-0.7585

> <Gold.Goldscore.Hbonds>
donor molecule, donor type, donor heavy atom, donor atom, acceptor molecule, acceptor atom, score
      L1  H     8    22       P1   503  0.02

> <Gold.Goldscore.Internal.Vdw.Weighted>
-0.7786

> <Gold.Goldscore.Internal.Torsion.Weighted>
-0.5627

> <Gold.Goldscore.External.Vdw.Weighted>
31.7934

> <Gold.Goldscore.Internal.HBond.Weighted>
0.0000

> <Gold.Goldscore.External.HBond.Weighted>
0.0332

> <Gold.Goldscore.Internal.Correction.Weighted>
-0.7585

> <Gold.Rescore>
     Score     S(PLP)   S(hbond)     S(cho)   S(metal)  DE(clash)   DE(tors)     intcor
     29.11     -31.28       0.00       0.00       0.00       1.82       0.18       ----

> <Gold.PLP.Fitness>
29.1052

> <Gold.PLP.PLP>
-31.2763

> <Gold.PLP.part.hbond>
0.0000

> <Gold.PLP.part.metal>
0.0000

> <Gold.PLP.part.buried>
-3.9531

> <Gold.PLP.part.nonpolar>
-27.4002

> <Gold.PLP.part.repulsive>
0.2687

> <Gold.PLP.ligand.clash>
1.8196

> <Gold.PLP.ligand.torsion>
0.1757

> <Gold.PLP.Chemscore.Hbond>
0.0000

> <Gold.PLP.Chemscore.CHOScore>
0.0000

> <Gold.PLP.Chemscore.Metal>
0.0000

> <Gold.Chemscore.Hbonds>
donor molecule, donor type, donor heavy atom, donor atom, acceptor molecule, acceptor atom, score
      L1  H     8    22       P1   503  0.31

> <Gold.PLP.Chemscore.Internal.Correction>
   9.000000E+99

