#       Name:                CT1002167954
#       Creating user name   hitesit
#       Creation time:       Sun Apr 16 22:50:14 2023


#       File generated by GOLD software.
#

@<TRIPOS>MOLECULE
CT1002167954|ligand_prepared|mol2|1|dock7
    29    30     1
SMALL
NO_CHARGES


@<TRIPOS>ATOM
      1 C1          27.3470   9.1764  -3.1889 C.3            1 RES1               0.0000
      2 C2          28.5982   9.6896  -2.4473 C.ar           1 RES1               0.0000
      3 C3          26.7758  10.3730  -3.9441 C.2            1 RES1               0.0000
      4 C4          27.8207   8.0409  -4.0894 C.2            1 RES1               0.0000
      5 C5          26.2507   8.6178  -2.2522 C.3            1 RES1               0.0000
      6 C6          28.6038   9.8008  -1.0601 C.ar           1 RES1               0.0000
      7 C7          29.7531  10.0523  -3.1352 C.ar           1 RES1               0.0000
      8 N8          26.9457  10.4061  -5.2968 N.am           1 RES1               0.0000
      9 O9          26.2195  11.2928  -3.3570 O.2            1 RES1               0.0000
     10 N10         27.7398   8.2204  -5.4455 N.am           1 RES1               0.0000
     11 O11         28.2786   6.9989  -3.6370 O.2            1 RES1               0.0000
     12 C12         25.0905   7.9650  -2.9871 C.3            1 RES1               0.0000
     13 C13         29.7243  10.2554  -0.3847 C.ar           1 RES1               0.0000
     14 C14         30.8725  10.5068  -2.4578 C.ar           1 RES1               0.0000
     15 C15         27.3524   9.3635  -6.0901 C.2            1 RES1               0.0000
     16 C16         30.8595  10.6082  -1.0829 C.ar           1 RES1               0.0000
     17 O17         27.3581   9.4668  -7.3134 O.2            1 RES1               0.0000
     18 H18         26.7036   7.8786  -1.5800 H              1 RES1               0.0000
     19 H19         25.8616   9.4376  -1.6358 H              1 RES1               0.0000
     20 H20         27.7188   9.5301  -0.4938 H              1 RES1               0.0000
     21 H21         29.7859   9.9817  -4.2171 H              1 RES1               0.0000
     22 H22         26.7525  11.2876  -5.7616 H              1 RES1               0.0000
     23 H23         27.9916   7.4285  -6.0285 H              1 RES1               0.0000
     24 H24         24.3501   7.5903  -2.2835 H              1 RES1               0.0000
     25 H25         24.6008   8.6789  -3.6463 H              1 RES1               0.0000
     26 H26         25.4378   7.1291  -3.5909 H              1 RES1               0.0000
     27 H27         29.7084  10.3347   0.6973 H              1 RES1               0.0000
     28 H28         31.7635  10.7840  -3.0115 H              1 RES1               0.0000
     29 H29         31.7372  10.9639  -0.5536 H              1 RES1               0.0000
@<TRIPOS>BOND
    1    1    2 1     
    2    1    3 1     
    3    1    4 1     
    4    1    5 1     
    5    2    6 ar    
    6    2    7 ar    
    7    3    8 1     
    8    3    9 2     
    9    4   10 1     
   10    4   11 2     
   11    5   12 1     
   12    5   18 1     
   13    5   19 1     
   14    6   13 ar    
   15    6   20 1     
   16    7   14 ar    
   17    7   21 1     
   18    8   15 1     
   19    8   22 1     
   20   10   15 1     
   21   10   23 1     
   22   12   24 1     
   23   12   25 1     
   24   12   26 1     
   25   13   16 ar    
   26   13   27 1     
   27   14   16 ar    
   28   14   28 1     
   29   15   17 2     
   30   16   29 1     
@<TRIPOS>SUBSTRUCTURE
      1 RES1           1
@<TRIPOS>SET
DONOR_HYDROGENS      STATIC     ATOMS    <user>   **** ""
2 22 23
ATOM$RED        STATIC     ATOMS    COLORGROUP SYSTEM
2 22 23
@<TRIPOS>COMMENT
> <Gold.Version>
2022.3.0

> <Gold.Id.Protein>
unknown|3oog_clean|pdb

> <Gold.Protein.RotatedTorsions>
[ 2749 2742 2740 2737 ] final -155.37 input   59.98 | X-H torsion
[ 1733 1732 1731 1729 ] final  -47.80 input   60.02 | X-H torsion
[ 2432 2423 2422 2420 ] final -132.30 input   60.03 | X-H torsion
[ 4996 4987 4986 4984 ] final   59.40 input   60.02 | X-H torsion

> <Gold.Protein.ActiveResidues>
 LEU49   GLY50   THR51   ARG56   VAL57   MET58   LEU59   HIS68   TYR69   ALA70  
 MET71   LYS72   LEU74   GLU91   LEU95   VAL104  LYS105  LEU106  MET118  VAL119 
 MET120  GLU121  TYR122  VAL123  PRO124  GLY125  GLY126  GLU127  TYR164  GLU170 
 ASN171  LEU172  LEU173  ILE174  ASP175  GLN181  VAL182  THR183  ASP184  PHE185 
 GLY186  THR324  PHE327  TYR330 

> <Gold.Protein.RotatedAtoms>
   34.1842   11.3060  -10.4603 H   0  0  0  0  0  0  0  0  0  0  0  0  # atno 1733 bound_to 1732
   25.4447    2.4030    2.5924 H   0  0  0  0  0  0  0  0  0  0  0  0  # atno 2432 bound_to 2423
   28.5264    6.6689   -1.4224 H   0  0  0  0  0  0  0  0  0  0  0  0  # atno 2749 bound_to 2742
   23.3395   10.3983   -8.7006 H   0  0  0  0  0  0  0  0  0  0  0  0  # atno 4996 bound_to 4987
   27.5216    6.7394   -0.1439 LP  0  0  0  0  0  0  0  0  0  0  0  0  # atno 5321 bound_to 2742
   28.2539    5.3328   -0.5338 LP  0  0  0  0  0  0  0  0  0  0  0  0  # atno 5322 bound_to 2742
   35.4286   12.1537  -11.0775 LP  0  0  0  0  0  0  0  0  0  0  0  0  # atno 5347 bound_to 1732
   34.0667   12.9224  -10.6076 LP  0  0  0  0  0  0  0  0  0  0  0  0  # atno 5348 bound_to 1732

> <Gold.Score>
     Fitness  S(hb_ext) S(vdw_ext)  S(hb_int)    S(int)      intcor
     34.03       1.17      24.41       0.00      -0.70      -0.76

> <Gold.Goldscore.Fitness>
34.0307

> <Gold.Goldscore.Internal.Vdw>
-1.0260

> <Gold.Goldscore.Internal.Torsion>
-0.4370

> <Gold.Goldscore.External.Vdw>
24.4127

> <Gold.Goldscore.Internal.HBond>
0.0000

> <Gold.Goldscore.External.HBond>
1.1678

> <Gold.Goldscore.Internal.Correction>
-0.7585

> <Gold.Goldscore.Hbonds>
donor molecule, donor type, donor heavy atom, donor atom, acceptor molecule, acceptor atom, score
      P1  H  2742  2749       L1    11  0.58

> <Gold.Goldscore.Internal.Vdw.Weighted>
-1.0260

> <Gold.Goldscore.Internal.Torsion.Weighted>
-0.4370

> <Gold.Goldscore.External.Vdw.Weighted>
33.5674

> <Gold.Goldscore.Internal.HBond.Weighted>
0.0000

> <Gold.Goldscore.External.HBond.Weighted>
1.1678

> <Gold.Goldscore.Internal.Correction.Weighted>
-0.7585

> <Gold.Rescore>
     Score     S(PLP)   S(hbond)     S(cho)   S(metal)  DE(clash)   DE(tors)     intcor
     35.44     -33.59       0.62       0.00       0.00       0.00       0.01       ----

> <Gold.PLP.Fitness>
35.4446

> <Gold.PLP.PLP>
-33.5944

> <Gold.PLP.part.hbond>
-0.9485

> <Gold.PLP.part.metal>
0.0000

> <Gold.PLP.part.buried>
-4.7423

> <Gold.PLP.part.nonpolar>
-29.0514

> <Gold.PLP.part.repulsive>
0.4404

> <Gold.PLP.ligand.clash>
0.0000

> <Gold.PLP.ligand.torsion>
0.0109

> <Gold.PLP.Chemscore.Hbond>
0.6240

> <Gold.PLP.Chemscore.CHOScore>
0.0000

> <Gold.PLP.Chemscore.Metal>
0.0000

> <Gold.Chemscore.Hbonds>
donor molecule, donor type, donor heavy atom, donor atom, acceptor molecule, acceptor atom, score
      L1  H     8    22       P1   503  0.13
      P1  H  2742  2749       L1    11  0.62

> <Gold.PLP.Chemscore.Internal.Correction>
   9.000000E+99

