#       Name:                CT1002167954
#       Creating user name   hitesit
#       Creation time:       Sun Apr 16 22:50:15 2023


#       File generated by GOLD software.
#

@<TRIPOS>MOLECULE
CT1002167954|ligand_prepared|mol2|1|dock8
    29    30     1
SMALL
NO_CHARGES


@<TRIPOS>ATOM
      1 C1          26.7152   9.4948  -3.7453 C.3            1 RES1               0.0000
      2 C2          25.9737  10.1465  -2.5603 C.ar           1 RES1               0.0000
      3 C3          28.0815   9.0706  -3.2147 C.2            1 RES1               0.0000
      4 C4          25.8408   8.3354  -4.2100 C.2            1 RES1               0.0000
      5 C5          26.9282  10.4442  -4.9473 C.3            1 RES1               0.0000
      6 C6          25.0040  11.1202  -2.7803 C.ar           1 RES1               0.0000
      7 C7          26.2462   9.7832  -1.2441 C.ar           1 RES1               0.0000
      8 N8          28.2920   7.7397  -3.0040 N.am           1 RES1               0.0000
      9 O9          28.9474   9.8947  -2.9478 O.2            1 RES1               0.0000
     10 N10         26.3288   7.0635  -4.0616 N.am           1 RES1               0.0000
     11 O11         24.7268   8.5108  -4.6880 O.2            1 RES1               0.0000
     12 C12         27.9147   9.9172  -5.9775 C.3            1 RES1               0.0000
     13 C13         24.3289  11.7073  -1.7230 C.ar           1 RES1               0.0000
     14 C14         25.5700  10.3718  -0.1882 C.ar           1 RES1               0.0000
     15 C15         27.5019   6.7115  -3.4515 C.2            1 RES1               0.0000
     16 C16         24.6111  11.3332  -0.4264 C.ar           1 RES1               0.0000
     17 O17         27.8470   5.5422  -3.3074 O.2            1 RES1               0.0000
     18 H18         25.9621  10.6145  -5.4384 H              1 RES1               0.0000
     19 H19         27.2897  11.4105  -4.5744 H              1 RES1               0.0000
     20 H20         24.7702  11.4291  -3.7936 H              1 RES1               0.0000
     21 H21         26.9974   9.0298  -1.0328 H              1 RES1               0.0000
     22 H22         29.1128   7.4854  -2.4637 H              1 RES1               0.0000
     23 H23         25.7654   6.3093  -4.4412 H              1 RES1               0.0000
     24 H24         28.0273  10.6214  -6.7992 H              1 RES1               0.0000
     25 H25         28.8936   9.7603  -5.5292 H              1 RES1               0.0000
     26 H26         27.5740   8.9690  -6.3881 H              1 RES1               0.0000
     27 H27         23.5761  12.4644  -1.9157 H              1 RES1               0.0000
     28 H28         25.7958  10.0748   0.8307 H              1 RES1               0.0000
     29 H29         24.0818  11.7930   0.4017 H              1 RES1               0.0000
@<TRIPOS>BOND
    1    1    2 1     
    2    1    3 1     
    3    1    4 1     
    4    1    5 1     
    5    2    6 ar    
    6    2    7 ar    
    7    3    8 1     
    8    3    9 2     
    9    4   10 1     
   10    4   11 2     
   11    5   12 1     
   12    5   18 1     
   13    5   19 1     
   14    6   13 ar    
   15    6   20 1     
   16    7   14 ar    
   17    7   21 1     
   18    8   15 1     
   19    8   22 1     
   20   10   15 1     
   21   10   23 1     
   22   12   24 1     
   23   12   25 1     
   24   12   26 1     
   25   13   16 ar    
   26   13   27 1     
   27   14   16 ar    
   28   14   28 1     
   29   15   17 2     
   30   16   29 1     
@<TRIPOS>SUBSTRUCTURE
      1 RES1           1
@<TRIPOS>SET
DONOR_HYDROGENS      STATIC     ATOMS    <user>   **** ""
2 22 23
ATOM$RED        STATIC     ATOMS    COLORGROUP SYSTEM
2 22 23
@<TRIPOS>COMMENT
> <Gold.Version>
2022.3.0

> <Gold.Id.Protein>
unknown|3oog_clean|pdb

> <Gold.Protein.RotatedTorsions>
[ 2749 2742 2740 2737 ] final  102.99 input   59.98 | X-H torsion
[ 1733 1732 1731 1729 ] final   -0.24 input   60.02 | X-H torsion
[ 2432 2423 2422 2420 ] final  137.76 input   60.03 | X-H torsion
[ 4996 4987 4986 4984 ] final   67.59 input   60.02 | X-H torsion

> <Gold.Protein.ActiveResidues>
 LEU49   GLY50   THR51   ARG56   VAL57   MET58   LEU59   HIS68   TYR69   ALA70  
 MET71   LYS72   LEU74   GLU91   LEU95   VAL104  LYS105  LEU106  MET118  VAL119 
 MET120  GLU121  TYR122  VAL123  PRO124  GLY125  GLY126  GLU127  TYR164  GLU170 
 ASN171  LEU172  LEU173  ILE174  ASP175  GLN181  VAL182  THR183  ASP184  PHE185 
 GLY186  THR324  PHE327  TYR330 

> <Gold.Protein.RotatedAtoms>
   33.7300   11.8978  -10.3437 H   0  0  0  0  0  0  0  0  0  0  0  0  # atno 1733 bound_to 1732
   26.5858    1.8177    2.2635 H   0  0  0  0  0  0  0  0  0  0  0  0  # atno 2432 bound_to 2423
   27.6058    6.9536   -0.3363 H   0  0  0  0  0  0  0  0  0  0  0  0  # atno 2749 bound_to 2742
   23.2472   10.4193   -8.6062 H   0  0  0  0  0  0  0  0  0  0  0  0  # atno 4996 bound_to 4987
   28.0632    5.3918   -0.3088 LP  0  0  0  0  0  0  0  0  0  0  0  0  # atno 5321 bound_to 2742
   28.6392    6.3939   -1.4623 LP  0  0  0  0  0  0  0  0  0  0  0  0  # atno 5322 bound_to 2742
   35.1943   11.4532  -10.8971 LP  0  0  0  0  0  0  0  0  0  0  0  0  # atno 5347 bound_to 1732
   34.7584   13.0269  -10.9055 LP  0  0  0  0  0  0  0  0  0  0  0  0  # atno 5348 bound_to 1732

> <Gold.Score>
     Fitness  S(hb_ext) S(vdw_ext)  S(hb_int)    S(int)      intcor
     33.73       0.97      24.42       0.00      -0.82      -0.76

> <Gold.Goldscore.Fitness>
33.7251

> <Gold.Goldscore.Internal.Vdw>
-0.9498

> <Gold.Goldscore.Internal.Torsion>
-0.6325

> <Gold.Goldscore.External.Vdw>
24.4210

> <Gold.Goldscore.Internal.HBond>
0.0000

> <Gold.Goldscore.External.HBond>
0.9699

> <Gold.Goldscore.Internal.Correction>
-0.7585

> <Gold.Goldscore.Hbonds>
donor molecule, donor type, donor heavy atom, donor atom, acceptor molecule, acceptor atom, score
      L1  H    10    23       P1  2527  0.48

> <Gold.Goldscore.Internal.Vdw.Weighted>
-0.9498

> <Gold.Goldscore.Internal.Torsion.Weighted>
-0.6325

> <Gold.Goldscore.External.Vdw.Weighted>
33.5789

> <Gold.Goldscore.Internal.HBond.Weighted>
0.0000

> <Gold.Goldscore.External.HBond.Weighted>
0.9699

> <Gold.Goldscore.Internal.Correction.Weighted>
-0.7585

> <Gold.Rescore>
     Score     S(PLP)   S(hbond)     S(cho)   S(metal)  DE(clash)   DE(tors)     intcor
     31.29     -30.21       0.98       0.00       0.00       0.46       0.69       ----

> <Gold.PLP.Fitness>
31.2929

> <Gold.PLP.PLP>
-30.2055

> <Gold.PLP.part.hbond>
-2.8927

> <Gold.PLP.part.metal>
0.0000

> <Gold.PLP.part.buried>
-1.6116

> <Gold.PLP.part.nonpolar>
-27.0201

> <Gold.PLP.part.repulsive>
0.8566

> <Gold.PLP.ligand.clash>
0.4555

> <Gold.PLP.ligand.torsion>
0.6911

> <Gold.PLP.Chemscore.Hbond>
0.9750

> <Gold.PLP.Chemscore.CHOScore>
0.0000

> <Gold.PLP.Chemscore.Metal>
0.0000

> <Gold.Chemscore.Hbonds>
donor molecule, donor type, donor heavy atom, donor atom, acceptor molecule, acceptor atom, score
      L1  H     8    22       P1  2742  0.02
      L1  H    10    23       P1  2527  0.91

> <Gold.PLP.Chemscore.Internal.Correction>
   9.000000E+99

