#       Name:                CT1002167954
#       Creating user name   hitesit
#       Creation time:       Sun Apr 16 22:50:17 2023


#       File generated by GOLD software.
#

@<TRIPOS>MOLECULE
CT1002167954|ligand_prepared|mol2|1|dock10
    29    30     1
SMALL
NO_CHARGES


@<TRIPOS>ATOM
      1 C1          26.0565   9.4582  -2.2975 C.3            1 RES1               0.0000
      2 C2          27.3652   9.6260  -1.4988 C.ar           1 RES1               0.0000
      3 C3          24.9420   9.3049  -1.2666 C.2            1 RES1               0.0000
      4 C4          25.9283  10.7005  -3.1722 C.2            1 RES1               0.0000
      5 C5          26.0437   8.2191  -3.2227 C.3            1 RES1               0.0000
      6 C6          28.5989   9.5705  -2.1402 C.ar           1 RES1               0.0000
      7 C7          27.3546   9.8393  -0.1229 C.ar           1 RES1               0.0000
      8 N8          24.1023  10.3635  -1.0818 N.am           1 RES1               0.0000
      9 O9          24.8261   8.2853  -0.5978 O.2            1 RES1               0.0000
     10 N10         24.8896  11.5582  -2.9210 N.am           1 RES1               0.0000
     11 O11         26.7270  10.9528  -4.0658 O.2            1 RES1               0.0000
     12 C12         24.7067   7.9775  -3.9055 C.3            1 RES1               0.0000
     13 C13         29.7793   9.7255  -1.4324 C.ar           1 RES1               0.0000
     14 C14         28.5363   9.9938   0.5830 C.ar           1 RES1               0.0000
     15 C15         23.9886  11.4618  -1.8957 C.2            1 RES1               0.0000
     16 C16         29.7488   9.9377  -0.0706 C.ar           1 RES1               0.0000
     17 O17         23.1152  12.3026  -1.7020 O.2            1 RES1               0.0000
     18 H18         26.8155   8.3449  -3.9921 H              1 RES1               0.0000
     19 H19         26.3026   7.3331  -2.6299 H              1 RES1               0.0000
     20 H20         28.6428   9.4019  -3.2111 H              1 RES1               0.0000
     21 H21         26.4124   9.8861   0.4124 H              1 RES1               0.0000
     22 H22         23.5034  10.3359  -0.2627 H              1 RES1               0.0000
     23 H23         24.7775  12.3410  -3.5574 H              1 RES1               0.0000
     24 H24         24.7525   7.0967  -4.5424 H              1 RES1               0.0000
     25 H25         23.9202   7.8231  -3.1697 H              1 RES1               0.0000
     26 H26         24.4300   8.8289  -4.5239 H              1 RES1               0.0000
     27 H27         30.7311   9.6791  -1.9513 H              1 RES1               0.0000
     28 H28         28.5075  10.1600   1.6549 H              1 RES1               0.0000
     29 H29         30.6736  10.0594   0.4836 H              1 RES1               0.0000
@<TRIPOS>BOND
    1    1    2 1     
    2    1    3 1     
    3    1    4 1     
    4    1    5 1     
    5    2    6 ar    
    6    2    7 ar    
    7    3    8 1     
    8    3    9 2     
    9    4   10 1     
   10    4   11 2     
   11    5   12 1     
   12    5   18 1     
   13    5   19 1     
   14    6   13 ar    
   15    6   20 1     
   16    7   14 ar    
   17    7   21 1     
   18    8   15 1     
   19    8   22 1     
   20   10   15 1     
   21   10   23 1     
   22   12   24 1     
   23   12   25 1     
   24   12   26 1     
   25   13   16 ar    
   26   13   27 1     
   27   14   16 ar    
   28   14   28 1     
   29   15   17 2     
   30   16   29 1     
@<TRIPOS>SUBSTRUCTURE
      1 RES1           1
@<TRIPOS>SET
DONOR_HYDROGENS      STATIC     ATOMS    <user>   **** ""
2 22 23
ATOM$RED        STATIC     ATOMS    COLORGROUP SYSTEM
2 22 23
@<TRIPOS>COMMENT
> <Gold.Version>
2022.3.0

> <Gold.Id.Protein>
unknown|3oog_clean|pdb

> <Gold.Protein.RotatedTorsions>
[ 2749 2742 2740 2737 ] final  100.97 input   59.98 | X-H torsion
[ 1733 1732 1731 1729 ] final  123.64 input   60.02 | X-H torsion
[ 2432 2423 2422 2420 ] final   -0.12 input   60.03 | X-H torsion
[ 4996 4987 4986 4984 ] final  167.85 input   60.02 | X-H torsion

> <Gold.Protein.ActiveResidues>
 LEU49   GLY50   THR51   ARG56   VAL57   MET58   LEU59   HIS68   TYR69   ALA70  
 MET71   LYS72   LEU74   GLU91   LEU95   VAL104  LYS105  LEU106  MET118  VAL119 
 MET120  GLU121  TYR122  VAL123  PRO124  GLY125  GLY126  GLU127  TYR164  GLU170 
 ASN171  LEU172  LEU173  ILE174  ASP175  GLN181  VAL182  THR183  ASP184  PHE185 
 GLY186  THR324  PHE327  TYR330 

> <Gold.Protein.RotatedAtoms>
   34.8145   13.0017  -10.9230 H   0  0  0  0  0  0  0  0  0  0  0  0  # atno 1733 bound_to 1732
   26.7840    3.2797    3.2010 H   0  0  0  0  0  0  0  0  0  0  0  0  # atno 2432 bound_to 2423
   27.5945    6.9329   -0.3132 H   0  0  0  0  0  0  0  0  0  0  0  0  # atno 2749 bound_to 2742
   21.8248   10.3353   -8.7893 H   0  0  0  0  0  0  0  0  0  0  0  0  # atno 4996 bound_to 4987
   28.0843    5.3809   -0.3319 LP  0  0  0  0  0  0  0  0  0  0  0  0  # atno 5321 bound_to 2742
   28.6295    6.4257   -1.4624 LP  0  0  0  0  0  0  0  0  0  0  0  0  # atno 5322 bound_to 2742
   33.7082   11.9579  -10.3444 LP  0  0  0  0  0  0  0  0  0  0  0  0  # atno 5347 bound_to 1732
   35.1524   11.4106  -10.8748 LP  0  0  0  0  0  0  0  0  0  0  0  0  # atno 5348 bound_to 1732

> <Gold.Score>
     Fitness  S(hb_ext) S(vdw_ext)  S(hb_int)    S(int)      intcor
     31.16       0.27      23.58       0.00      -1.54      -0.76

> <Gold.Goldscore.Fitness>
31.1614

> <Gold.Goldscore.Internal.Vdw>
-1.8760

> <Gold.Goldscore.Internal.Torsion>
-0.4218

> <Gold.Goldscore.External.Vdw>
23.5826

> <Gold.Goldscore.Internal.HBond>
0.0000

> <Gold.Goldscore.External.HBond>
0.2747

> <Gold.Goldscore.Internal.Correction>
-0.7585

> <Gold.Goldscore.Hbonds>
donor molecule, donor type, donor heavy atom, donor atom, acceptor molecule, acceptor atom, score
      P1  H  2742  2749       L1     9  0.12
      L1  H    10    23       P1   522  0.02

> <Gold.Goldscore.Internal.Vdw.Weighted>
-1.8760

> <Gold.Goldscore.Internal.Torsion.Weighted>
-0.4218

> <Gold.Goldscore.External.Vdw.Weighted>
32.4260

> <Gold.Goldscore.Internal.HBond.Weighted>
0.0000

> <Gold.Goldscore.External.HBond.Weighted>
0.2747

> <Gold.Goldscore.Internal.Correction.Weighted>
-0.7585

> <Gold.Rescore>
     Score     S(PLP)   S(hbond)     S(cho)   S(metal)  DE(clash)   DE(tors)     intcor
     29.69     -31.45       0.00       0.00       0.00       1.35       0.20       ----

> <Gold.PLP.Fitness>
29.6940

> <Gold.PLP.PLP>
-31.4455

> <Gold.PLP.part.hbond>
0.0000

> <Gold.PLP.part.metal>
0.0000

> <Gold.PLP.part.buried>
-4.8520

> <Gold.PLP.part.nonpolar>
-26.9789

> <Gold.PLP.part.repulsive>
0.7649

> <Gold.PLP.ligand.clash>
1.3460

> <Gold.PLP.ligand.torsion>
0.2028

> <Gold.PLP.Chemscore.Hbond>
0.0000

> <Gold.PLP.Chemscore.CHOScore>
0.0000

> <Gold.PLP.Chemscore.Metal>
0.0000

> <Gold.PLP.Chemscore.Internal.Correction>
   9.000000E+99

