#       Name:                CT1002167954
#       Creating user name   hitesit
#       Creation time:       Sun Apr 16 22:52:07 2023


#       File generated by GOLD software.
#

@<TRIPOS>MOLECULE
CT1002167954|ligand_prepared|mol2|1|dock5
    29    30     1
SMALL
NO_CHARGES


@<TRIPOS>ATOM
      1 C1         112.6306 242.6930 326.1771 C.3            1 RES1               0.0000
      2 C2         112.2026 242.6881 327.6588 C.ar           1 RES1               0.0000
      3 C3         112.8356 241.2325 325.7855 C.2            1 RES1               0.0000
      4 C4         111.5115 243.3910 325.4121 C.2            1 RES1               0.0000
      5 C5         113.9449 243.4626 325.9089 C.3            1 RES1               0.0000
      6 C6         110.8605 242.5729 328.0084 C.ar           1 RES1               0.0000
      7 C7         113.1369 242.7950 328.6856 C.ar           1 RES1               0.0000
      8 N8         111.8921 240.6535 324.9889 N.am           1 RES1               0.0000
      9 O9         113.7899 240.5873 326.2017 O.2            1 RES1               0.0000
     10 N10        110.7872 242.6498 324.5156 N.am           1 RES1               0.0000
     11 O11        111.2396 244.5720 325.5898 O.2            1 RES1               0.0000
     12 C12        114.2175 243.7152 324.4344 C.3            1 RES1               0.0000
     13 C13        110.4668 242.5620 329.3363 C.ar           1 RES1               0.0000
     14 C14        112.7411 242.7842 330.0129 C.ar           1 RES1               0.0000
     15 C15        110.9067 241.3052 324.2918 C.2            1 RES1               0.0000
     16 C16        111.4068 242.6672 330.3393 C.ar           1 RES1               0.0000
     17 O17        110.1817 240.6985 323.5086 O.2            1 RES1               0.0000
     18 H18        113.9022 244.4267 326.4304 H              1 RES1               0.0000
     19 H19        114.7811 242.8906 326.3296 H              1 RES1               0.0000
     20 H20        110.1063 242.4916 327.2327 H              1 RES1               0.0000
     21 H21        114.1921 242.8891 328.4523 H              1 RES1               0.0000
     22 H22        111.9220 239.6425 324.9037 H              1 RES1               0.0000
     23 H23        110.0949 243.1464 323.9639 H              1 RES1               0.0000
     24 H24        115.1511 244.2580 324.3023 H              1 RES1               0.0000
     25 H25        114.2913 242.7764 323.8894 H              1 RES1               0.0000
     26 H26        113.4175 244.3035 323.9896 H              1 RES1               0.0000
     27 H27        109.4153 242.4712 329.5879 H              1 RES1               0.0000
     28 H28        113.4842 242.8679 330.7990 H              1 RES1               0.0000
     29 H29        111.0982 242.6583 331.3794 H              1 RES1               0.0000
@<TRIPOS>BOND
    1    1    2 1     
    2    1    3 1     
    3    1    4 1     
    4    1    5 1     
    5    2    6 ar    
    6    2    7 ar    
    7    3    8 1     
    8    3    9 2     
    9    4   10 1     
   10    4   11 2     
   11    5   12 1     
   12    5   18 1     
   13    5   19 1     
   14    6   13 ar    
   15    6   20 1     
   16    7   14 ar    
   17    7   21 1     
   18    8   15 1     
   19    8   22 1     
   20   10   15 1     
   21   10   23 1     
   22   12   24 1     
   23   12   25 1     
   24   12   26 1     
   25   13   16 ar    
   26   13   27 1     
   27   14   16 ar    
   28   14   28 1     
   29   15   17 2     
   30   16   29 1     
@<TRIPOS>SUBSTRUCTURE
      1 RES1           1
@<TRIPOS>SET
DONOR_HYDROGENS      STATIC     ATOMS    <user>   **** ""
2 22 23
ATOM$RED        STATIC     ATOMS    COLORGROUP SYSTEM
2 22 23
@<TRIPOS>COMMENT
> <Gold.Version>
2022.3.0

> <Gold.Id.Protein>
unknown|4uh6_clean|pdb

> <Gold.Protein.RotatedTorsions>
[ 8453 8448 8449 8450 ] final   26.63 input   43.75 | X-H torsion
[ 8477 8470 8471 8472 ] final -104.25 input  101.27 | X-H torsion
[ 9021 9017 9018 9019 ] final -139.26 input   41.82 | X-H torsion
[ 9055 9041 9042 9043 ] final -155.65 input   38.00 | X-H torsion
[ 9099 9087 9088 9089 ] final  161.80 input   99.63 | X-H torsion
[ 9107 9098 9097 9095 ] final  -26.78 input   60.00 | X-H torsion
[ 9133 9125 9126 9127 ] final  -68.56 input   87.39 | X-H torsion
[ 9211 9202 9203 9204 ] final  111.65 input  119.00 | X-H torsion
[ 3596 3592 3593 3594 ] final -105.33 input   87.50 | X-H torsion
[ 9003 8997 8998 8999 ] final  104.38 input   29.71 | X-H torsion
[ 9159 9155 9156 9157 ] final  173.85 input  127.29 | X-H torsion
[ 11075 11068 11069 11070 ] final -164.76 input   56.03 | X-H torsion
[ 4893 4888 4887 4884 ] final   50.59 input   60.01 | X-H torsion
[ 9007 9002 9001 8998 ] final -178.17 input   59.98 | X-H torsion
[ 8973 8962 8963 8964 ] final  -76.14 input   50.05 | X-H torsion
[ 8507 8501 8502 8503 ] final  145.10 input   53.62 | X-H torsion
[ 4912 4907 4908 4909 ] final -175.55 input   25.27 | X-H torsion
[ 8353 8344 8343 8341 ] final  -45.28 input   59.99 | X-H torsion
[ 5556 5551 5550 5547 ] final  -30.82 input   59.99 | X-H torsion
[ 5580 5571 5572 5573 ] final -110.38 input   51.16 | X-H torsion
[ 9375 9363 9364 9365 ] final -171.43 input  121.73 | X-H torsion
[ 9247 9231 9232 9233 ] final  107.38 input   97.49 | X-H torsion
[ 5552 5546 5547 5548 ] final   77.79 input   98.49 | X-H torsion
[ 5612 5604 5605 5606 ] final    5.63 input  122.00 | X-H torsion
[ 8533 8525 8526 8527 ] final  154.48 input   68.51 | X-H torsion
[ 8511 8506 8505 8502 ] final  -63.74 input   59.98 | X-H torsion
[ 9185 9178 9176 9173 ] final -119.52 input   60.02 | X-H torsion
[ 9272 9265 9266 9267 ] final  -78.58 input  106.17 | X-H torsion
[ 9298 9282 9283 9284 ] final   98.85 input   76.97 | X-H torsion
[ 9342 9318 9319 9320 ] final  108.92 input  100.94 | X-H torsion
[ 9412 9391 9392 9393 ] final  -96.16 input   95.23 | X-H torsion
[ 12897 12888 12887 12885 ] final -128.07 input   60.01 | X-H torsion
[ 13469 13450 13449 13445 ] final   43.89 input   59.98 | X-H torsion
[ 3570 3563 3564 3565 ] final -105.25 input   99.66 | X-H torsion
[ 13485 8425 8424 8423 ] final  143.98 input    0.00 | X-H torsion
[ 13489 8965 8964 8963 ] final   28.85 input    0.00 | X-H torsion
[ 13492 9020 9019 9018 ] final   54.82 input   -0.00 | X-H torsion
[ 13495 9044 9043 9042 ] final  137.60 input    0.00 | X-H torsion
[ 13498 9090 9089 9088 ] final  -72.09 input    0.00 | X-H torsion
[ 13503 9128 9127 9126 ] final  -55.36 input    0.00 | X-H torsion
[ 13516 9000 8999 8998 ] final  102.19 input    0.00 | X-H torsion
[ 13518 8370 8369 8368 ] final  139.79 input    0.00 | X-H torsion
[ 13522 11071 11070 11069 ] final    8.92 input   -0.00 | X-H torsion
[ 13526 8388 8387 8386 ] final  -75.25 input    0.00 | X-H torsion
[ 13530 8451 8450 8449 ] final  -26.86 input    0.00 | X-H torsion
[ 13532 8473 8472 8471 ] final  -70.87 input    0.00 | X-H torsion
[ 13539 4910 4909 4908 ] final  160.61 input   -0.00 | X-H torsion
[ 13543 5549 5548 5547 ] final  -91.46 input    0.00 | X-H torsion
[ 13547 9205 9204 9203 ] final   -0.95 input   -0.00 | X-H torsion
[ 13556 5645 5644 5643 ] final  137.38 input   -0.00 | X-H torsion
[ 13562 9321 9320 9319 ] final  176.34 input    0.00 | X-H torsion
[ 13567 5574 5573 5572 ] final -146.63 input    0.00 | X-H torsion
[ 13571 5523 5522 5521 ] final -121.48 input    0.00 | X-H torsion
[ 13573 6144 6143 6142 ] final -142.84 input    0.00 | X-H torsion
[ 13577 9175 9174 9173 ] final  -52.84 input    0.00 | X-H torsion
[ 13581 9234 9233 9232 ] final   89.88 input    0.00 | X-H torsion
[ 13585 9285 9284 9283 ] final  -19.80 input    0.00 | X-H torsion
[ 13592 9366 9365 9364 ] final  -17.10 input   -0.00 | X-H torsion

> <Gold.Protein.ActiveResidues>
 TRP311  MET341  HIS342  TRP414  ARG419  CYS420  VAL421  GLY422  LEU429  LEU460 
 SER462  ALA463  ILE464  ASN481  SER482  GLN483  LEU484  ILE485  ARG486  ASP500 
 ALA502  ASN503  TRP566  TYR567  GLY568  LEU569  PRO570  ALA571  VAL572  SER573 
 ASN574  MET575  PRO588  PHE589  SER590  GLY591  TRP592  TYR593  MET594  GLY595 
 THR596  GLU597  ILE598  GLY599  VAL600  ARG601  ASP602  TYR603  ASP605  ARG608 
 ILE653  VAL654  TRP683  PRO687  SER691  PHE696  HIS697  TYR711  HEM750  H4B760 

> <Gold.Protein.RotatedAtoms>
  122.2074  250.4948  329.7218 H   0  0  0  0  0  0  0  0  0  0  0  0  # atno 3570 bound_to 3563
  124.5776  248.5850  328.8435 H   0  0  0  0  0  0  0  0  0  0  0  0  # atno 3596 bound_to 3592
  125.8981  246.5132  318.2649 H   0  0  0  0  0  0  0  0  0  0  0  0  # atno 4893 bound_to 4888
  123.6279  247.6655  314.8475 H   0  0  0  0  0  0  0  0  0  0  0  0  # atno 4912 bound_to 4907
  106.2286  244.6103  318.6608 H   0  0  0  0  0  0  0  0  0  0  0  0  # atno 5552 bound_to 5546
  106.8239  243.9450  320.3752 H   0  0  0  0  0  0  0  0  0  0  0  0  # atno 5556 bound_to 5551
  108.7957  245.6850  319.0740 H   0  0  0  0  0  0  0  0  0  0  0  0  # atno 5580 bound_to 5571
  111.1268  243.1896  317.0997 H   0  0  0  0  0  0  0  0  0  0  0  0  # atno 5612 bound_to 5604
  110.7163  238.7130  321.4130 H   0  0  0  0  0  0  0  0  0  0  0  0  # atno 8353 bound_to 8344
  114.8399  243.2109  319.3969 H   0  0  0  0  0  0  0  0  0  0  0  0  # atno 8453 bound_to 8448
  114.3002  245.7206  318.9495 H   0  0  0  0  0  0  0  0  0  0  0  0  # atno 8477 bound_to 8470
  111.8557  247.3656  318.1723 H   0  0  0  0  0  0  0  0  0  0  0  0  # atno 8507 bound_to 8501
  110.1997  246.3905  317.2132 H   0  0  0  0  0  0  0  0  0  0  0  0  # atno 8511 bound_to 8506
  109.3255  249.1087  318.5836 H   0  0  0  0  0  0  0  0  0  0  0  0  # atno 8533 bound_to 8525
  115.5224  249.1664  315.3952 H   0  0  0  0  0  0  0  0  0  0  0  0  # atno 8973 bound_to 8962
  118.7206  247.8710  316.0513 H   0  0  0  0  0  0  0  0  0  0  0  0  # atno 9003 bound_to 8997
  119.3751  244.6903  314.7097 H   0  0  0  0  0  0  0  0  0  0  0  0  # atno 9007 bound_to 9002
  120.6459  246.0615  318.2096 H   0  0  0  0  0  0  0  0  0  0  0  0  # atno 9021 bound_to 9017
  122.6610  243.4234  319.7229 H   0  0  0  0  0  0  0  0  0  0  0  0  # atno 9055 bound_to 9041
  121.3975  240.2519  322.0720 H   0  0  0  0  0  0  0  0  0  0  0  0  # atno 9099 bound_to 9087
  114.4802  239.5893  323.8139 H   0  0  0  0  0  0  0  0  0  0  0  0  # atno 9107 bound_to 9098
  121.8506  240.0767  325.7426 H   0  0  0  0  0  0  0  0  0  0  0  0  # atno 9133 bound_to 9125
  123.0121  238.0505  328.2746 H   0  0  0  0  0  0  0  0  0  0  0  0  # atno 9159 bound_to 9155
  120.9677  240.1214  332.8401 H   0  0  0  0  0  0  0  0  0  0  0  0  # atno 9185 bound_to 9178
  118.9268  239.1730  329.6495 H   0  0  0  0  0  0  0  0  0  0  0  0  # atno 9211 bound_to 9202
  117.5246  237.5663  328.2360 H   0  0  0  0  0  0  0  0  0  0  0  0  # atno 9247 bound_to 9231
  115.8232  235.1808  329.4422 H   0  0  0  0  0  0  0  0  0  0  0  0  # atno 9272 bound_to 9265
  116.5823  236.3115  332.2303 H   0  0  0  0  0  0  0  0  0  0  0  0  # atno 9298 bound_to 9282
  114.6033  238.1446  332.2284 H   0  0  0  0  0  0  0  0  0  0  0  0  # atno 9342 bound_to 9318
  112.3487  238.4413  329.9684 H   0  0  0  0  0  0  0  0  0  0  0  0  # atno 9375 bound_to 9363
  111.0414  235.1229  329.5515 H   0  0  0  0  0  0  0  0  0  0  0  0  # atno 9412 bound_to 9391
  126.3724  238.4842  325.0419 H   0  0  0  0  0  0  0  0  0  0  0  0  # atno 11075 bound_to 11068
  110.9526  252.6782  329.9784 H   0  0  0  0  0  0  0  0  0  0  0  0  # atno 12897 bound_to 12888
  110.3726  246.6383  337.5874 H   0  0  0  0  0  0  0  0  0  0  0  0  # atno 13469 bound_to 13450
  117.9413  244.5918  318.4504 LP  0  0  0  0  0  0  0  0  0  0  0  0  # atno 13485 bound_to 8425
  118.5057  244.1063  320.0143 LP  0  0  0  0  0  0  0  0  0  0  0  0  # atno 13486 bound_to 8425
  116.5579  243.2382  319.0836 LP  0  0  0  0  0  0  0  0  0  0  0  0  # atno 13487 bound_to 8448
  115.3629  247.1096  318.9631 LP  0  0  0  0  0  0  0  0  0  0  0  0  # atno 13488 bound_to 8470
  115.7431  247.7211  317.4962 LP  0  0  0  0  0  0  0  0  0  0  0  0  # atno 13489 bound_to 8965
  116.9199  247.0206  318.5566 LP  0  0  0  0  0  0  0  0  0  0  0  0  # atno 13490 bound_to 8965
  120.0364  244.8083  319.2669 LP  0  0  0  0  0  0  0  0  0  0  0  0  # atno 13491 bound_to 9017
  122.6799  242.9854  317.6773 LP  0  0  0  0  0  0  0  0  0  0  0  0  # atno 13492 bound_to 9020
  121.5714  242.0484  318.6225 LP  0  0  0  0  0  0  0  0  0  0  0  0  # atno 13493 bound_to 9020
  122.8047  243.8763  321.4079 LP  0  0  0  0  0  0  0  0  0  0  0  0  # atno 13494 bound_to 9041
  121.5347  242.8161  323.8556 LP  0  0  0  0  0  0  0  0  0  0  0  0  # atno 13495 bound_to 9044
  123.0800  243.2955  323.2375 LP  0  0  0  0  0  0  0  0  0  0  0  0  # atno 13496 bound_to 9044
  122.8551  240.7974  322.8689 LP  0  0  0  0  0  0  0  0  0  0  0  0  # atno 13497 bound_to 9087
  123.4326  238.7218  325.1394 LP  0  0  0  0  0  0  0  0  0  0  0  0  # atno 13498 bound_to 9090
  124.1472  240.2958  325.2486 LP  0  0  0  0  0  0  0  0  0  0  0  0  # atno 13499 bound_to 9090
  114.6785  238.5959  322.5406 LP  0  0  0  0  0  0  0  0  0  0  0  0  # atno 13500 bound_to 9098
  114.8542  240.2089  322.3566 LP  0  0  0  0  0  0  0  0  0  0  0  0  # atno 13501 bound_to 9098
  121.2836  241.5716  326.4509 LP  0  0  0  0  0  0  0  0  0  0  0  0  # atno 13502 bound_to 9125
  119.7420  239.9181  328.6091 LP  0  0  0  0  0  0  0  0  0  0  0  0  # atno 13503 bound_to 9128
  119.7577  238.4431  327.7012 LP  0  0  0  0  0  0  0  0  0  0  0  0  # atno 13504 bound_to 9128
  117.9230  238.6824  330.9898 LP  0  0  0  0  0  0  0  0  0  0  0  0  # atno 13505 bound_to 9202
  123.4578  249.2223  327.6655 LP  0  0  0  0  0  0  0  0  0  0  0  0  # atno 13514 bound_to 3592
  118.7186  248.4701  317.6873 LP  0  0  0  0  0  0  0  0  0  0  0  0  # atno 13515 bound_to 8997
  121.7369  247.7822  318.0127 LP  0  0  0  0  0  0  0  0  0  0  0  0  # atno 13516 bound_to 9000
  121.7533  246.8150  316.5759 LP  0  0  0  0  0  0  0  0  0  0  0  0  # atno 13517 bound_to 9000
  120.5349  238.8184  318.8407 LP  0  0  0  0  0  0  0  0  0  0  0  0  # atno 13518 bound_to 8370
  120.3219  237.6785  320.1272 LP  0  0  0  0  0  0  0  0  0  0  0  0  # atno 13519 bound_to 8370
  121.7187  238.9140  329.0767 LP  0  0  0  0  0  0  0  0  0  0  0  0  # atno 13520 bound_to 9155
  125.0459  238.3260  326.1622 LP  0  0  0  0  0  0  0  0  0  0  0  0  # atno 13521 bound_to 11068
  124.3970  239.0141  327.7760 LP  0  0  0  0  0  0  0  0  0  0  0  0  # atno 13522 bound_to 11071
  124.5583  238.6916  329.4701 LP  0  0  0  0  0  0  0  0  0  0  0  0  # atno 13523 bound_to 11071
  124.4581  246.8748  318.9321 LP  0  0  0  0  0  0  0  0  0  0  0  0  # atno 13524 bound_to 4888
  125.7368  247.8653  319.1567 LP  0  0  0  0  0  0  0  0  0  0  0  0  # atno 13525 bound_to 4888
  115.8496  240.7458  317.2608 LP  0  0  0  0  0  0  0  0  0  0  0  0  # atno 13526 bound_to 8388
  115.5309  239.7389  318.6336 LP  0  0  0  0  0  0  0  0  0  0  0  0  # atno 13527 bound_to 8388
  120.5699  245.1500  315.7140 LP  0  0  0  0  0  0  0  0  0  0  0  0  # atno 13528 bound_to 9002
  119.6397  246.2730  314.9789 LP  0  0  0  0  0  0  0  0  0  0  0  0  # atno 13529 bound_to 9002
  113.0463  244.7287  317.1795 LP  0  0  0  0  0  0  0  0  0  0  0  0  # atno 13530 bound_to 8451
  112.3188  245.5168  318.5395 LP  0  0  0  0  0  0  0  0  0  0  0  0  # atno 13531 bound_to 8451
  113.9277  249.9800  318.2872 LP  0  0  0  0  0  0  0  0  0  0  0  0  # atno 13532 bound_to 8473
  113.7823  248.9593  316.8954 LP  0  0  0  0  0  0  0  0  0  0  0  0  # atno 13533 bound_to 8473
  115.3235  250.2734  316.7334 LP  0  0  0  0  0  0  0  0  0  0  0  0  # atno 13534 bound_to 8962
  111.5362  248.7936  319.1215 LP  0  0  0  0  0  0  0  0  0  0  0  0  # atno 13535 bound_to 8501
  122.1918  248.1035  315.7385 LP  0  0  0  0  0  0  0  0  0  0  0  0  # atno 13538 bound_to 4907
  119.5579  249.8333  315.3991 LP  0  0  0  0  0  0  0  0  0  0  0  0  # atno 13539 bound_to 4910
  120.3239  248.2814  315.3302 LP  0  0  0  0  0  0  0  0  0  0  0  0  # atno 13540 bound_to 4910
  109.9124  247.3490  319.0989 LP  0  0  0  0  0  0  0  0  0  0  0  0  # atno 13543 bound_to 5549
  109.9377  246.7257  320.7148 LP  0  0  0  0  0  0  0  0  0  0  0  0  # atno 13544 bound_to 5549
  111.9944  239.6955  321.6363 LP  0  0  0  0  0  0  0  0  0  0  0  0  # atno 13545 bound_to 8344
  111.7792  238.3983  322.6046 LP  0  0  0  0  0  0  0  0  0  0  0  0  # atno 13546 bound_to 8344
  114.3172  239.3959  329.6263 LP  0  0  0  0  0  0  0  0  0  0  0  0  # atno 13547 bound_to 9205
  114.1324  237.8293  328.9109 LP  0  0  0  0  0  0  0  0  0  0  0  0  # atno 13548 bound_to 9205
  106.1866  244.0662  321.8677 LP  0  0  0  0  0  0  0  0  0  0  0  0  # atno 13553 bound_to 5551
  107.7945  244.2458  321.6463 LP  0  0  0  0  0  0  0  0  0  0  0  0  # atno 13554 bound_to 5551
  108.2138  244.0312  319.1286 LP  0  0  0  0  0  0  0  0  0  0  0  0  # atno 13555 bound_to 5571
  110.8468  240.2333  319.0948 LP  0  0  0  0  0  0  0  0  0  0  0  0  # atno 13556 bound_to 5645
  112.3619  239.7082  318.4400 LP  0  0  0  0  0  0  0  0  0  0  0  0  # atno 13557 bound_to 5645
  112.3310  237.0093  330.9734 LP  0  0  0  0  0  0  0  0  0  0  0  0  # atno 13560 bound_to 9363
  116.0870  238.1855  329.0199 LP  0  0  0  0  0  0  0  0  0  0  0  0  # atno 13561 bound_to 9231
  109.7931  237.0266  330.9883 LP  0  0  0  0  0  0  0  0  0  0  0  0  # atno 13562 bound_to 9321
  110.0760  237.6631  332.5742 LP  0  0  0  0  0  0  0  0  0  0  0  0  # atno 13563 bound_to 9321
  106.1173  246.1453  317.8359 LP  0  0  0  0  0  0  0  0  0  0  0  0  # atno 13566 bound_to 5546
  109.1239  242.4272  316.0967 LP  0  0  0  0  0  0  0  0  0  0  0  0  # atno 13567 bound_to 5574
  108.2279  243.4929  317.1269 LP  0  0  0  0  0  0  0  0  0  0  0  0  # atno 13568 bound_to 5574
  111.2971  244.8119  316.4708 LP  0  0  0  0  0  0  0  0  0  0  0  0  # atno 13569 bound_to 5604
  110.3292  250.5315  318.4945 LP  0  0  0  0  0  0  0  0  0  0  0  0  # atno 13570 bound_to 8525
  107.9017  247.3273  317.2607 LP  0  0  0  0  0  0  0  0  0  0  0  0  # atno 13571 bound_to 5523
  106.3736  248.0149  316.8226 LP  0  0  0  0  0  0  0  0  0  0  0  0  # atno 13572 bound_to 5523
  101.5574  242.0728  324.3053 LP  0  0  0  0  0  0  0  0  0  0  0  0  # atno 13573 bound_to 6144
  102.9384  242.4645  325.2745 LP  0  0  0  0  0  0  0  0  0  0  0  0  # atno 13574 bound_to 6144
  109.4447  246.2860  315.7749 LP  0  0  0  0  0  0  0  0  0  0  0  0  # atno 13575 bound_to 8506
  108.8895  247.3105  316.9189 LP  0  0  0  0  0  0  0  0  0  0  0  0  # atno 13576 bound_to 8506
  116.4934  237.2718  331.9814 LP  0  0  0  0  0  0  0  0  0  0  0  0  # atno 13577 bound_to 9175
  116.1699  238.9733  331.9685 LP  0  0  0  0  0  0  0  0  0  0  0  0  # atno 13578 bound_to 9175
  119.4638  240.7415  332.8908 LP  0  0  0  0  0  0  0  0  0  0  0  0  # atno 13579 bound_to 9178
  119.9995  240.0011  331.5375 LP  0  0  0  0  0  0  0  0  0  0  0  0  # atno 13580 bound_to 9178
  114.0963  234.1188  329.1473 LP  0  0  0  0  0  0  0  0  0  0  0  0  # atno 13581 bound_to 9234
  113.8587  235.5049  330.1583 LP  0  0  0  0  0  0  0  0  0  0  0  0  # atno 13582 bound_to 9234
  117.4910  235.5439  329.8284 LP  0  0  0  0  0  0  0  0  0  0  0  0  # atno 13583 bound_to 9265
  115.6577  234.8309  332.2414 LP  0  0  0  0  0  0  0  0  0  0  0  0  # atno 13584 bound_to 9282
  112.7186  235.4344  334.3978 LP  0  0  0  0  0  0  0  0  0  0  0  0  # atno 13585 bound_to 9285
  111.8856  236.9009  334.0038 LP  0  0  0  0  0  0  0  0  0  0  0  0  # atno 13586 bound_to 9285
  113.7032  236.9708  333.1590 LP  0  0  0  0  0  0  0  0  0  0  0  0  # atno 13587 bound_to 9318
  112.5125  235.0308  330.4916 LP  0  0  0  0  0  0  0  0  0  0  0  0  # atno 13588 bound_to 9391
  108.9419  235.7448  329.0744 LP  0  0  0  0  0  0  0  0  0  0  0  0  # atno 13592 bound_to 9366
  109.3693  234.0948  329.3827 LP  0  0  0  0  0  0  0  0  0  0  0  0  # atno 13593 bound_to 9366
  112.2081  253.2690  329.1283 LP  0  0  0  0  0  0  0  0  0  0  0  0  # atno 13594 bound_to 12888
  111.4775  251.8867  328.6571 LP  0  0  0  0  0  0  0  0  0  0  0  0  # atno 13595 bound_to 12888
  109.3095  246.4001  336.3780 LP  0  0  0  0  0  0  0  0  0  0  0  0  # atno 13596 bound_to 13450
  108.7987  246.9861  337.8141 LP  0  0  0  0  0  0  0  0  0  0  0  0  # atno 13597 bound_to 13450

> <Gold.Score>
     Fitness  S(hb_ext) S(vdw_ext)  S(hb_int)    S(int)      intcor
     41.47       5.24      26.60       0.00      -0.35      -0.76

> <Gold.Goldscore.Fitness>
41.4661

> <Gold.Goldscore.Internal.Vdw>
-0.5219

> <Gold.Goldscore.Internal.Torsion>
-0.5868

> <Gold.Goldscore.External.Vdw>
26.5984

> <Gold.Goldscore.Internal.HBond>
0.0000

> <Gold.Goldscore.External.HBond>
5.2435

> <Gold.Goldscore.Internal.Correction>
-0.7585

> <Gold.Goldscore.Hbonds>
donor molecule, donor type, donor heavy atom, donor atom, acceptor molecule, acceptor atom, score
      P1  H  5690  5702       L1    17  0.66
      P1  H  5693  5706       L1    17  0.03
      L1  H     8    22       P1  9370  0.18

> <Gold.Goldscore.Internal.Vdw.Weighted>
-0.5219

> <Gold.Goldscore.Internal.Torsion.Weighted>
-0.5868

> <Gold.Goldscore.External.Vdw.Weighted>
36.5728

> <Gold.Goldscore.Internal.HBond.Weighted>
0.0000

> <Gold.Goldscore.External.HBond.Weighted>
5.2435

> <Gold.Goldscore.Internal.Correction.Weighted>
-0.7585

> <Gold.Rescore>
     Score     S(PLP)   S(hbond)     S(cho)   S(metal)  DE(clash)   DE(tors)     intcor
     18.90     -17.42       1.38       0.00       0.00       2.01       0.33       ----

> <Gold.PLP.Fitness>
18.9008

> <Gold.PLP.PLP>
-17.4236

> <Gold.PLP.part.hbond>
-4.4725

> <Gold.PLP.part.metal>
0.0000

> <Gold.PLP.part.buried>
1.3261

> <Gold.PLP.part.nonpolar>
-19.5420

> <Gold.PLP.part.repulsive>
7.4449

> <Gold.PLP.ligand.clash>
2.0088

> <Gold.PLP.ligand.torsion>
0.3335

> <Gold.PLP.Chemscore.Hbond>
1.3843

> <Gold.PLP.Chemscore.CHOScore>
0.0000

> <Gold.PLP.Chemscore.Metal>
0.0000

> <Gold.Chemscore.Hbonds>
donor molecule, donor type, donor heavy atom, donor atom, acceptor molecule, acceptor atom, score
      L1  H     8    22       P1  9369  0.01
      P1  H  5690  5702       L1    17  0.15

> <Gold.PLP.Chemscore.Internal.Correction>
   9.000000E+99

#       Name:                CT1002167954
#       Creating user name   hitesit
#       Creation time:       Sun Apr 16 22:52:03 2023


#       File generated by GOLD software.
#

@<TRIPOS>MOLECULE
CT1002167954|ligand_prepared|mol2|1|dock1
    29    30     1
SMALL
NO_CHARGES


@<TRIPOS>ATOM
      1 C1         112.9785 242.5227 326.3825 C.3            1 RES1               0.0000
      2 C2         112.4566 242.6000 327.8318 C.ar           1 RES1               0.0000
      3 C3         113.4548 241.0881 326.1747 C.2            1 RES1               0.0000
      4 C4         111.8127 242.9271 325.4871 C.2            1 RES1               0.0000
      5 C5         114.1585 243.4790 326.0915 C.3            1 RES1               0.0000
      6 C6         111.1502 242.2286 328.1352 C.ar           1 RES1               0.0000
      7 C7         113.2690 243.0374 328.8745 C.ar           1 RES1               0.0000
      8 N8         112.6804 240.2704 325.4055 N.am           1 RES1               0.0000
      9 O9         114.4738 240.6692 326.7099 O.2            1 RES1               0.0000
     10 N10        111.2881 241.9787 324.6485 N.am           1 RES1               0.0000
     11 O11        111.3327 244.0537 325.5121 O.2            1 RES1               0.0000
     12 C12        114.5102 243.5876 324.6162 C.3            1 RES1               0.0000
     13 C13        110.6740 242.2894 329.4344 C.ar           1 RES1               0.0000
     14 C14        112.7907 243.0976 330.1730 C.ar           1 RES1               0.0000
     15 C15        111.6491 240.6602 324.5893 C.2            1 RES1               0.0000
     16 C16        111.4939 242.7235 330.4541 C.ar           1 RES1               0.0000
     17 O17        111.0932 239.8553 323.8475 O.2            1 RES1               0.0000
     18 H18        113.9050 244.4775 326.4685 H              1 RES1               0.0000
     19 H19        115.0412 243.1277 326.6400 H              1 RES1               0.0000
     20 H20        110.4895 241.8868 327.3454 H              1 RES1               0.0000
     21 H21        114.2923 243.3378 328.6766 H              1 RES1               0.0000
     22 H22        112.8872 239.2773 325.4404 H              1 RES1               0.0000
     23 H23        110.5612 242.2839 324.0091 H              1 RES1               0.0000
     24 H24        115.3440 244.2706 324.4677 H              1 RES1               0.0000
     25 H25        114.7919 242.6166 324.2143 H              1 RES1               0.0000
     26 H26        113.6624 243.9583 324.0438 H              1 RES1               0.0000
     27 H27        109.6522 241.9951 329.6502 H              1 RES1               0.0000
     28 H28        113.4394 243.4405 330.9724 H              1 RES1               0.0000
     29 H29        111.1208 242.7706 331.4719 H              1 RES1               0.0000
@<TRIPOS>BOND
    1    1    2 1     
    2    1    3 1     
    3    1    4 1     
    4    1    5 1     
    5    2    6 ar    
    6    2    7 ar    
    7    3    8 1     
    8    3    9 2     
    9    4   10 1     
   10    4   11 2     
   11    5   12 1     
   12    5   18 1     
   13    5   19 1     
   14    6   13 ar    
   15    6   20 1     
   16    7   14 ar    
   17    7   21 1     
   18    8   15 1     
   19    8   22 1     
   20   10   15 1     
   21   10   23 1     
   22   12   24 1     
   23   12   25 1     
   24   12   26 1     
   25   13   16 ar    
   26   13   27 1     
   27   14   16 ar    
   28   14   28 1     
   29   15   17 2     
   30   16   29 1     
@<TRIPOS>SUBSTRUCTURE
      1 RES1           1
@<TRIPOS>SET
DONOR_HYDROGENS      STATIC     ATOMS    <user>   **** ""
2 22 23
ATOM$RED        STATIC     ATOMS    COLORGROUP SYSTEM
2 22 23
@<TRIPOS>COMMENT
> <Gold.Version>
2022.3.0

> <Gold.Id.Protein>
unknown|4uh6_clean|pdb

> <Gold.Protein.RotatedTorsions>
[ 8453 8448 8449 8450 ] final -151.10 input   43.75 | X-H torsion
[ 8477 8470 8471 8472 ] final   33.12 input  101.27 | X-H torsion
[ 9021 9017 9018 9019 ] final   37.99 input   41.82 | X-H torsion
[ 9055 9041 9042 9043 ] final -133.21 input   38.00 | X-H torsion
[ 9099 9087 9088 9089 ] final  109.85 input   99.63 | X-H torsion
[ 9107 9098 9097 9095 ] final   63.17 input   60.00 | X-H torsion
[ 9133 9125 9126 9127 ] final  145.33 input   87.39 | X-H torsion
[ 9211 9202 9203 9204 ] final  -21.28 input  119.00 | X-H torsion
[ 3596 3592 3593 3594 ] final  -54.33 input   87.50 | X-H torsion
[ 9003 8997 8998 8999 ] final   28.53 input   29.71 | X-H torsion
[ 9159 9155 9156 9157 ] final  168.32 input  127.29 | X-H torsion
[ 11075 11068 11069 11070 ] final   51.64 input   56.03 | X-H torsion
[ 4893 4888 4887 4884 ] final    1.22 input   60.01 | X-H torsion
[ 9007 9002 9001 8998 ] final -170.38 input   59.98 | X-H torsion
[ 8973 8962 8963 8964 ] final  -55.89 input   50.05 | X-H torsion
[ 8507 8501 8502 8503 ] final   62.11 input   53.62 | X-H torsion
[ 4912 4907 4908 4909 ] final   78.75 input   25.27 | X-H torsion
[ 8353 8344 8343 8341 ] final -150.16 input   59.99 | X-H torsion
[ 5556 5551 5550 5547 ] final  -42.59 input   59.99 | X-H torsion
[ 5580 5571 5572 5573 ] final  -65.29 input   51.16 | X-H torsion
[ 9375 9363 9364 9365 ] final -176.88 input  121.73 | X-H torsion
[ 9247 9231 9232 9233 ] final    9.12 input   97.49 | X-H torsion
[ 5552 5546 5547 5548 ] final  140.75 input   98.49 | X-H torsion
[ 5612 5604 5605 5606 ] final   30.67 input  122.00 | X-H torsion
[ 8533 8525 8526 8527 ] final  -74.78 input   68.51 | X-H torsion
[ 8511 8506 8505 8502 ] final   36.18 input   59.98 | X-H torsion
[ 9185 9178 9176 9173 ] final   12.28 input   60.02 | X-H torsion
[ 9272 9265 9266 9267 ] final  -49.86 input  106.17 | X-H torsion
[ 9298 9282 9283 9284 ] final  122.01 input   76.97 | X-H torsion
[ 9342 9318 9319 9320 ] final   36.27 input  100.94 | X-H torsion
[ 9412 9391 9392 9393 ] final  -81.97 input   95.23 | X-H torsion
[ 12897 12888 12887 12885 ] final  156.92 input   60.01 | X-H torsion
[ 13469 13450 13449 13445 ] final  111.98 input   59.98 | X-H torsion
[ 3570 3563 3564 3565 ] final  -22.80 input   99.66 | X-H torsion
[ 13485 8425 8424 8423 ] final -161.86 input    0.00 | X-H torsion
[ 13489 8965 8964 8963 ] final  103.89 input    0.00 | X-H torsion
[ 13492 9020 9019 9018 ] final -118.34 input   -0.00 | X-H torsion
[ 13495 9044 9043 9042 ] final  -91.63 input    0.00 | X-H torsion
[ 13498 9090 9089 9088 ] final   54.54 input    0.00 | X-H torsion
[ 13503 9128 9127 9126 ] final    3.14 input    0.00 | X-H torsion
[ 13516 9000 8999 8998 ] final -166.30 input    0.00 | X-H torsion
[ 13518 8370 8369 8368 ] final  -10.22 input    0.00 | X-H torsion
[ 13522 11071 11070 11069 ] final  166.90 input   -0.00 | X-H torsion
[ 13526 8388 8387 8386 ] final  -98.87 input    0.00 | X-H torsion
[ 13530 8451 8450 8449 ] final  159.83 input    0.00 | X-H torsion
[ 13532 8473 8472 8471 ] final  165.09 input    0.00 | X-H torsion
[ 13539 4910 4909 4908 ] final -151.17 input   -0.00 | X-H torsion
[ 13543 5549 5548 5547 ] final   65.44 input    0.00 | X-H torsion
[ 13547 9205 9204 9203 ] final -169.36 input   -0.00 | X-H torsion
[ 13556 5645 5644 5643 ] final -103.40 input   -0.00 | X-H torsion
[ 13562 9321 9320 9319 ] final -130.13 input    0.00 | X-H torsion
[ 13567 5574 5573 5572 ] final   44.13 input    0.00 | X-H torsion
[ 13571 5523 5522 5521 ] final  -65.55 input    0.00 | X-H torsion
[ 13573 6144 6143 6142 ] final  163.59 input    0.00 | X-H torsion
[ 13577 9175 9174 9173 ] final  -86.65 input    0.00 | X-H torsion
[ 13581 9234 9233 9232 ] final   46.91 input    0.00 | X-H torsion
[ 13585 9285 9284 9283 ] final -165.34 input    0.00 | X-H torsion
[ 13592 9366 9365 9364 ] final -158.33 input   -0.00 | X-H torsion

> <Gold.Protein.ActiveResidues>
 TRP311  MET341  HIS342  TRP414  ARG419  CYS420  VAL421  GLY422  LEU429  LEU460 
 SER462  ALA463  ILE464  ASN481  SER482  GLN483  LEU484  ILE485  ARG486  ASP500 
 ALA502  ASN503  TRP566  TYR567  GLY568  LEU569  PRO570  ALA571  VAL572  SER573 
 ASN574  MET575  PRO588  PHE589  SER590  GLY591  TRP592  TYR593  MET594  GLY595 
 THR596  GLU597  ILE598  GLY599  VAL600  ARG601  ASP602  TYR603  ASP605  ARG608 
 ILE653  VAL654  TRP683  PRO687  SER691  PHE696  HIS697  TYR711  HEM750  H4B760 

> <Gold.Protein.RotatedAtoms>
  122.4643  249.9400  328.7247 H   0  0  0  0  0  0  0  0  0  0  0  0  # atno 3570 bound_to 3563
  124.6771  249.3134  328.6595 H   0  0  0  0  0  0  0  0  0  0  0  0  # atno 3596 bound_to 3592
  125.1555  246.2812  318.3475 H   0  0  0  0  0  0  0  0  0  0  0  0  # atno 4893 bound_to 4888
  122.3179  247.2499  315.1325 H   0  0  0  0  0  0  0  0  0  0  0  0  # atno 4912 bound_to 4907
  105.5350  245.1930  318.8217 H   0  0  0  0  0  0  0  0  0  0  0  0  # atno 5552 bound_to 5546
  106.6380  243.9270  320.4204 H   0  0  0  0  0  0  0  0  0  0  0  0  # atno 5556 bound_to 5551
  108.5375  245.4765  318.4719 H   0  0  0  0  0  0  0  0  0  0  0  0  # atno 5580 bound_to 5571
  111.5078  243.2318  317.0806 H   0  0  0  0  0  0  0  0  0  0  0  0  # atno 5612 bound_to 5604
  111.8149  239.7101  321.4665 H   0  0  0  0  0  0  0  0  0  0  0  0  # atno 8353 bound_to 8344
  116.5791  243.2599  319.1076 H   0  0  0  0  0  0  0  0  0  0  0  0  # atno 8453 bound_to 8448
  115.0760  247.0697  318.3967 H   0  0  0  0  0  0  0  0  0  0  0  0  # atno 8477 bound_to 8470
  110.9311  247.6804  318.8032 H   0  0  0  0  0  0  0  0  0  0  0  0  # atno 8507 bound_to 8501
  109.0818  247.2888  317.1834 H   0  0  0  0  0  0  0  0  0  0  0  0  # atno 8511 bound_to 8506
  110.0308  250.3389  317.8604 H   0  0  0  0  0  0  0  0  0  0  0  0  # atno 8533 bound_to 8525
  115.4543  248.9653  315.6230 H   0  0  0  0  0  0  0  0  0  0  0  0  # atno 8973 bound_to 8962
  119.5515  248.2520  316.6161 H   0  0  0  0  0  0  0  0  0  0  0  0  # atno 9003 bound_to 8997
  119.3073  244.7838  314.6565 H   0  0  0  0  0  0  0  0  0  0  0  0  # atno 9007 bound_to 9002
  120.0464  244.7596  319.2552 H   0  0  0  0  0  0  0  0  0  0  0  0  # atno 9021 bound_to 9017
  122.3282  243.4352  319.8182 H   0  0  0  0  0  0  0  0  0  0  0  0  # atno 9055 bound_to 9041
  121.9124  239.7006  322.2530 H   0  0  0  0  0  0  0  0  0  0  0  0  # atno 9099 bound_to 9087
  114.7728  240.3896  322.8016 H   0  0  0  0  0  0  0  0  0  0  0  0  # atno 9107 bound_to 9098
  121.7545  241.6797  326.2865 H   0  0  0  0  0  0  0  0  0  0  0  0  # atno 9133 bound_to 9125
  123.0504  238.0453  328.3510 H   0  0  0  0  0  0  0  0  0  0  0  0  # atno 9159 bound_to 9155
  119.8258  240.0799  331.5685 H   0  0  0  0  0  0  0  0  0  0  0  0  # atno 9185 bound_to 9178
  117.9780  238.1881  330.5016 H   0  0  0  0  0  0  0  0  0  0  0  0  # atno 9211 bound_to 9202
  116.9203  237.5193  329.4380 H   0  0  0  0  0  0  0  0  0  0  0  0  # atno 9247 bound_to 9231
  115.7983  235.5016  329.7440 H   0  0  0  0  0  0  0  0  0  0  0  0  # atno 9272 bound_to 9265
  116.7811  236.1053  332.4370 H   0  0  0  0  0  0  0  0  0  0  0  0  # atno 9298 bound_to 9282
  114.1726  237.2620  331.8639 H   0  0  0  0  0  0  0  0  0  0  0  0  # atno 9342 bound_to 9318
  112.4206  238.4119  329.9348 H   0  0  0  0  0  0  0  0  0  0  0  0  # atno 9375 bound_to 9363
  110.9604  235.2064  329.7367 H   0  0  0  0  0  0  0  0  0  0  0  0  # atno 9412 bound_to 9391
  125.0293  238.8321  325.9614 H   0  0  0  0  0  0  0  0  0  0  0  0  # atno 11075 bound_to 11068
  111.7955  253.3947  329.7035 H   0  0  0  0  0  0  0  0  0  0  0  0  # atno 12897 bound_to 12888
  109.5511  246.9737  338.1465 H   0  0  0  0  0  0  0  0  0  0  0  0  # atno 13469 bound_to 13450
  117.6991  245.0183  319.0678 LP  0  0  0  0  0  0  0  0  0  0  0  0  # atno 13485 bound_to 8425
  118.7479  243.6798  319.3969 LP  0  0  0  0  0  0  0  0  0  0  0  0  # atno 13486 bound_to 8425
  114.8532  243.1902  319.3672 LP  0  0  0  0  0  0  0  0  0  0  0  0  # atno 13487 bound_to 8448
  114.6080  245.7967  319.5010 LP  0  0  0  0  0  0  0  0  0  0  0  0  # atno 13488 bound_to 8470
  116.2630  246.8122  317.3682 LP  0  0  0  0  0  0  0  0  0  0  0  0  # atno 13489 bound_to 8965
  116.4001  247.9295  318.6846 LP  0  0  0  0  0  0  0  0  0  0  0  0  # atno 13490 bound_to 8965
  120.6186  246.0728  318.2513 LP  0  0  0  0  0  0  0  0  0  0  0  0  # atno 13491 bound_to 9017
  121.4975  242.1110  318.5866 LP  0  0  0  0  0  0  0  0  0  0  0  0  # atno 13492 bound_to 9020
  122.7538  242.9228  317.7133 LP  0  0  0  0  0  0  0  0  0  0  0  0  # atno 13493 bound_to 9020
  123.1266  243.8649  321.3158 LP  0  0  0  0  0  0  0  0  0  0  0  0  # atno 13494 bound_to 9041
  123.1080  242.8668  323.8170 LP  0  0  0  0  0  0  0  0  0  0  0  0  # atno 13495 bound_to 9044
  121.5067  243.2448  323.2760 LP  0  0  0  0  0  0  0  0  0  0  0  0  # atno 13496 bound_to 9044
  122.3535  241.3345  322.6925 LP  0  0  0  0  0  0  0  0  0  0  0  0  # atno 13497 bound_to 9087
  123.9500  240.0504  324.5374 LP  0  0  0  0  0  0  0  0  0  0  0  0  # atno 13498 bound_to 9090
  123.6297  238.9673  325.8506 LP  0  0  0  0  0  0  0  0  0  0  0  0  # atno 13499 bound_to 9090
  114.4515  239.1072  323.7502 LP  0  0  0  0  0  0  0  0  0  0  0  0  # atno 13500 bound_to 9098
  114.7866  238.8916  322.1666 LP  0  0  0  0  0  0  0  0  0  0  0  0  # atno 13501 bound_to 9098
  121.3772  240.0116  325.9215 LP  0  0  0  0  0  0  0  0  0  0  0  0  # atno 13502 bound_to 9125
  119.8090  239.9521  327.7661 LP  0  0  0  0  0  0  0  0  0  0  0  0  # atno 13503 bound_to 9128
  119.6907  238.4091  328.5442 LP  0  0  0  0  0  0  0  0  0  0  0  0  # atno 13504 bound_to 9128
  118.8582  239.6532  330.1499 LP  0  0  0  0  0  0  0  0  0  0  0  0  # atno 13505 bound_to 9202
  123.3600  248.5060  327.8464 LP  0  0  0  0  0  0  0  0  0  0  0  0  # atno 13514 bound_to 3592
  117.8933  248.0916  317.1262 LP  0  0  0  0  0  0  0  0  0  0  0  0  # atno 13515 bound_to 8997
  122.3667  246.7891  317.6169 LP  0  0  0  0  0  0  0  0  0  0  0  0  # atno 13516 bound_to 9000
  121.1235  247.8080  316.9717 LP  0  0  0  0  0  0  0  0  0  0  0  0  # atno 13517 bound_to 9000
  120.6520  237.5092  319.8757 LP  0  0  0  0  0  0  0  0  0  0  0  0  # atno 13518 bound_to 8370
  120.2048  238.9877  319.0922 LP  0  0  0  0  0  0  0  0  0  0  0  0  # atno 13519 bound_to 8370
  121.6815  238.9190  329.0026 LP  0  0  0  0  0  0  0  0  0  0  0  0  # atno 13520 bound_to 9155
  126.3756  237.9815  325.2518 LP  0  0  0  0  0  0  0  0  0  0  0  0  # atno 13521 bound_to 11068
  124.5047  238.3870  329.3526 LP  0  0  0  0  0  0  0  0  0  0  0  0  # atno 13522 bound_to 11071
  124.4506  239.3187  327.8935 LP  0  0  0  0  0  0  0  0  0  0  0  0  # atno 13523 bound_to 11071
  124.7022  247.5419  319.2718 LP  0  0  0  0  0  0  0  0  0  0  0  0  # atno 13524 bound_to 4888
  126.2401  247.4317  318.7339 LP  0  0  0  0  0  0  0  0  0  0  0  0  # atno 13525 bound_to 4888
  115.7801  240.9858  317.5123 LP  0  0  0  0  0  0  0  0  0  0  0  0  # atno 13526 bound_to 8388
  115.6003  239.4989  318.3821 LP  0  0  0  0  0  0  0  0  0  0  0  0  # atno 13527 bound_to 8388
  120.5425  245.0278  315.6872 LP  0  0  0  0  0  0  0  0  0  0  0  0  # atno 13528 bound_to 9002
  119.7355  246.3010  315.0593 LP  0  0  0  0  0  0  0  0  0  0  0  0  # atno 13529 bound_to 9002
  112.3144  245.5997  318.4816 LP  0  0  0  0  0  0  0  0  0  0  0  0  # atno 13530 bound_to 8451
  113.0506  244.6458  317.2374 LP  0  0  0  0  0  0  0  0  0  0  0  0  # atno 13531 bound_to 8451
  113.2455  249.5631  316.9832 LP  0  0  0  0  0  0  0  0  0  0  0  0  # atno 13532 bound_to 8473
  114.4645  249.3762  318.1994 LP  0  0  0  0  0  0  0  0  0  0  0  0  # atno 13533 bound_to 8473
  115.3899  250.4694  316.5115 LP  0  0  0  0  0  0  0  0  0  0  0  0  # atno 13534 bound_to 8962
  112.4494  248.4828  318.4984 LP  0  0  0  0  0  0  0  0  0  0  0  0  # atno 13535 bound_to 8501
  123.4795  248.5120  315.4584 LP  0  0  0  0  0  0  0  0  0  0  0  0  # atno 13538 bound_to 4907
  119.2485  249.3778  314.9550 LP  0  0  0  0  0  0  0  0  0  0  0  0  # atno 13539 bound_to 4910
  120.6334  248.7369  315.7743 LP  0  0  0  0  0  0  0  0  0  0  0  0  # atno 13540 bound_to 4910
  109.6975  246.9745  320.7401 LP  0  0  0  0  0  0  0  0  0  0  0  0  # atno 13543 bound_to 5549
  110.1526  247.1001  319.0736 LP  0  0  0  0  0  0  0  0  0  0  0  0  # atno 13544 bound_to 5549
  111.9629  238.5650  322.6135 LP  0  0  0  0  0  0  0  0  0  0  0  0  # atno 13545 bound_to 8344
  110.7046  238.5250  321.5735 LP  0  0  0  0  0  0  0  0  0  0  0  0  # atno 13546 bound_to 8344
  114.1531  237.7716  329.0748 LP  0  0  0  0  0  0  0  0  0  0  0  0  # atno 13547 bound_to 9205
  114.2965  239.4536  329.4623 LP  0  0  0  0  0  0  0  0  0  0  0  0  # atno 13548 bound_to 9205
  106.3168  244.1024  322.0061 LP  0  0  0  0  0  0  0  0  0  0  0  0  # atno 13553 bound_to 5551
  107.8514  244.2277  321.4624 LP  0  0  0  0  0  0  0  0  0  0  0  0  # atno 13554 bound_to 5551
  108.4605  244.2305  319.7040 LP  0  0  0  0  0  0  0  0  0  0  0  0  # atno 13555 bound_to 5571
  111.8812  239.1672  318.9342 LP  0  0  0  0  0  0  0  0  0  0  0  0  # atno 13556 bound_to 5645
  111.3275  240.7742  318.6007 LP  0  0  0  0  0  0  0  0  0  0  0  0  # atno 13557 bound_to 5645
  112.2613  237.0377  331.0059 LP  0  0  0  0  0  0  0  0  0  0  0  0  # atno 13560 bound_to 9363
  116.6712  238.2310  327.8580 LP  0  0  0  0  0  0  0  0  0  0  0  0  # atno 13561 bound_to 9231
  110.0739  236.5307  331.5209 LP  0  0  0  0  0  0  0  0  0  0  0  0  # atno 13562 bound_to 9321
  109.7951  238.1590  332.0416 LP  0  0  0  0  0  0  0  0  0  0  0  0  # atno 13563 bound_to 9321
  106.7984  245.5730  317.6779 LP  0  0  0  0  0  0  0  0  0  0  0  0  # atno 13566 bound_to 5546
  108.2231  243.5900  316.9967 LP  0  0  0  0  0  0  0  0  0  0  0  0  # atno 13567 bound_to 5574
  109.1287  242.3301  316.2269 LP  0  0  0  0  0  0  0  0  0  0  0  0  # atno 13568 bound_to 5574
  110.9259  244.7708  316.4894 LP  0  0  0  0  0  0  0  0  0  0  0  0  # atno 13569 bound_to 5604
  109.6302  249.3122  319.2113 LP  0  0  0  0  0  0  0  0  0  0  0  0  # atno 13570 bound_to 8525
  107.6618  247.2607  316.4877 LP  0  0  0  0  0  0  0  0  0  0  0  0  # atno 13571 bound_to 5523
  106.6135  248.0815  317.5956 LP  0  0  0  0  0  0  0  0  0  0  0  0  # atno 13572 bound_to 5523
  102.2430  242.1255  323.9358 LP  0  0  0  0  0  0  0  0  0  0  0  0  # atno 13573 bound_to 6144
  102.2528  242.4118  325.6440 LP  0  0  0  0  0  0  0  0  0  0  0  0  # atno 13574 bound_to 6144
  110.2707  246.2006  316.9557 LP  0  0  0  0  0  0  0  0  0  0  0  0  # atno 13575 bound_to 8506
  109.1885  246.4919  315.7681 LP  0  0  0  0  0  0  0  0  0  0  0  0  # atno 13576 bound_to 8506
  116.2602  237.3732  331.5467 LP  0  0  0  0  0  0  0  0  0  0  0  0  # atno 13577 bound_to 9175
  116.4030  238.8719  332.4033 LP  0  0  0  0  0  0  0  0  0  0  0  0  # atno 13578 bound_to 9175
  121.0198  240.0382  332.6737 LP  0  0  0  0  0  0  0  0  0  0  0  0  # atno 13579 bound_to 9178
  119.5933  240.7462  333.0350 LP  0  0  0  0  0  0  0  0  0  0  0  0  # atno 13580 bound_to 9178
  113.8552  234.6062  328.8205 LP  0  0  0  0  0  0  0  0  0  0  0  0  # atno 13581 bound_to 9234
  114.0998  235.0175  330.4851 LP  0  0  0  0  0  0  0  0  0  0  0  0  # atno 13582 bound_to 9234
  117.5151  235.2335  329.5363 LP  0  0  0  0  0  0  0  0  0  0  0  0  # atno 13583 bound_to 9265
  115.4621  235.0338  332.0381 LP  0  0  0  0  0  0  0  0  0  0  0  0  # atno 13584 bound_to 9282
  111.8229  236.5798  333.6088 LP  0  0  0  0  0  0  0  0  0  0  0  0  # atno 13585 bound_to 9285
  112.7813  235.7555  334.7928 LP  0  0  0  0  0  0  0  0  0  0  0  0  # atno 13586 bound_to 9285
  114.1238  237.8326  333.5150 LP  0  0  0  0  0  0  0  0  0  0  0  0  # atno 13587 bound_to 9318
  112.5915  234.9494  330.3111 LP  0  0  0  0  0  0  0  0  0  0  0  0  # atno 13588 bound_to 9391
  109.2008  234.3432  329.8731 LP  0  0  0  0  0  0  0  0  0  0  0  0  # atno 13592 bound_to 9366
  109.1103  235.4964  328.5839 LP  0  0  0  0  0  0  0  0  0  0  0  0  # atno 13593 bound_to 9366
  112.0109  252.3401  328.4831 LP  0  0  0  0  0  0  0  0  0  0  0  0  # atno 13594 bound_to 12888
  110.8257  252.0940  329.5792 LP  0  0  0  0  0  0  0  0  0  0  0  0  # atno 13595 bound_to 12888
  110.2721  246.3846  336.8114 LP  0  0  0  0  0  0  0  0  0  0  0  0  # atno 13596 bound_to 13450
  108.6632  246.6640  336.8179 LP  0  0  0  0  0  0  0  0  0  0  0  0  # atno 13597 bound_to 13450

> <Gold.Score>
     Fitness  S(hb_ext) S(vdw_ext)  S(hb_int)    S(int)      intcor
     41.39       4.39      27.06       0.00      -0.21      -0.79

> <Gold.Goldscore.Fitness>
41.3869

> <Gold.Goldscore.Internal.Vdw>
-0.4624

> <Gold.Goldscore.Internal.Torsion>
-0.5326

> <Gold.Goldscore.External.Vdw>
27.0623

> <Gold.Goldscore.Internal.HBond>
0.0000

> <Gold.Goldscore.External.HBond>
4.3853

> <Gold.Goldscore.Internal.Correction>
-0.7859

> <Gold.Goldscore.Hbonds>
donor molecule, donor type, donor heavy atom, donor atom, acceptor molecule, acceptor atom, score
      P1  H  5690  5702       L1    17  0.47
      P1  H  5693  5706       L1    17  0.04
      L1  H     8    22       P1  9370  0.22

> <Gold.Goldscore.Internal.Vdw.Weighted>
-0.4624

> <Gold.Goldscore.Internal.Torsion.Weighted>
-0.5326

> <Gold.Goldscore.External.Vdw.Weighted>
37.2107

> <Gold.Goldscore.Internal.HBond.Weighted>
0.0000

> <Gold.Goldscore.External.HBond.Weighted>
4.3853

> <Gold.Goldscore.Internal.Correction.Weighted>
-0.7859

> <Gold.Rescore>
     Score     S(PLP)   S(hbond)     S(cho)   S(metal)  DE(clash)   DE(tors)     intcor
     14.34     -12.98       1.18       0.00       0.00       0.00       1.10       ----

> <Gold.PLP.Fitness>
14.3427

> <Gold.PLP.PLP>
-12.9823

> <Gold.PLP.part.hbond>
-4.2954

> <Gold.PLP.part.metal>
0.0000

> <Gold.PLP.part.buried>
11.1686

> <Gold.PLP.part.nonpolar>
-23.9339

> <Gold.PLP.part.repulsive>
4.3305

> <Gold.PLP.ligand.clash>
0.0000

> <Gold.PLP.ligand.torsion>
1.0958

> <Gold.PLP.Chemscore.Hbond>
1.1840

> <Gold.PLP.Chemscore.CHOScore>
0.0000

> <Gold.PLP.Chemscore.Metal>
0.0000

> <Gold.Chemscore.Hbonds>
donor molecule, donor type, donor heavy atom, donor atom, acceptor molecule, acceptor atom, score
      L1  H     8    22       P1  9370  0.56
      P1  H  5690  5702       L1    17  0.59

> <Gold.PLP.Chemscore.Internal.Correction>
   9.000000E+99

#       Name:                CT1002167954
#       Creating user name   hitesit
#       Creation time:       Sun Apr 16 22:52:04 2023


#       File generated by GOLD software.
#

@<TRIPOS>MOLECULE
CT1002167954|ligand_prepared|mol2|1|dock2
    29    30     1
SMALL
NO_CHARGES


@<TRIPOS>ATOM
      1 C1         113.1684 243.0999 326.1554 C.3            1 RES1               0.0000
      2 C2         114.2325 244.0673 325.5979 C.ar           1 RES1               0.0000
      3 C3         112.2978 242.6918 324.9707 C.2            1 RES1               0.0000
      4 C4         113.9336 241.9451 326.7922 C.2            1 RES1               0.0000
      5 C5         112.2607 243.7268 327.2392 C.3            1 RES1               0.0000
      6 C6         115.3623 243.5797 324.9479 C.ar           1 RES1               0.0000
      7 C7         114.0971 245.4473 325.7235 C.ar           1 RES1               0.0000
      8 N8         112.4565 241.4314 324.4745 N.am           1 RES1               0.0000
      9 O9         111.5122 243.4770 324.4545 O.2            1 RES1               0.0000
     10 N10        113.8113 240.7036 326.2251 N.am           1 RES1               0.0000
     11 O11        114.6544 242.1022 327.7700 O.2            1 RES1               0.0000
     12 C12        111.4263 242.7107 328.0030 C.3            1 RES1               0.0000
     13 C13        116.3207 244.4405 324.4391 C.ar           1 RES1               0.0000
     14 C14        115.0568 246.3064 325.2141 C.ar           1 RES1               0.0000
     15 C15        113.1318 240.4004 325.0768 C.2            1 RES1               0.0000
     16 C16        116.1684 245.8043 324.5715 C.ar           1 RES1               0.0000
     17 O17        113.1130 239.2698 324.5988 O.2            1 RES1               0.0000
     18 H18        112.8888 244.2752 327.9519 H              1 RES1               0.0000
     19 H19        111.5871 244.4488 326.7612 H              1 RES1               0.0000
     20 H20        115.5005 242.5094 324.8364 H              1 RES1               0.0000
     21 H21        113.2313 245.8648 326.2262 H              1 RES1               0.0000
     22 H22        112.0340 241.2375 323.5721 H              1 RES1               0.0000
     23 H23        114.2692 239.9342 326.7033 H              1 RES1               0.0000
     24 H24        110.8081 243.2031 328.7506 H              1 RES1               0.0000
     25 H25        110.7710 242.1641 327.3280 H              1 RES1               0.0000
     26 H26        112.0650 241.9915 328.5117 H              1 RES1               0.0000
     27 H27        117.1943 244.0403 323.9354 H              1 RES1               0.0000
     28 H28        114.9332 247.3790 325.3211 H              1 RES1               0.0000
     29 H29        116.9191 246.4785 324.1725 H              1 RES1               0.0000
@<TRIPOS>BOND
    1    1    2 1     
    2    1    3 1     
    3    1    4 1     
    4    1    5 1     
    5    2    6 ar    
    6    2    7 ar    
    7    3    8 1     
    8    3    9 2     
    9    4   10 1     
   10    4   11 2     
   11    5   12 1     
   12    5   18 1     
   13    5   19 1     
   14    6   13 ar    
   15    6   20 1     
   16    7   14 ar    
   17    7   21 1     
   18    8   15 1     
   19    8   22 1     
   20   10   15 1     
   21   10   23 1     
   22   12   24 1     
   23   12   25 1     
   24   12   26 1     
   25   13   16 ar    
   26   13   27 1     
   27   14   16 ar    
   28   14   28 1     
   29   15   17 2     
   30   16   29 1     
@<TRIPOS>SUBSTRUCTURE
      1 RES1           1
@<TRIPOS>SET
DONOR_HYDROGENS      STATIC     ATOMS    <user>   **** ""
2 22 23
ATOM$RED        STATIC     ATOMS    COLORGROUP SYSTEM
2 22 23
@<TRIPOS>COMMENT
> <Gold.Version>
2022.3.0

> <Gold.Id.Protein>
unknown|4uh6_clean|pdb

> <Gold.Protein.RotatedTorsions>
[ 8453 8448 8449 8450 ] final  -66.88 input   43.75 | X-H torsion
[ 8477 8470 8471 8472 ] final  170.94 input  101.27 | X-H torsion
[ 9021 9017 9018 9019 ] final  141.33 input   41.82 | X-H torsion
[ 9055 9041 9042 9043 ] final   33.09 input   38.00 | X-H torsion
[ 9099 9087 9088 9089 ] final   85.94 input   99.63 | X-H torsion
[ 9107 9098 9097 9095 ] final   63.98 input   60.00 | X-H torsion
[ 9133 9125 9126 9127 ] final   24.16 input   87.39 | X-H torsion
[ 9211 9202 9203 9204 ] final  141.51 input  119.00 | X-H torsion
[ 3596 3592 3593 3594 ] final  -33.20 input   87.50 | X-H torsion
[ 9003 8997 8998 8999 ] final  -18.24 input   29.71 | X-H torsion
[ 9159 9155 9156 9157 ] final   41.24 input  127.29 | X-H torsion
[ 11075 11068 11069 11070 ] final  -56.90 input   56.03 | X-H torsion
[ 4893 4888 4887 4884 ] final   17.23 input   60.01 | X-H torsion
[ 9007 9002 9001 8998 ] final  -28.87 input   59.98 | X-H torsion
[ 8973 8962 8963 8964 ] final  -88.23 input   50.05 | X-H torsion
[ 8507 8501 8502 8503 ] final  -89.91 input   53.62 | X-H torsion
[ 4912 4907 4908 4909 ] final -108.84 input   25.27 | X-H torsion
[ 8353 8344 8343 8341 ] final  120.39 input   59.99 | X-H torsion
[ 5556 5551 5550 5547 ] final  -28.81 input   59.99 | X-H torsion
[ 5580 5571 5572 5573 ] final  159.72 input   51.16 | X-H torsion
[ 9375 9363 9364 9365 ] final  -82.22 input  121.73 | X-H torsion
[ 9247 9231 9232 9233 ] final  -37.24 input   97.49 | X-H torsion
[ 5552 5546 5547 5548 ] final   49.72 input   98.49 | X-H torsion
[ 5612 5604 5605 5606 ] final  108.19 input  122.00 | X-H torsion
[ 8533 8525 8526 8527 ] final   98.13 input   68.51 | X-H torsion
[ 8511 8506 8505 8502 ] final   12.26 input   59.98 | X-H torsion
[ 9185 9178 9176 9173 ] final   79.58 input   60.02 | X-H torsion
[ 9272 9265 9266 9267 ] final -128.65 input  106.17 | X-H torsion
[ 9298 9282 9283 9284 ] final -146.67 input   76.97 | X-H torsion
[ 9342 9318 9319 9320 ] final  138.86 input  100.94 | X-H torsion
[ 9412 9391 9392 9393 ] final -122.86 input   95.23 | X-H torsion
[ 12897 12888 12887 12885 ] final -178.21 input   60.01 | X-H torsion
[ 13469 13450 13449 13445 ] final   21.79 input   59.98 | X-H torsion
[ 3570 3563 3564 3565 ] final  -46.71 input   99.66 | X-H torsion
[ 13485 8425 8424 8423 ] final  -62.14 input    0.00 | X-H torsion
[ 13489 8965 8964 8963 ] final   96.71 input    0.00 | X-H torsion
[ 13492 9020 9019 9018 ] final  150.13 input   -0.00 | X-H torsion
[ 13495 9044 9043 9042 ] final  -30.79 input    0.00 | X-H torsion
[ 13498 9090 9089 9088 ] final  112.41 input    0.00 | X-H torsion
[ 13503 9128 9127 9126 ] final  134.85 input    0.00 | X-H torsion
[ 13516 9000 8999 8998 ] final -142.19 input    0.00 | X-H torsion
[ 13518 8370 8369 8368 ] final  104.08 input    0.00 | X-H torsion
[ 13522 11071 11070 11069 ] final  -80.29 input   -0.00 | X-H torsion
[ 13526 8388 8387 8386 ] final -106.61 input    0.00 | X-H torsion
[ 13530 8451 8450 8449 ] final   -5.90 input    0.00 | X-H torsion
[ 13532 8473 8472 8471 ] final   49.34 input    0.00 | X-H torsion
[ 13539 4910 4909 4908 ] final   83.07 input   -0.00 | X-H torsion
[ 13543 5549 5548 5547 ] final  136.34 input    0.00 | X-H torsion
[ 13547 9205 9204 9203 ] final  -15.54 input   -0.00 | X-H torsion
[ 13556 5645 5644 5643 ] final -173.67 input   -0.00 | X-H torsion
[ 13562 9321 9320 9319 ] final   15.04 input    0.00 | X-H torsion
[ 13567 5574 5573 5572 ] final  -38.02 input    0.00 | X-H torsion
[ 13571 5523 5522 5521 ] final  -59.04 input    0.00 | X-H torsion
[ 13573 6144 6143 6142 ] final -114.20 input    0.00 | X-H torsion
[ 13577 9175 9174 9173 ] final  -58.04 input    0.00 | X-H torsion
[ 13581 9234 9233 9232 ] final -115.25 input    0.00 | X-H torsion
[ 13585 9285 9284 9283 ] final   20.80 input    0.00 | X-H torsion
[ 13592 9366 9365 9364 ] final  137.45 input   -0.00 | X-H torsion

> <Gold.Protein.ActiveResidues>
 TRP311  MET341  HIS342  TRP414  ARG419  CYS420  VAL421  GLY422  LEU429  LEU460 
 SER462  ALA463  ILE464  ASN481  SER482  GLN483  LEU484  ILE485  ARG486  ASP500 
 ALA502  ASN503  TRP566  TYR567  GLY568  LEU569  PRO570  ALA571  VAL572  SER573 
 ASN574  MET575  PRO588  PHE589  SER590  GLY591  TRP592  TYR593  MET594  GLY595 
 THR596  GLU597  ILE598  GLY599  VAL600  ARG601  ASP602  TYR603  ASP605  ARG608 
 ILE653  VAL654  TRP683  PRO687  SER691  PHE696  HIS697  TYR711  HEM750  H4B760 

> <Gold.Protein.RotatedAtoms>
  122.4772  250.2393  328.9376 H   0  0  0  0  0  0  0  0  0  0  0  0  # atno 3570 bound_to 3563
  124.5640  249.5541  328.4766 H   0  0  0  0  0  0  0  0  0  0  0  0  # atno 3596 bound_to 3592
  125.4070  246.2949  318.2793 H   0  0  0  0  0  0  0  0  0  0  0  0  # atno 4893 bound_to 4888
  123.5634  248.4611  315.3954 H   0  0  0  0  0  0  0  0  0  0  0  0  # atno 4912 bound_to 4907
  106.5719  244.6164  318.4065 H   0  0  0  0  0  0  0  0  0  0  0  0  # atno 5552 bound_to 5546
  106.8563  243.9487  320.3713 H   0  0  0  0  0  0  0  0  0  0  0  0  # atno 5556 bound_to 5551
  108.7658  244.7755  319.9556 H   0  0  0  0  0  0  0  0  0  0  0  0  # atno 5580 bound_to 5571
  112.0920  244.1076  316.7323 H   0  0  0  0  0  0  0  0  0  0  0  0  # atno 5612 bound_to 5604
  112.2203  238.9647  322.4750 H   0  0  0  0  0  0  0  0  0  0  0  0  # atno 8353 bound_to 8344
  115.8769  243.7666  319.9137 H   0  0  0  0  0  0  0  0  0  0  0  0  # atno 8453 bound_to 8448
  115.0102  246.1843  319.7922 H   0  0  0  0  0  0  0  0  0  0  0  0  # atno 8477 bound_to 8470
  112.2544  248.7512  318.7590 H   0  0  0  0  0  0  0  0  0  0  0  0  # atno 8507 bound_to 8501
  109.3706  247.1672  317.4127 H   0  0  0  0  0  0  0  0  0  0  0  0  # atno 8511 bound_to 8506
  109.7057  249.3621  319.2728 H   0  0  0  0  0  0  0  0  0  0  0  0  # atno 8533 bound_to 8525
  115.5579  249.3213  315.2980 H   0  0  0  0  0  0  0  0  0  0  0  0  # atno 8973 bound_to 8962
  119.4398  248.4748  317.2635 H   0  0  0  0  0  0  0  0  0  0  0  0  # atno 9003 bound_to 8997
  120.0039  246.2819  315.2840 H   0  0  0  0  0  0  0  0  0  0  0  0  # atno 9007 bound_to 9002
  120.2941  246.1291  319.2852 H   0  0  0  0  0  0  0  0  0  0  0  0  # atno 9021 bound_to 9017
  122.9417  243.8636  321.4189 H   0  0  0  0  0  0  0  0  0  0  0  0  # atno 9055 bound_to 9041
  122.2401  239.6511  322.4105 H   0  0  0  0  0  0  0  0  0  0  0  0  # atno 9099 bound_to 9087
  114.7755  240.3877  322.7888 H   0  0  0  0  0  0  0  0  0  0  0  0  # atno 9107 bound_to 9098
  120.7894  240.4758  326.3424 H   0  0  0  0  0  0  0  0  0  0  0  0  # atno 9133 bound_to 9125
  122.2207  238.7183  329.5296 H   0  0  0  0  0  0  0  0  0  0  0  0  # atno 9159 bound_to 9155
  119.2672  240.5813  332.2851 H   0  0  0  0  0  0  0  0  0  0  0  0  # atno 9185 bound_to 9178
  118.9314  239.5254  329.9337 H   0  0  0  0  0  0  0  0  0  0  0  0  # atno 9211 bound_to 9202
  116.3269  237.8892  329.3925 H   0  0  0  0  0  0  0  0  0  0  0  0  # atno 9247 bound_to 9231
  116.3327  234.7672  329.0737 H   0  0  0  0  0  0  0  0  0  0  0  0  # atno 9272 bound_to 9265
  116.4719  234.9167  332.7126 H   0  0  0  0  0  0  0  0  0  0  0  0  # atno 9298 bound_to 9282
  114.5993  238.3097  332.6544 H   0  0  0  0  0  0  0  0  0  0  0  0  # atno 9342 bound_to 9318
  111.5790  237.9939  330.8420 H   0  0  0  0  0  0  0  0  0  0  0  0  # atno 9375 bound_to 9363
  111.3107  234.9617  329.2897 H   0  0  0  0  0  0  0  0  0  0  0  0  # atno 9412 bound_to 9391
  125.7082  237.5833  325.9096 H   0  0  0  0  0  0  0  0  0  0  0  0  # atno 11075 bound_to 11068
  111.4864  253.2628  329.9262 H   0  0  0  0  0  0  0  0  0  0  0  0  # atno 12897 bound_to 12888
  110.4184  246.5146  337.2535 H   0  0  0  0  0  0  0  0  0  0  0  0  # atno 13469 bound_to 13450
  118.2818  244.4174  320.0937 LP  0  0  0  0  0  0  0  0  0  0  0  0  # atno 13485 bound_to 8425
  118.1652  244.2807  318.3710 LP  0  0  0  0  0  0  0  0  0  0  0  0  # atno 13486 bound_to 8425
  115.5415  242.6935  318.5770 LP  0  0  0  0  0  0  0  0  0  0  0  0  # atno 13487 bound_to 8448
  114.6720  246.6584  318.1430 LP  0  0  0  0  0  0  0  0  0  0  0  0  # atno 13488 bound_to 8470
  116.1897  246.8805  317.3268 LP  0  0  0  0  0  0  0  0  0  0  0  0  # atno 13489 bound_to 8965
  116.4733  247.8611  318.7260 LP  0  0  0  0  0  0  0  0  0  0  0  0  # atno 13490 bound_to 8965
  120.3781  244.7426  318.2221 LP  0  0  0  0  0  0  0  0  0  0  0  0  # atno 13491 bound_to 9017
  122.7254  241.9781  318.4660 LP  0  0  0  0  0  0  0  0  0  0  0  0  # atno 13492 bound_to 9020
  121.5259  243.0558  317.8338 LP  0  0  0  0  0  0  0  0  0  0  0  0  # atno 13493 bound_to 9020
  122.5332  243.4506  319.7674 LP  0  0  0  0  0  0  0  0  0  0  0  0  # atno 13494 bound_to 9041
  122.9855  243.3825  323.1182 LP  0  0  0  0  0  0  0  0  0  0  0  0  # atno 13495 bound_to 9044
  121.6292  242.7291  323.9748 LP  0  0  0  0  0  0  0  0  0  0  0  0  # atno 13496 bound_to 9044
  122.0343  241.3827  322.5392 LP  0  0  0  0  0  0  0  0  0  0  0  0  # atno 13497 bound_to 9087
  124.1512  240.2864  325.3158 LP  0  0  0  0  0  0  0  0  0  0  0  0  # atno 13498 bound_to 9090
  123.4285  238.7313  325.0721 LP  0  0  0  0  0  0  0  0  0  0  0  0  # atno 13499 bound_to 9090
  114.4514  239.1195  323.7553 LP  0  0  0  0  0  0  0  0  0  0  0  0  # atno 13500 bound_to 9098
  114.7840  238.8811  322.1744 LP  0  0  0  0  0  0  0  0  0  0  0  0  # atno 13501 bound_to 9098
  122.3164  241.1832  325.8672 LP  0  0  0  0  0  0  0  0  0  0  0  0  # atno 13502 bound_to 9125
  119.7444  238.3745  327.8386 LP  0  0  0  0  0  0  0  0  0  0  0  0  # atno 13503 bound_to 9128
  119.7553  239.9867  328.4717 LP  0  0  0  0  0  0  0  0  0  0  0  0  # atno 13504 bound_to 9128
  117.9185  238.3350  330.7096 LP  0  0  0  0  0  0  0  0  0  0  0  0  # atno 13505 bound_to 9202
  123.4711  248.2694  328.0263 LP  0  0  0  0  0  0  0  0  0  0  0  0  # atno 13514 bound_to 3592
  118.0042  247.8703  316.4831 LP  0  0  0  0  0  0  0  0  0  0  0  0  # atno 13515 bound_to 8997
  122.3092  246.6415  317.2917 LP  0  0  0  0  0  0  0  0  0  0  0  0  # atno 13516 bound_to 9000
  121.1810  247.9557  317.2969 LP  0  0  0  0  0  0  0  0  0  0  0  0  # atno 13517 bound_to 9000
  120.8836  238.4245  318.7686 LP  0  0  0  0  0  0  0  0  0  0  0  0  # atno 13518 bound_to 8370
  119.9732  238.0725  320.1993 LP  0  0  0  0  0  0  0  0  0  0  0  0  # atno 13519 bound_to 8370
  122.4859  238.2666  327.8600 LP  0  0  0  0  0  0  0  0  0  0  0  0  # atno 13520 bound_to 9155
  125.7035  239.2179  325.3031 LP  0  0  0  0  0  0  0  0  0  0  0  0  # atno 13521 bound_to 11068
  124.6037  239.6986  328.7599 LP  0  0  0  0  0  0  0  0  0  0  0  0  # atno 13522 bound_to 11071
  124.3515  238.0071  328.4861 LP  0  0  0  0  0  0  0  0  0  0  0  0  # atno 13523 bound_to 11071
  124.5551  247.3398  319.1913 LP  0  0  0  0  0  0  0  0  0  0  0  0  # atno 13524 bound_to 4888
  126.1341  247.6200  318.8831 LP  0  0  0  0  0  0  0  0  0  0  0  0  # atno 13525 bound_to 4888
  115.7535  241.0388  317.6130 LP  0  0  0  0  0  0  0  0  0  0  0  0  # atno 13526 bound_to 8388
  115.6270  239.4459  318.2814 LP  0  0  0  0  0  0  0  0  0  0  0  0  # atno 13527 bound_to 8388
  119.1724  245.0901  314.5521 LP  0  0  0  0  0  0  0  0  0  0  0  0  # atno 13528 bound_to 9002
  120.4037  244.7294  315.5622 LP  0  0  0  0  0  0  0  0  0  0  0  0  # atno 13529 bound_to 9002
  113.0431  244.4923  317.3878 LP  0  0  0  0  0  0  0  0  0  0  0  0  # atno 13530 bound_to 8451
  112.3219  245.7532  318.3312 LP  0  0  0  0  0  0  0  0  0  0  0  0  # atno 13531 bound_to 8451
  114.4116  248.8175  317.4692 LP  0  0  0  0  0  0  0  0  0  0  0  0  # atno 13532 bound_to 8473
  113.2984  250.1218  317.7134 LP  0  0  0  0  0  0  0  0  0  0  0  0  # atno 13533 bound_to 8473
  115.2889  250.1225  316.8282 LP  0  0  0  0  0  0  0  0  0  0  0  0  # atno 13534 bound_to 8962
  111.1424  247.4251  318.5420 LP  0  0  0  0  0  0  0  0  0  0  0  0  # atno 13535 bound_to 8501
  122.2552  247.3215  315.1999 LP  0  0  0  0  0  0  0  0  0  0  0  0  # atno 13538 bound_to 4907
  120.4308  249.4822  315.9387 LP  0  0  0  0  0  0  0  0  0  0  0  0  # atno 13539 bound_to 4910
  119.4510  248.6325  314.7907 LP  0  0  0  0  0  0  0  0  0  0  0  0  # atno 13540 bound_to 4910
  110.3852  246.4053  320.2794 LP  0  0  0  0  0  0  0  0  0  0  0  0  # atno 13543 bound_to 5549
  109.4648  247.6693  319.5343 LP  0  0  0  0  0  0  0  0  0  0  0  0  # atno 13544 bound_to 5549
  110.8574  238.2441  321.9535 LP  0  0  0  0  0  0  0  0  0  0  0  0  # atno 13545 bound_to 8344
  111.4021  239.5964  321.2180 LP  0  0  0  0  0  0  0  0  0  0  0  0  # atno 13546 bound_to 8344
  114.3379  239.2783  329.8109 LP  0  0  0  0  0  0  0  0  0  0  0  0  # atno 13547 bound_to 9205
  114.1117  237.9469  328.7263 LP  0  0  0  0  0  0  0  0  0  0  0  0  # atno 13548 bound_to 9205
  106.1674  244.0600  321.8415 LP  0  0  0  0  0  0  0  0  0  0  0  0  # atno 13553 bound_to 5551
  107.7811  244.2482  321.6765 LP  0  0  0  0  0  0  0  0  0  0  0  0  # atno 13554 bound_to 5551
  108.2424  244.9005  318.2861 LP  0  0  0  0  0  0  0  0  0  0  0  0  # atno 13555 bound_to 5571
  111.0265  239.5597  319.2646 LP  0  0  0  0  0  0  0  0  0  0  0  0  # atno 13556 bound_to 5645
  112.1822  240.3817  318.2703 LP  0  0  0  0  0  0  0  0  0  0  0  0  # atno 13557 bound_to 5645
  113.0775  237.4431  330.1262 LP  0  0  0  0  0  0  0  0  0  0  0  0  # atno 13560 bound_to 9363
  117.2448  237.8734  327.9019 LP  0  0  0  0  0  0  0  0  0  0  0  0  # atno 13561 bound_to 9231
  109.9794  237.8954  332.4482 LP  0  0  0  0  0  0  0  0  0  0  0  0  # atno 13562 bound_to 9321
  109.8896  236.7943  331.1143 LP  0  0  0  0  0  0  0  0  0  0  0  0  # atno 13563 bound_to 9321
  105.7802  246.1393  318.0857 LP  0  0  0  0  0  0  0  0  0  0  0  0  # atno 13566 bound_to 5546
  108.5970  242.5899  317.3907 LP  0  0  0  0  0  0  0  0  0  0  0  0  # atno 13567 bound_to 5574
  108.7548  243.3303  315.8328 LP  0  0  0  0  0  0  0  0  0  0  0  0  # atno 13568 bound_to 5574
  110.3567  243.9176  316.8287 LP  0  0  0  0  0  0  0  0  0  0  0  0  # atno 13569 bound_to 5604
  109.9524  250.2803  317.8114 LP  0  0  0  0  0  0  0  0  0  0  0  0  # atno 13570 bound_to 8525
  107.5940  247.2789  316.4188 LP  0  0  0  0  0  0  0  0  0  0  0  0  # atno 13571 bound_to 5523
  106.6813  248.0632  317.6645 LP  0  0  0  0  0  0  0  0  0  0  0  0  # atno 13572 bound_to 5523
  101.4006  242.1128  324.7018 LP  0  0  0  0  0  0  0  0  0  0  0  0  # atno 13573 bound_to 6144
  103.0952  242.4246  324.8779 LP  0  0  0  0  0  0  0  0  0  0  0  0  # atno 13574 bound_to 6144
  110.2315  246.0531  316.5960 LP  0  0  0  0  0  0  0  0  0  0  0  0  # atno 13575 bound_to 8506
  108.9370  246.7617  315.8971 LP  0  0  0  0  0  0  0  0  0  0  0  0  # atno 13576 bound_to 8506
  116.4592  237.2684  331.9108 LP  0  0  0  0  0  0  0  0  0  0  0  0  # atno 13577 bound_to 9175
  116.2041  238.9767  332.0391 LP  0  0  0  0  0  0  0  0  0  0  0  0  # atno 13578 bound_to 9175
  120.6062  239.8371  331.7355 LP  0  0  0  0  0  0  0  0  0  0  0  0  # atno 13579 bound_to 9178
  120.5693  240.4425  333.2516 LP  0  0  0  0  0  0  0  0  0  0  0  0  # atno 13580 bound_to 9178
  114.0003  235.2515  330.3986 LP  0  0  0  0  0  0  0  0  0  0  0  0  # atno 13581 bound_to 9234
  113.9547  234.3722  328.9070 LP  0  0  0  0  0  0  0  0  0  0  0  0  # atno 13582 bound_to 9234
  116.9979  235.9442  330.1849 LP  0  0  0  0  0  0  0  0  0  0  0  0  # atno 13583 bound_to 9265
  115.7663  236.2031  331.7669 LP  0  0  0  0  0  0  0  0  0  0  0  0  # atno 13584 bound_to 9282
  112.7745  235.8323  334.8445 LP  0  0  0  0  0  0  0  0  0  0  0  0  # atno 13585 bound_to 9285
  111.8297  236.5030  333.5571 LP  0  0  0  0  0  0  0  0  0  0  0  0  # atno 13586 bound_to 9285
  113.7072  236.8096  332.7431 LP  0  0  0  0  0  0  0  0  0  0  0  0  # atno 13587 bound_to 9318
  112.2499  235.1880  330.7469 LP  0  0  0  0  0  0  0  0  0  0  0  0  # atno 13588 bound_to 9391
  109.4318  234.1292  329.0079 LP  0  0  0  0  0  0  0  0  0  0  0  0  # atno 13592 bound_to 9366
  108.8793  235.7104  329.4492 LP  0  0  0  0  0  0  0  0  0  0  0  0  # atno 13593 bound_to 9366
  112.2039  252.6822  328.5861 LP  0  0  0  0  0  0  0  0  0  0  0  0  # atno 13594 bound_to 12888
  110.9440  251.8847  329.2519 LP  0  0  0  0  0  0  0  0  0  0  0  0  # atno 13595 bound_to 12888
  108.9801  246.4962  336.4915 LP  0  0  0  0  0  0  0  0  0  0  0  0  # atno 13596 bound_to 13450
  109.0820  247.0145  338.0367 LP  0  0  0  0  0  0  0  0  0  0  0  0  # atno 13597 bound_to 13450

> <Gold.Score>
     Fitness  S(hb_ext) S(vdw_ext)  S(hb_int)    S(int)      intcor
     40.89       8.00      24.06       0.00      -0.18      -0.78

> <Gold.Goldscore.Fitness>
40.8897

> <Gold.Goldscore.Internal.Vdw>
-0.3484

> <Gold.Goldscore.Internal.Torsion>
-0.6173

> <Gold.Goldscore.External.Vdw>
24.0555

> <Gold.Goldscore.Internal.HBond>
0.0000

> <Gold.Goldscore.External.HBond>
7.9972

> <Gold.Goldscore.Internal.Correction>
-0.7819

> <Gold.Goldscore.Hbonds>
donor molecule, donor type, donor heavy atom, donor atom, acceptor molecule, acceptor atom, score
      P1  H  8344  8353       L1    17  1.00
      L1  H     8    22       P1  5579  1.00

> <Gold.Goldscore.Internal.Vdw.Weighted>
-0.3484

> <Gold.Goldscore.Internal.Torsion.Weighted>
-0.6173

> <Gold.Goldscore.External.Vdw.Weighted>
33.0763

> <Gold.Goldscore.Internal.HBond.Weighted>
0.0000

> <Gold.Goldscore.External.HBond.Weighted>
7.9972

> <Gold.Goldscore.Internal.Correction.Weighted>
-0.7819

> <Gold.Rescore>
     Score     S(PLP)   S(hbond)     S(cho)   S(metal)  DE(clash)   DE(tors)     intcor
     24.71     -19.11       2.42       0.00       0.00       0.00       0.84       ----

> <Gold.PLP.Fitness>
24.7079

> <Gold.PLP.PLP>
-19.1130

> <Gold.PLP.part.hbond>
-3.8645

> <Gold.PLP.part.metal>
0.0000

> <Gold.PLP.part.buried>
7.4454

> <Gold.PLP.part.nonpolar>
-27.5333

> <Gold.PLP.part.repulsive>
4.3490

> <Gold.PLP.ligand.clash>
0.0000

> <Gold.PLP.ligand.torsion>
0.8385

> <Gold.PLP.Chemscore.Hbond>
2.4240

> <Gold.PLP.Chemscore.CHOScore>
0.0000

> <Gold.PLP.Chemscore.Metal>
0.0000

> <Gold.Chemscore.Hbonds>
donor molecule, donor type, donor heavy atom, donor atom, acceptor molecule, acceptor atom, score
      L1  H     8    22       P1  5579  1.00
      L1  H    10    23       P1  9370  0.37
      P1  H  8344  8353       L1    17  0.44

> <Gold.PLP.Chemscore.Internal.Correction>
   9.000000E+99

#       Name:                CT1002167954
#       Creating user name   hitesit
#       Creation time:       Sun Apr 16 22:52:06 2023


#       File generated by GOLD software.
#

@<TRIPOS>MOLECULE
CT1002167954|ligand_prepared|mol2|1|dock4
    29    30     1
SMALL
NO_CHARGES


@<TRIPOS>ATOM
      1 C1         116.8597 245.4945 323.6924 C.3            1 RES1               0.0000
      2 C2         115.4325 245.8761 324.1352 C.ar           1 RES1               0.0000
      3 C3         116.9148 245.7189 322.1841 C.2            1 RES1               0.0000
      4 C4         117.8062 246.3858 324.4890 C.2            1 RES1               0.0000
      5 C5         117.2316 244.0220 323.9838 C.3            1 RES1               0.0000
      6 C6         114.3595 245.0290 323.8748 C.ar           1 RES1               0.0000
      7 C7         115.1741 247.0685 324.8061 C.ar           1 RES1               0.0000
      8 N8         117.6066 246.8036 321.7316 N.am           1 RES1               0.0000
      9 O9         116.3271 244.9778 321.4059 O.2            1 RES1               0.0000
     10 N10        118.5505 247.3082 323.8014 N.am           1 RES1               0.0000
     11 O11        117.9018 246.3089 325.7077 O.2            1 RES1               0.0000
     12 C12        118.7224 243.7366 323.8932 C.3            1 RES1               0.0000
     13 C13        113.0751 245.3604 324.2733 C.ar           1 RES1               0.0000
     14 C14        113.8888 247.3981 325.2035 C.ar           1 RES1               0.0000
     15 C15        118.4710 247.5785 322.4624 C.2            1 RES1               0.0000
     16 C16        112.8389 246.5448 324.9382 C.ar           1 RES1               0.0000
     17 O17        119.1341 248.4613 321.9257 O.2            1 RES1               0.0000
     18 H18        116.8830 243.7624 324.9910 H              1 RES1               0.0000
     19 H19        116.7046 243.3768 323.2700 H              1 RES1               0.0000
     20 H20        114.5256 244.0939 323.3505 H              1 RES1               0.0000
     21 H21        115.9845 247.7556 325.0246 H              1 RES1               0.0000
     22 H22        117.4683 247.0627 320.7599 H              1 RES1               0.0000
     23 H23        119.2267 247.8429 324.3374 H              1 RES1               0.0000
     24 H24        118.9284 242.6898 324.1063 H              1 RES1               0.0000
     25 H25        119.0980 243.9597 322.8967 H              1 RES1               0.0000
     26 H26        119.2753 244.3431 324.6075 H              1 RES1               0.0000
     27 H27        112.2520 244.6861 324.0608 H              1 RES1               0.0000
     28 H28        113.7075 248.3315 325.7260 H              1 RES1               0.0000
     29 H29        111.8327 246.8040 325.2505 H              1 RES1               0.0000
@<TRIPOS>BOND
    1    1    2 1     
    2    1    3 1     
    3    1    4 1     
    4    1    5 1     
    5    2    6 ar    
    6    2    7 ar    
    7    3    8 1     
    8    3    9 2     
    9    4   10 1     
   10    4   11 2     
   11    5   12 1     
   12    5   18 1     
   13    5   19 1     
   14    6   13 ar    
   15    6   20 1     
   16    7   14 ar    
   17    7   21 1     
   18    8   15 1     
   19    8   22 1     
   20   10   15 1     
   21   10   23 1     
   22   12   24 1     
   23   12   25 1     
   24   12   26 1     
   25   13   16 ar    
   26   13   27 1     
   27   14   16 ar    
   28   14   28 1     
   29   15   17 2     
   30   16   29 1     
@<TRIPOS>SUBSTRUCTURE
      1 RES1           1
@<TRIPOS>SET
DONOR_HYDROGENS      STATIC     ATOMS    <user>   **** ""
2 22 23
ATOM$RED        STATIC     ATOMS    COLORGROUP SYSTEM
2 22 23
@<TRIPOS>COMMENT
> <Gold.Version>
2022.3.0

> <Gold.Id.Protein>
unknown|4uh6_clean|pdb

> <Gold.Protein.RotatedTorsions>
[ 8453 8448 8449 8450 ] final -140.57 input   43.75 | X-H torsion
[ 8477 8470 8471 8472 ] final   21.55 input  101.27 | X-H torsion
[ 9021 9017 9018 9019 ] final   37.74 input   41.82 | X-H torsion
[ 9055 9041 9042 9043 ] final   14.47 input   38.00 | X-H torsion
[ 9099 9087 9088 9089 ] final -130.71 input   99.63 | X-H torsion
[ 9107 9098 9097 9095 ] final  179.69 input   60.00 | X-H torsion
[ 9133 9125 9126 9127 ] final  -12.11 input   87.39 | X-H torsion
[ 9211 9202 9203 9204 ] final -121.32 input  119.00 | X-H torsion
[ 3596 3592 3593 3594 ] final -104.92 input   87.50 | X-H torsion
[ 9003 8997 8998 8999 ] final   53.85 input   29.71 | X-H torsion
[ 9159 9155 9156 9157 ] final  -79.35 input  127.29 | X-H torsion
[ 11075 11068 11069 11070 ] final  -52.25 input   56.03 | X-H torsion
[ 4893 4888 4887 4884 ] final  118.91 input   60.01 | X-H torsion
[ 9007 9002 9001 8998 ] final  117.78 input   59.98 | X-H torsion
[ 8973 8962 8963 8964 ] final  -35.64 input   50.05 | X-H torsion
[ 8507 8501 8502 8503 ] final  -30.72 input   53.62 | X-H torsion
[ 4912 4907 4908 4909 ] final    4.14 input   25.27 | X-H torsion
[ 8353 8344 8343 8341 ] final  -84.76 input   59.99 | X-H torsion
[ 5556 5551 5550 5547 ] final -141.03 input   59.99 | X-H torsion
[ 5580 5571 5572 5573 ] final  -21.91 input   51.16 | X-H torsion
[ 9375 9363 9364 9365 ] final  -20.27 input  121.73 | X-H torsion
[ 9247 9231 9232 9233 ] final -147.20 input   97.49 | X-H torsion
[ 5552 5546 5547 5548 ] final  -90.00 input   98.49 | X-H torsion
[ 5612 5604 5605 5606 ] final -174.60 input  122.00 | X-H torsion
[ 8533 8525 8526 8527 ] final -177.47 input   68.51 | X-H torsion
[ 8511 8506 8505 8502 ] final   47.10 input   59.98 | X-H torsion
[ 9185 9178 9176 9173 ] final   24.77 input   60.02 | X-H torsion
[ 9272 9265 9266 9267 ] final  -31.66 input  106.17 | X-H torsion
[ 9298 9282 9283 9284 ] final  -93.17 input   76.97 | X-H torsion
[ 9342 9318 9319 9320 ] final -171.89 input  100.94 | X-H torsion
[ 9412 9391 9392 9393 ] final   98.06 input   95.23 | X-H torsion
[ 12897 12888 12887 12885 ] final  -16.15 input   60.01 | X-H torsion
[ 13469 13450 13449 13445 ] final -110.32 input   59.98 | X-H torsion
[ 3570 3563 3564 3565 ] final  -28.55 input   99.66 | X-H torsion
[ 13485 8425 8424 8423 ] final   55.90 input    0.00 | X-H torsion
[ 13489 8965 8964 8963 ] final -136.61 input    0.00 | X-H torsion
[ 13492 9020 9019 9018 ] final   87.02 input   -0.00 | X-H torsion
[ 13495 9044 9043 9042 ] final  -92.97 input    0.00 | X-H torsion
[ 13498 9090 9089 9088 ] final  171.44 input    0.00 | X-H torsion
[ 13503 9128 9127 9126 ] final  -73.24 input    0.00 | X-H torsion
[ 13516 9000 8999 8998 ] final -133.64 input    0.00 | X-H torsion
[ 13518 8370 8369 8368 ] final   16.81 input    0.00 | X-H torsion
[ 13522 11071 11070 11069 ] final   78.69 input   -0.00 | X-H torsion
[ 13526 8388 8387 8386 ] final  -52.37 input    0.00 | X-H torsion
[ 13530 8451 8450 8449 ] final   -9.29 input    0.00 | X-H torsion
[ 13532 8473 8472 8471 ] final   89.81 input    0.00 | X-H torsion
[ 13539 4910 4909 4908 ] final  -29.75 input   -0.00 | X-H torsion
[ 13543 5549 5548 5547 ] final  -70.47 input    0.00 | X-H torsion
[ 13547 9205 9204 9203 ] final  -69.45 input   -0.00 | X-H torsion
[ 13556 5645 5644 5643 ] final -145.47 input   -0.00 | X-H torsion
[ 13562 9321 9320 9319 ] final  -44.16 input    0.00 | X-H torsion
[ 13567 5574 5573 5572 ] final   47.20 input    0.00 | X-H torsion
[ 13571 5523 5522 5521 ] final -177.40 input    0.00 | X-H torsion
[ 13573 6144 6143 6142 ] final  137.53 input    0.00 | X-H torsion
[ 13577 9175 9174 9173 ] final   52.95 input    0.00 | X-H torsion
[ 13581 9234 9233 9232 ] final  144.27 input    0.00 | X-H torsion
[ 13585 9285 9284 9283 ] final  120.47 input    0.00 | X-H torsion
[ 13592 9366 9365 9364 ] final  -93.20 input   -0.00 | X-H torsion

> <Gold.Protein.ActiveResidues>
 TRP311  MET341  HIS342  TRP414  ARG419  CYS420  VAL421  GLY422  LEU429  LEU460 
 SER462  ALA463  ILE464  ASN481  SER482  GLN483  LEU484  ILE485  ARG486  ASP500 
 ALA502  ASN503  TRP566  TYR567  GLY568  LEU569  PRO570  ALA571  VAL572  SER573 
 ASN574  MET575  PRO588  PHE589  SER590  GLY591  TRP592  TYR593  MET594  GLY595 
 THR596  GLU597  ILE598  GLY599  VAL600  ARG601  ASP602  TYR603  ASP605  ARG608 
 ILE653  VAL654  TRP683  PRO687  SER691  PHE696  HIS697  TYR711  HEM750  H4B760 

> <Gold.Protein.RotatedAtoms>
  122.4746  250.0183  328.7656 H   0  0  0  0  0  0  0  0  0  0  0  0  # atno 3570 bound_to 3563
  124.5804  248.5905  328.8438 H   0  0  0  0  0  0  0  0  0  0  0  0  # atno 3596 bound_to 3592
  126.2435  247.4012  318.7108 H   0  0  0  0  0  0  0  0  0  0  0  0  # atno 4893 bound_to 4888
  122.1833  248.1088  315.7516 H   0  0  0  0  0  0  0  0  0  0  0  0  # atno 4912 bound_to 4907
  106.2733  246.1022  317.7434 H   0  0  0  0  0  0  0  0  0  0  0  0  # atno 5552 bound_to 5546
  106.1076  244.0394  321.7308 H   0  0  0  0  0  0  0  0  0  0  0  0  # atno 5556 bound_to 5551
  108.2754  244.9152  318.2364 H   0  0  0  0  0  0  0  0  0  0  0  0  # atno 5580 bound_to 5571
  111.3028  244.8292  316.4537 H   0  0  0  0  0  0  0  0  0  0  0  0  # atno 5612 bound_to 5604
  110.9726  239.2364  321.1671 H   0  0  0  0  0  0  0  0  0  0  0  0  # atno 8353 bound_to 8344
  116.5794  243.3582  319.2363 H   0  0  0  0  0  0  0  0  0  0  0  0  # atno 8453 bound_to 8448
  114.9652  246.9872  318.2832 H   0  0  0  0  0  0  0  0  0  0  0  0  # atno 8477 bound_to 8470
  111.4812  248.7725  319.1501 H   0  0  0  0  0  0  0  0  0  0  0  0  # atno 8507 bound_to 8501
  108.9720  247.3091  317.0445 H   0  0  0  0  0  0  0  0  0  0  0  0  # atno 8511 bound_to 8506
  109.2994  249.2277  318.1772 H   0  0  0  0  0  0  0  0  0  0  0  0  # atno 8533 bound_to 8525
  115.3828  248.8584  315.9064 H   0  0  0  0  0  0  0  0  0  0  0  0  # atno 8973 bound_to 8962
  119.3827  248.1010  316.3070 H   0  0  0  0  0  0  0  0  0  0  0  0  # atno 9003 bound_to 8997
  120.1269  244.4935  315.3273 H   0  0  0  0  0  0  0  0  0  0  0  0  # atno 9007 bound_to 9002
  120.0470  244.7571  319.2522 H   0  0  0  0  0  0  0  0  0  0  0  0  # atno 9021 bound_to 9017
  122.6547  243.8587  321.4418 H   0  0  0  0  0  0  0  0  0  0  0  0  # atno 9055 bound_to 9041
  121.5792  241.1929  322.2948 H   0  0  0  0  0  0  0  0  0  0  0  0  # atno 9099 bound_to 9087
  114.7992  238.9414  322.1408 H   0  0  0  0  0  0  0  0  0  0  0  0  # atno 9107 bound_to 9098
  121.0868  240.0872  326.0878 H   0  0  0  0  0  0  0  0  0  0  0  0  # atno 9133 bound_to 9125
  121.7485  238.6773  328.0608 H   0  0  0  0  0  0  0  0  0  0  0  0  # atno 9159 bound_to 9155
  119.6565  240.1726  331.6335 H   0  0  0  0  0  0  0  0  0  0  0  0  # atno 9185 bound_to 9178
  118.2364  239.3925  331.0458 H   0  0  0  0  0  0  0  0  0  0  0  0  # atno 9211 bound_to 9202
  116.3605  238.3396  328.0063 H   0  0  0  0  0  0  0  0  0  0  0  0  # atno 9247 bound_to 9231
  115.8954  235.6914  329.9274 H   0  0  0  0  0  0  0  0  0  0  0  0  # atno 9272 bound_to 9265
  115.7884  234.7561  332.3461 H   0  0  0  0  0  0  0  0  0  0  0  0  # atno 9298 bound_to 9282
  114.3435  238.1439  333.3251 H   0  0  0  0  0  0  0  0  0  0  0  0  # atno 9342 bound_to 9318
  111.9584  237.2016  331.0957 H   0  0  0  0  0  0  0  0  0  0  0  0  # atno 9375 bound_to 9363
  112.6102  234.9388  330.3203 H   0  0  0  0  0  0  0  0  0  0  0  0  # atno 9412 bound_to 9391
  125.6508  237.6005  325.9480 H   0  0  0  0  0  0  0  0  0  0  0  0  # atno 11075 bound_to 11068
  111.3760  251.8523  328.7353 H   0  0  0  0  0  0  0  0  0  0  0  0  # atno 12897 bound_to 12888
  108.8337  246.5635  336.6071 H   0  0  0  0  0  0  0  0  0  0  0  0  # atno 13469 bound_to 13450
  118.6569  243.7073  318.8446 LP  0  0  0  0  0  0  0  0  0  0  0  0  # atno 13485 bound_to 8425
  117.7901  244.9908  319.6201 LP  0  0  0  0  0  0  0  0  0  0  0  0  # atno 13486 bound_to 8425
  114.8529  243.0938  319.2411 LP  0  0  0  0  0  0  0  0  0  0  0  0  # atno 13487 bound_to 8448
  114.7157  245.8771  319.6114 LP  0  0  0  0  0  0  0  0  0  0  0  0  # atno 13488 bound_to 8470
  116.8794  247.2004  318.6750 LP  0  0  0  0  0  0  0  0  0  0  0  0  # atno 13489 bound_to 8965
  115.7836  247.5412  317.3777 LP  0  0  0  0  0  0  0  0  0  0  0  0  # atno 13490 bound_to 8965
  120.6181  246.0752  318.2542 LP  0  0  0  0  0  0  0  0  0  0  0  0  # atno 13491 bound_to 9017
  122.9431  242.6482  317.8958 LP  0  0  0  0  0  0  0  0  0  0  0  0  # atno 13492 bound_to 9020
  121.3082  242.3857  318.4040 LP  0  0  0  0  0  0  0  0  0  0  0  0  # atno 13493 bound_to 9020
  122.8108  243.4553  319.7454 LP  0  0  0  0  0  0  0  0  0  0  0  0  # atno 13494 bound_to 9041
  123.1001  242.8557  323.8319 LP  0  0  0  0  0  0  0  0  0  0  0  0  # atno 13495 bound_to 9044
  121.5146  243.2560  323.2611 LP  0  0  0  0  0  0  0  0  0  0  0  0  # atno 13496 bound_to 9044
  122.6781  239.8806  322.6518 LP  0  0  0  0  0  0  0  0  0  0  0  0  # atno 13497 bound_to 9087
  124.0083  239.7793  325.9872 LP  0  0  0  0  0  0  0  0  0  0  0  0  # atno 13498 bound_to 9090
  123.5715  239.2383  324.4008 LP  0  0  0  0  0  0  0  0  0  0  0  0  # atno 13499 bound_to 9090
  114.7591  240.4023  322.8559 LP  0  0  0  0  0  0  0  0  0  0  0  0  # atno 13500 bound_to 9098
  114.4525  239.0552  323.7264 LP  0  0  0  0  0  0  0  0  0  0  0  0  # atno 13501 bound_to 9098
  122.0270  241.5614  326.1150 LP  0  0  0  0  0  0  0  0  0  0  0  0  # atno 13502 bound_to 9125
  119.7196  239.7434  328.8127 LP  0  0  0  0  0  0  0  0  0  0  0  0  # atno 13503 bound_to 9128
  119.7801  238.6179  327.4976 LP  0  0  0  0  0  0  0  0  0  0  0  0  # atno 13504 bound_to 9128
  118.6036  238.4660  329.6135 LP  0  0  0  0  0  0  0  0  0  0  0  0  # atno 13505 bound_to 9202
  123.4550  249.2168  327.6652 LP  0  0  0  0  0  0  0  0  0  0  0  0  # atno 13514 bound_to 3592
  118.0609  248.2417  317.4333 LP  0  0  0  0  0  0  0  0  0  0  0  0  # atno 13515 bound_to 8997
  122.2640  246.6159  317.1735 LP  0  0  0  0  0  0  0  0  0  0  0  0  # atno 13516 bound_to 9000
  121.2261  247.9813  317.4151 LP  0  0  0  0  0  0  0  0  0  0  0  0  # atno 13517 bound_to 9000
  120.9005  237.5260  319.5565 LP  0  0  0  0  0  0  0  0  0  0  0  0  # atno 13518 bound_to 8370
  119.9563  238.9709  319.4113 LP  0  0  0  0  0  0  0  0  0  0  0  0  # atno 13519 bound_to 8370
  122.9436  238.3063  329.2839 LP  0  0  0  0  0  0  0  0  0  0  0  0  # atno 13520 bound_to 9155
  125.7603  239.2009  325.2651 LP  0  0  0  0  0  0  0  0  0  0  0  0  # atno 13521 bound_to 11068
  124.3304  238.1170  328.1908 LP  0  0  0  0  0  0  0  0  0  0  0  0  # atno 13522 bound_to 11071
  124.6249  239.5887  329.0553 LP  0  0  0  0  0  0  0  0  0  0  0  0  # atno 13523 bound_to 11071
  125.1192  246.2779  318.3596 LP  0  0  0  0  0  0  0  0  0  0  0  0  # atno 13524 bound_to 4888
  124.7280  247.5685  319.2805 LP  0  0  0  0  0  0  0  0  0  0  0  0  # atno 13525 bound_to 4888
  115.8915  240.4323  317.1266 LP  0  0  0  0  0  0  0  0  0  0  0  0  # atno 13526 bound_to 8388
  115.4890  240.0525  318.7678 LP  0  0  0  0  0  0  0  0  0  0  0  0  # atno 13527 bound_to 8388
  120.3096  246.0977  315.5291 LP  0  0  0  0  0  0  0  0  0  0  0  0  # atno 13528 bound_to 9002
  119.1426  245.5237  314.5416 LP  0  0  0  0  0  0  0  0  0  0  0  0  # atno 13529 bound_to 9002
  113.0470  244.5256  317.3490 LP  0  0  0  0  0  0  0  0  0  0  0  0  # atno 13530 bound_to 8451
  112.3180  245.7199  318.3700 LP  0  0  0  0  0  0  0  0  0  0  0  0  # atno 13531 bound_to 8451
  114.0134  248.8367  317.0219 LP  0  0  0  0  0  0  0  0  0  0  0  0  # atno 13532 bound_to 8473
  113.6966  250.1026  318.1607 LP  0  0  0  0  0  0  0  0  0  0  0  0  # atno 13533 bound_to 8473
  115.4596  250.5735  316.2353 LP  0  0  0  0  0  0  0  0  0  0  0  0  # atno 13534 bound_to 8962
  111.9061  247.4040  318.1558 LP  0  0  0  0  0  0  0  0  0  0  0  0  # atno 13535 bound_to 8501
  123.6118  247.6678  314.8499 LP  0  0  0  0  0  0  0  0  0  0  0  0  # atno 13538 bound_to 4907
  120.2123  248.2467  315.2264 LP  0  0  0  0  0  0  0  0  0  0  0  0  # atno 13539 bound_to 4910
  119.6695  249.8681  315.5029 LP  0  0  0  0  0  0  0  0  0  0  0  0  # atno 13540 bound_to 4910
  109.6948  247.5327  319.2348 LP  0  0  0  0  0  0  0  0  0  0  0  0  # atno 13543 bound_to 5549
  110.1552  246.5420  320.5789 LP  0  0  0  0  0  0  0  0  0  0  0  0  # atno 13544 bound_to 5549
  112.2729  239.4067  322.1308 LP  0  0  0  0  0  0  0  0  0  0  0  0  # atno 13545 bound_to 8344
  111.2428  238.1601  322.3576 LP  0  0  0  0  0  0  0  0  0  0  0  0  # atno 13546 bound_to 8344
  114.3460  238.5585  330.1244 LP  0  0  0  0  0  0  0  0  0  0  0  0  # atno 13547 bound_to 9205
  114.1037  238.6667  328.4128 LP  0  0  0  0  0  0  0  0  0  0  0  0  # atno 13548 bound_to 9205
  107.7195  244.2557  321.7882 LP  0  0  0  0  0  0  0  0  0  0  0  0  # atno 13553 bound_to 5551
  106.9827  243.9613  320.3610 LP  0  0  0  0  0  0  0  0  0  0  0  0  # atno 13554 bound_to 5551
  108.7110  244.7670  319.9291 LP  0  0  0  0  0  0  0  0  0  0  0  0  # atno 13555 bound_to 5571
  111.3320  239.2748  319.2050 LP  0  0  0  0  0  0  0  0  0  0  0  0  # atno 13556 bound_to 5645
  111.8767  240.6667  318.3298 LP  0  0  0  0  0  0  0  0  0  0  0  0  # atno 13557 bound_to 5645
  112.7095  238.2114  329.8802 LP  0  0  0  0  0  0  0  0  0  0  0  0  # atno 13560 bound_to 9363
  117.2123  237.4380  329.2418 LP  0  0  0  0  0  0  0  0  0  0  0  0  # atno 13561 bound_to 9231
  110.2226  237.0821  332.5546 LP  0  0  0  0  0  0  0  0  0  0  0  0  # atno 13562 bound_to 9321
  109.6465  237.6075  331.0079 LP  0  0  0  0  0  0  0  0  0  0  0  0  # atno 13563 bound_to 9321
  106.0734  244.6802  318.7369 LP  0  0  0  0  0  0  0  0  0  0  0  0  # atno 13566 bound_to 5546
  108.2247  243.6137  316.9569 LP  0  0  0  0  0  0  0  0  0  0  0  0  # atno 13567 bound_to 5574
  109.1271  242.3064  316.2666 LP  0  0  0  0  0  0  0  0  0  0  0  0  # atno 13568 bound_to 5574
  111.1256  243.2145  317.1002 LP  0  0  0  0  0  0  0  0  0  0  0  0  # atno 13569 bound_to 5604
  110.3551  250.4136  318.8973 LP  0  0  0  0  0  0  0  0  0  0  0  0  # atno 13570 bound_to 8525
  107.4697  247.6962  317.8411 LP  0  0  0  0  0  0  0  0  0  0  0  0  # atno 13571 bound_to 5523
  106.8056  247.6459  316.2422 LP  0  0  0  0  0  0  0  0  0  0  0  0  # atno 13572 bound_to 5523
  102.6188  242.2006  324.0103 LP  0  0  0  0  0  0  0  0  0  0  0  0  # atno 13573 bound_to 6144
  101.8769  242.3368  325.5695 LP  0  0  0  0  0  0  0  0  0  0  0  0  # atno 13574 bound_to 6144
  110.2449  246.2963  317.1052 LP  0  0  0  0  0  0  0  0  0  0  0  0  # atno 13575 bound_to 8506
  109.3248  246.3757  315.7584 LP  0  0  0  0  0  0  0  0  0  0  0  0  # atno 13576 bound_to 8506
  116.6435  238.4274  332.7232 LP  0  0  0  0  0  0  0  0  0  0  0  0  # atno 13577 bound_to 9175
  116.0198  237.8177  331.2268 LP  0  0  0  0  0  0  0  0  0  0  0  0  # atno 13578 bound_to 9175
  121.0279  239.9610  332.4839 LP  0  0  0  0  0  0  0  0  0  0  0  0  # atno 13579 bound_to 9178
  119.7556  240.7301  333.1593 LP  0  0  0  0  0  0  0  0  0  0  0  0  # atno 13580 bound_to 9178
  114.2962  234.0488  329.9100 LP  0  0  0  0  0  0  0  0  0  0  0  0  # atno 13581 bound_to 9234
  113.6588  235.5750  329.3956 LP  0  0  0  0  0  0  0  0  0  0  0  0  # atno 13582 bound_to 9234
  117.4211  235.0498  329.3588 LP  0  0  0  0  0  0  0  0  0  0  0  0  # atno 13583 bound_to 9265
  116.4388  236.3611  332.1275 LP  0  0  0  0  0  0  0  0  0  0  0  0  # atno 13584 bound_to 9282
  112.1352  236.9491  334.5347 LP  0  0  0  0  0  0  0  0  0  0  0  0  # atno 13585 bound_to 9285
  112.4690  235.3862  333.8669 LP  0  0  0  0  0  0  0  0  0  0  0  0  # atno 13586 bound_to 9285
  113.9569  236.9715  332.0882 LP  0  0  0  0  0  0  0  0  0  0  0  0  # atno 13587 bound_to 9318
  110.9828  235.2103  329.7421 LP  0  0  0  0  0  0  0  0  0  0  0  0  # atno 13588 bound_to 9391
  108.9161  235.2211  330.0043 LP  0  0  0  0  0  0  0  0  0  0  0  0  # atno 13592 bound_to 9366
  109.3950  234.6185  328.4527 LP  0  0  0  0  0  0  0  0  0  0  0  0  # atno 13593 bound_to 9366
  111.0148  252.7893  330.0157 LP  0  0  0  0  0  0  0  0  0  0  0  0  # atno 13594 bound_to 12888
  112.2443  253.1983  329.0219 LP  0  0  0  0  0  0  0  0  0  0  0  0  # atno 13595 bound_to 12888
  109.2661  247.0088  338.1119 LP  0  0  0  0  0  0  0  0  0  0  0  0  # atno 13596 bound_to 13450
  110.3912  246.4527  337.0671 LP  0  0  0  0  0  0  0  0  0  0  0  0  # atno 13597 bound_to 13450

> <Gold.Score>
     Fitness  S(hb_ext) S(vdw_ext)  S(hb_int)    S(int)      intcor
     40.44       0.55      30.13       0.00      -1.54      -0.76

> <Gold.Goldscore.Fitness>
40.4373

> <Gold.Goldscore.Internal.Vdw>
-1.5853

> <Gold.Goldscore.Internal.Torsion>
-0.7131

> <Gold.Goldscore.External.Vdw>
30.1315

> <Gold.Goldscore.Internal.HBond>
0.0000

> <Gold.Goldscore.External.HBond>
0.5465

> <Gold.Goldscore.Internal.Correction>
-0.7585

> <Gold.Goldscore.Hbonds>
donor molecule, donor type, donor heavy atom, donor atom, acceptor molecule, acceptor atom, score
      L1  H     8    22       P1  8965  0.27

> <Gold.Goldscore.Internal.Vdw.Weighted>
-1.5853

> <Gold.Goldscore.Internal.Torsion.Weighted>
-0.7131

> <Gold.Goldscore.External.Vdw.Weighted>
41.4308

> <Gold.Goldscore.Internal.HBond.Weighted>
0.0000

> <Gold.Goldscore.External.HBond.Weighted>
0.5465

> <Gold.Goldscore.Internal.Correction.Weighted>
-0.7585

> <Gold.Rescore>
     Score     S(PLP)   S(hbond)     S(cho)   S(metal)  DE(clash)   DE(tors)     intcor
     36.49     -33.35       0.31       0.00       0.70       0.85       0.57       ----

> <Gold.PLP.Fitness>
36.4881

> <Gold.PLP.PLP>
-33.3489

> <Gold.PLP.part.hbond>
-3.4489

> <Gold.PLP.part.metal>
-0.4350

> <Gold.PLP.part.buried>
16.4915

> <Gold.PLP.part.nonpolar>
-49.0520

> <Gold.PLP.part.repulsive>
2.6088

> <Gold.PLP.ligand.clash>
0.8497

> <Gold.PLP.ligand.torsion>
0.5689

> <Gold.PLP.Chemscore.Hbond>
0.3143

> <Gold.PLP.Chemscore.CHOScore>
0.0000

> <Gold.PLP.Chemscore.Metal>
0.6973

> <Gold.PLP.Chemscore.Internal.Correction>
   9.000000E+99

#       Name:                CT1002167954
#       Creating user name   hitesit
#       Creation time:       Sun Apr 16 22:52:05 2023


#       File generated by GOLD software.
#

@<TRIPOS>MOLECULE
CT1002167954|ligand_prepared|mol2|1|dock3
    29    30     1
SMALL
NO_CHARGES


@<TRIPOS>ATOM
      1 C1         112.6219 243.4645 325.6675 C.3            1 RES1               0.0000
      2 C2         111.8990 244.5448 324.8373 C.ar           1 RES1               0.0000
      3 C3         111.5498 242.7880 326.5167 C.2            1 RES1               0.0000
      4 C4         113.2979 242.5367 324.6640 C.2            1 RES1               0.0000
      5 C5         113.7126 244.0259 326.6091 C.3            1 RES1               0.0000
      6 C6         112.3814 245.8496 324.7988 C.ar           1 RES1               0.0000
      7 C7         110.7523 244.2516 324.1041 C.ar           1 RES1               0.0000
      8 N8         111.1575 241.5325 326.1565 N.am           1 RES1               0.0000
      9 O9         111.0282 243.3627 327.4642 O.2            1 RES1               0.0000
     10 N10        112.8553 241.2421 324.5871 N.am           1 RES1               0.0000
     11 O11        114.1987 242.9196 323.9275 O.2            1 RES1               0.0000
     12 C12        114.4036 242.9633 327.4492 C.3            1 RES1               0.0000
     13 C13        111.7424 246.8254 324.0519 C.ar           1 RES1               0.0000
     14 C14        110.1146 245.2290 323.3580 C.ar           1 RES1               0.0000
     15 C15        111.7952 240.7063 325.2662 C.2            1 RES1               0.0000
     16 C16        110.6089 246.5157 323.3308 C.ar           1 RES1               0.0000
     17 O17        111.4231 239.5478 325.1031 O.2            1 RES1               0.0000
     18 H18        114.4674 244.5447 326.0054 H              1 RES1               0.0000
     19 H19        113.2547 244.7635 327.2797 H              1 RES1               0.0000
     20 H20        113.2707 246.1126 325.3618 H              1 RES1               0.0000
     21 H21        110.3448 243.2464 324.1116 H              1 RES1               0.0000
     22 H22        110.3117 241.1748 326.5890 H              1 RES1               0.0000
     23 H23        113.3633 240.6202 323.9662 H              1 RES1               0.0000
     24 H24        115.1592 243.4106 328.0916 H              1 RES1               0.0000
     25 H25        113.6859 242.4441 328.0810 H              1 RES1               0.0000
     26 H26        114.8914 242.2267 326.8143 H              1 RES1               0.0000
     27 H27        112.1347 247.8368 324.0348 H              1 RES1               0.0000
     28 H28        109.2225 244.9810 322.7925 H              1 RES1               0.0000
     29 H29        110.1087 247.2802 322.7455 H              1 RES1               0.0000
@<TRIPOS>BOND
    1    1    2 1     
    2    1    3 1     
    3    1    4 1     
    4    1    5 1     
    5    2    6 ar    
    6    2    7 ar    
    7    3    8 1     
    8    3    9 2     
    9    4   10 1     
   10    4   11 2     
   11    5   12 1     
   12    5   18 1     
   13    5   19 1     
   14    6   13 ar    
   15    6   20 1     
   16    7   14 ar    
   17    7   21 1     
   18    8   15 1     
   19    8   22 1     
   20   10   15 1     
   21   10   23 1     
   22   12   24 1     
   23   12   25 1     
   24   12   26 1     
   25   13   16 ar    
   26   13   27 1     
   27   14   16 ar    
   28   14   28 1     
   29   15   17 2     
   30   16   29 1     
@<TRIPOS>SUBSTRUCTURE
      1 RES1           1
@<TRIPOS>SET
DONOR_HYDROGENS      STATIC     ATOMS    <user>   **** ""
2 22 23
ATOM$RED        STATIC     ATOMS    COLORGROUP SYSTEM
2 22 23
@<TRIPOS>COMMENT
> <Gold.Version>
2022.3.0

> <Gold.Id.Protein>
unknown|4uh6_clean|pdb

> <Gold.Protein.RotatedTorsions>
[ 8453 8448 8449 8450 ] final   65.64 input   43.75 | X-H torsion
[ 8477 8470 8471 8472 ] final  -91.50 input  101.27 | X-H torsion
[ 9021 9017 9018 9019 ] final  -49.01 input   41.82 | X-H torsion
[ 9055 9041 9042 9043 ] final -129.99 input   38.00 | X-H torsion
[ 9099 9087 9088 9089 ] final   67.85 input   99.63 | X-H torsion
[ 9107 9098 9097 9095 ] final  111.31 input   60.00 | X-H torsion
[ 9133 9125 9126 9127 ] final  142.73 input   87.39 | X-H torsion
[ 9211 9202 9203 9204 ] final -173.93 input  119.00 | X-H torsion
[ 3596 3592 3593 3594 ] final   27.08 input   87.50 | X-H torsion
[ 9003 8997 8998 8999 ] final -151.35 input   29.71 | X-H torsion
[ 9159 9155 9156 9157 ] final  151.89 input  127.29 | X-H torsion
[ 11075 11068 11069 11070 ] final    0.23 input   56.03 | X-H torsion
[ 4893 4888 4887 4884 ] final  -18.43 input   60.01 | X-H torsion
[ 9007 9002 9001 8998 ] final  127.73 input   59.98 | X-H torsion
[ 8973 8962 8963 8964 ] final  128.81 input   50.05 | X-H torsion
[ 8507 8501 8502 8503 ] final   77.78 input   53.62 | X-H torsion
[ 4912 4907 4908 4909 ] final  115.43 input   25.27 | X-H torsion
[ 8353 8344 8343 8341 ] final  161.02 input   59.99 | X-H torsion
[ 5556 5551 5550 5547 ] final  -47.24 input   59.99 | X-H torsion
[ 5580 5571 5572 5573 ] final  146.06 input   51.16 | X-H torsion
[ 9375 9363 9364 9365 ] final  177.55 input  121.73 | X-H torsion
[ 9247 9231 9232 9233 ] final  -61.29 input   97.49 | X-H torsion
[ 5552 5546 5547 5548 ] final  150.57 input   98.49 | X-H torsion
[ 5612 5604 5605 5606 ] final  166.52 input  122.00 | X-H torsion
[ 8533 8525 8526 8527 ] final   28.79 input   68.51 | X-H torsion
[ 8511 8506 8505 8502 ] final  100.40 input   59.98 | X-H torsion
[ 9185 9178 9176 9173 ] final  -89.38 input   60.02 | X-H torsion
[ 9272 9265 9266 9267 ] final   -9.63 input  106.17 | X-H torsion
[ 9298 9282 9283 9284 ] final  -20.20 input   76.97 | X-H torsion
[ 9342 9318 9319 9320 ] final   84.19 input  100.94 | X-H torsion
[ 9412 9391 9392 9393 ] final   45.66 input   95.23 | X-H torsion
[ 12897 12888 12887 12885 ] final -117.61 input   60.01 | X-H torsion
[ 13469 13450 13449 13445 ] final   77.59 input   59.98 | X-H torsion
[ 3570 3563 3564 3565 ] final   -6.46 input   99.66 | X-H torsion
[ 13485 8425 8424 8423 ] final  -72.58 input    0.00 | X-H torsion
[ 13489 8965 8964 8963 ] final   66.45 input    0.00 | X-H torsion
[ 13492 9020 9019 9018 ] final -132.13 input   -0.00 | X-H torsion
[ 13495 9044 9043 9042 ] final -141.57 input    0.00 | X-H torsion
[ 13498 9090 9089 9088 ] final  134.15 input    0.00 | X-H torsion
[ 13503 9128 9127 9126 ] final -102.49 input    0.00 | X-H torsion
[ 13516 9000 8999 8998 ] final   47.28 input    0.00 | X-H torsion
[ 13518 8370 8369 8368 ] final -147.56 input    0.00 | X-H torsion
[ 13522 11071 11070 11069 ] final   17.47 input   -0.00 | X-H torsion
[ 13526 8388 8387 8386 ] final   51.26 input    0.00 | X-H torsion
[ 13530 8451 8450 8449 ] final   85.36 input    0.00 | X-H torsion
[ 13532 8473 8472 8471 ] final  -83.63 input    0.00 | X-H torsion
[ 13539 4910 4909 4908 ] final  127.12 input   -0.00 | X-H torsion
[ 13543 5549 5548 5547 ] final  137.48 input    0.00 | X-H torsion
[ 13547 9205 9204 9203 ] final   54.33 input   -0.00 | X-H torsion
[ 13556 5645 5644 5643 ] final  -10.42 input   -0.00 | X-H torsion
[ 13562 9321 9320 9319 ] final    4.92 input    0.00 | X-H torsion
[ 13567 5574 5573 5572 ] final  -44.45 input    0.00 | X-H torsion
[ 13571 5523 5522 5521 ] final  122.61 input    0.00 | X-H torsion
[ 13573 6144 6143 6142 ] final   35.32 input    0.00 | X-H torsion
[ 13577 9175 9174 9173 ] final  113.51 input    0.00 | X-H torsion
[ 13581 9234 9233 9232 ] final  -18.51 input    0.00 | X-H torsion
[ 13585 9285 9284 9283 ] final   15.14 input    0.00 | X-H torsion
[ 13592 9366 9365 9364 ] final   40.45 input   -0.00 | X-H torsion

> <Gold.Protein.ActiveResidues>
 TRP311  MET341  HIS342  TRP414  ARG419  CYS420  VAL421  GLY422  LEU429  LEU460 
 SER462  ALA463  ILE464  ASN481  SER482  GLN483  LEU484  ILE485  ARG486  ASP500 
 ALA502  ASN503  TRP566  TYR567  GLY568  LEU569  PRO570  ALA571  VAL572  SER573 
 ASN574  MET575  PRO588  PHE589  SER590  GLY591  TRP592  TYR593  MET594  GLY595 
 THR596  GLU597  ILE598  GLY599  VAL600  ARG601  ASP602  TYR603  ASP605  ARG608 
 ILE653  VAL654  TRP683  PRO687  SER691  PHE696  HIS697  TYR711  HEM750  H4B760 

> <Gold.Protein.RotatedAtoms>
  122.4116  249.7050  328.6492 H   0  0  0  0  0  0  0  0  0  0  0  0  # atno 3570 bound_to 3563
  123.9235  249.7029  327.8858 H   0  0  0  0  0  0  0  0  0  0  0  0  # atno 3596 bound_to 3592
  124.8711  246.3492  318.4766 H   0  0  0  0  0  0  0  0  0  0  0  0  # atno 4893 bound_to 4888
  122.7844  247.1327  314.8575 H   0  0  0  0  0  0  0  0  0  0  0  0  # atno 4912 bound_to 4907
  105.4780  245.3274  318.7836 H   0  0  0  0  0  0  0  0  0  0  0  0  # atno 5552 bound_to 5546
  106.5677  243.9217  320.4486 H   0  0  0  0  0  0  0  0  0  0  0  0  # atno 5556 bound_to 5551
  108.6929  244.5759  319.9368 H   0  0  0  0  0  0  0  0  0  0  0  0  # atno 5580 bound_to 5571
  111.5831  244.7574  316.4801 H   0  0  0  0  0  0  0  0  0  0  0  0  # atno 5612 bound_to 5604
  112.2490  239.4623  322.0576 H   0  0  0  0  0  0  0  0  0  0  0  0  # atno 8353 bound_to 8344
  114.9600  242.8728  318.9298 H   0  0  0  0  0  0  0  0  0  0  0  0  # atno 8453 bound_to 8448
  114.2638  245.7778  318.7647 H   0  0  0  0  0  0  0  0  0  0  0  0  # atno 8477 bound_to 8470
  111.0282  247.5137  318.6616 H   0  0  0  0  0  0  0  0  0  0  0  0  # atno 8507 bound_to 8501
  108.7668  247.0856  316.2608 H   0  0  0  0  0  0  0  0  0  0  0  0  # atno 8511 bound_to 8506
  110.2829  250.1709  319.2024 H   0  0  0  0  0  0  0  0  0  0  0  0  # atno 8533 bound_to 8525
  115.4155  250.5218  316.4632 H   0  0  0  0  0  0  0  0  0  0  0  0  # atno 8973 bound_to 8962
  117.8847  248.1090  317.1231 H   0  0  0  0  0  0  0  0  0  0  0  0  # atno 9003 bound_to 8997
  120.0073  244.4498  315.2266 H   0  0  0  0  0  0  0  0  0  0  0  0  # atno 9007 bound_to 9002
  120.4489  244.8239  318.1037 H   0  0  0  0  0  0  0  0  0  0  0  0  # atno 9021 bound_to 9017
  122.2844  243.4396  319.8419 H   0  0  0  0  0  0  0  0  0  0  0  0  # atno 9055 bound_to 9041
  122.4789  239.7141  322.5391 H   0  0  0  0  0  0  0  0  0  0  0  0  # atno 9099 bound_to 9087
  114.8824  239.9899  322.1604 H   0  0  0  0  0  0  0  0  0  0  0  0  # atno 9107 bound_to 9098
  121.7183  241.6831  326.3038 H   0  0  0  0  0  0  0  0  0  0  0  0  # atno 9133 bound_to 9125
  123.1250  238.0539  328.5936 H   0  0  0  0  0  0  0  0  0  0  0  0  # atno 9159 bound_to 9155
  121.0108  239.9306  332.3943 H   0  0  0  0  0  0  0  0  0  0  0  0  # atno 9185 bound_to 9178
  118.6973  239.7368  330.5207 H   0  0  0  0  0  0  0  0  0  0  0  0  # atno 9211 bound_to 9202
  116.1132  238.0930  329.1680 H   0  0  0  0  0  0  0  0  0  0  0  0  # atno 9247 bound_to 9231
  116.1153  235.8750  330.1103 H   0  0  0  0  0  0  0  0  0  0  0  0  # atno 9272 bound_to 9265
  115.3669  235.5259  331.7764 H   0  0  0  0  0  0  0  0  0  0  0  0  # atno 9298 bound_to 9282
  114.5134  237.8857  331.9672 H   0  0  0  0  0  0  0  0  0  0  0  0  # atno 9342 bound_to 9318
  112.4931  238.3755  329.9057 H   0  0  0  0  0  0  0  0  0  0  0  0  # atno 9375 bound_to 9363
  112.1085  235.2477  330.8339 H   0  0  0  0  0  0  0  0  0  0  0  0  # atno 9412 bound_to 9391
  125.1114  238.1077  326.1758 H   0  0  0  0  0  0  0  0  0  0  0  0  # atno 11075 bound_to 11068
  110.8864  252.5333  329.9173 H   0  0  0  0  0  0  0  0  0  0  0  0  # atno 12897 bound_to 12888
  110.0627  246.8311  337.9895 H   0  0  0  0  0  0  0  0  0  0  0  0  # atno 13469 bound_to 13450
  118.1863  244.5414  320.0759 LP  0  0  0  0  0  0  0  0  0  0  0  0  # atno 13485 bound_to 8425
  118.2607  244.1567  318.3888 LP  0  0  0  0  0  0  0  0  0  0  0  0  # atno 13486 bound_to 8425
  116.4402  243.5696  319.5415 LP  0  0  0  0  0  0  0  0  0  0  0  0  # atno 13487 bound_to 8448
  115.3983  247.0540  319.1429 LP  0  0  0  0  0  0  0  0  0  0  0  0  # atno 13488 bound_to 8470
  115.9180  247.2384  317.2771 LP  0  0  0  0  0  0  0  0  0  0  0  0  # atno 13489 bound_to 8965
  116.7451  247.5032  318.7757 LP  0  0  0  0  0  0  0  0  0  0  0  0  # atno 13490 bound_to 8965
  120.2277  246.0104  319.3698 LP  0  0  0  0  0  0  0  0  0  0  0  0  # atno 13491 bound_to 9017
  121.6546  241.9917  318.6521 LP  0  0  0  0  0  0  0  0  0  0  0  0  # atno 13492 bound_to 9020
  122.5967  243.0422  317.6477 LP  0  0  0  0  0  0  0  0  0  0  0  0  # atno 13493 bound_to 9020
  123.1690  243.8607  321.2928 LP  0  0  0  0  0  0  0  0  0  0  0  0  # atno 13494 bound_to 9041
  122.5702  242.5672  324.2115 LP  0  0  0  0  0  0  0  0  0  0  0  0  # atno 13495 bound_to 9044
  122.0445  243.5445  322.8816 LP  0  0  0  0  0  0  0  0  0  0  0  0  # atno 13496 bound_to 9044
  121.8016  241.3212  322.4139 LP  0  0  0  0  0  0  0  0  0  0  0  0  # atno 13497 bound_to 9087
  124.1395  240.1750  325.6228 LP  0  0  0  0  0  0  0  0  0  0  0  0  # atno 13498 bound_to 9090
  123.4402  238.8426  324.7652 LP  0  0  0  0  0  0  0  0  0  0  0  0  # atno 13499 bound_to 9090
  114.5174  239.8734  323.7417 LP  0  0  0  0  0  0  0  0  0  0  0  0  # atno 13500 bound_to 9098
  114.6103  238.5280  322.8209 LP  0  0  0  0  0  0  0  0  0  0  0  0  # atno 13501 bound_to 9098
  121.4124  240.0083  325.9047 LP  0  0  0  0  0  0  0  0  0  0  0  0  # atno 13502 bound_to 9125
  119.6901  239.3504  329.0023 LP  0  0  0  0  0  0  0  0  0  0  0  0  # atno 13503 bound_to 9128
  119.8096  239.0108  327.3080 LP  0  0  0  0  0  0  0  0  0  0  0  0  # atno 13504 bound_to 9128
  118.1493  238.1266  330.1311 LP  0  0  0  0  0  0  0  0  0  0  0  0  # atno 13505 bound_to 9202
  124.1010  248.1231  328.6072 LP  0  0  0  0  0  0  0  0  0  0  0  0  # atno 13514 bound_to 3592
  119.5489  248.2337  316.6226 LP  0  0  0  0  0  0  0  0  0  0  0  0  # atno 13515 bound_to 8997
  121.2317  247.9831  317.4277 LP  0  0  0  0  0  0  0  0  0  0  0  0  # atno 13516 bound_to 9000
  122.2585  246.6140  317.1609 LP  0  0  0  0  0  0  0  0  0  0  0  0  # atno 13517 bound_to 9000
  119.8571  238.8874  319.6078 LP  0  0  0  0  0  0  0  0  0  0  0  0  # atno 13518 bound_to 8370
  120.9997  237.6095  319.3601 LP  0  0  0  0  0  0  0  0  0  0  0  0  # atno 13519 bound_to 8370
  121.6092  238.9107  328.7674 LP  0  0  0  0  0  0  0  0  0  0  0  0  # atno 13520 bound_to 9155
  126.2943  238.6987  325.0395 LP  0  0  0  0  0  0  0  0  0  0  0  0  # atno 13521 bound_to 11068
  124.3790  238.8869  327.7633 LP  0  0  0  0  0  0  0  0  0  0  0  0  # atno 13522 bound_to 11071
  124.5763  238.8188  329.4827 LP  0  0  0  0  0  0  0  0  0  0  0  0  # atno 13523 bound_to 11071
  124.9515  247.7398  319.3186 LP  0  0  0  0  0  0  0  0  0  0  0  0  # atno 13524 bound_to 4888
  126.2770  247.1654  318.5572 LP  0  0  0  0  0  0  0  0  0  0  0  0  # atno 13525 bound_to 4888
  115.7079  239.3767  317.9666 LP  0  0  0  0  0  0  0  0  0  0  0  0  # atno 13526 bound_to 8388
  115.6726  241.1080  317.9278 LP  0  0  0  0  0  0  0  0  0  0  0  0  # atno 13527 bound_to 8388
  120.4014  245.9833  315.6015 LP  0  0  0  0  0  0  0  0  0  0  0  0  # atno 13528 bound_to 9002
  119.1713  245.6820  314.5707 LP  0  0  0  0  0  0  0  0  0  0  0  0  # atno 13529 bound_to 9002
  112.5991  244.5927  318.5393 LP  0  0  0  0  0  0  0  0  0  0  0  0  # atno 13530 bound_to 8451
  112.7659  245.6528  317.1797 LP  0  0  0  0  0  0  0  0  0  0  0  0  # atno 13531 bound_to 8451
  113.7743  250.0684  318.2117 LP  0  0  0  0  0  0  0  0  0  0  0  0  # atno 13532 bound_to 8473
  113.9357  248.8708  316.9709 LP  0  0  0  0  0  0  0  0  0  0  0  0  # atno 13533 bound_to 8473
  115.4276  248.9527  315.6928 LP  0  0  0  0  0  0  0  0  0  0  0  0  # atno 13534 bound_to 8962
  112.3535  248.6473  318.6383 LP  0  0  0  0  0  0  0  0  0  0  0  0  # atno 13535 bound_to 8501
  123.0209  248.6272  315.7287 LP  0  0  0  0  0  0  0  0  0  0  0  0  # atno 13538 bound_to 4907
  119.9450  249.8500  315.7135 LP  0  0  0  0  0  0  0  0  0  0  0  0  # atno 13539 bound_to 4910
  119.9368  248.2647  315.0158 LP  0  0  0  0  0  0  0  0  0  0  0  0  # atno 13540 bound_to 4910
  110.3931  246.4024  320.2643 LP  0  0  0  0  0  0  0  0  0  0  0  0  # atno 13543 bound_to 5549
  109.4569  247.6722  319.5494 LP  0  0  0  0  0  0  0  0  0  0  0  0  # atno 13544 bound_to 5549
  111.3199  238.1738  322.4114 LP  0  0  0  0  0  0  0  0  0  0  0  0  # atno 13545 bound_to 8344
  110.9106  239.1657  321.1804 LP  0  0  0  0  0  0  0  0  0  0  0  0  # atno 13546 bound_to 8344
  114.2003  239.3602  328.8320 LP  0  0  0  0  0  0  0  0  0  0  0  0  # atno 13547 bound_to 9205
  114.2493  237.8651  329.7051 LP  0  0  0  0  0  0  0  0  0  0  0  0  # atno 13548 bound_to 9205
  106.3757  244.1166  322.0528 LP  0  0  0  0  0  0  0  0  0  0  0  0  # atno 13553 bound_to 5551
  107.8634  244.2189  321.3873 LP  0  0  0  0  0  0  0  0  0  0  0  0  # atno 13554 bound_to 5551
  108.3120  245.0912  318.3040 LP  0  0  0  0  0  0  0  0  0  0  0  0  # atno 13555 bound_to 5571
  112.3022  240.1608  318.2910 LP  0  0  0  0  0  0  0  0  0  0  0  0  # atno 13556 bound_to 5645
  110.9065  239.7806  319.2438 LP  0  0  0  0  0  0  0  0  0  0  0  0  # atno 13557 bound_to 5645
  112.1911  237.0731  331.0342 LP  0  0  0  0  0  0  0  0  0  0  0  0  # atno 13560 bound_to 9363
  117.4513  237.6764  328.1189 LP  0  0  0  0  0  0  0  0  0  0  0  0  # atno 13561 bound_to 9231
  110.0329  237.7755  332.5261 LP  0  0  0  0  0  0  0  0  0  0  0  0  # atno 13562 bound_to 9321
  109.8361  236.9142  331.0363 LP  0  0  0  0  0  0  0  0  0  0  0  0  # atno 13563 bound_to 9321
  106.8545  245.4410  317.7153 LP  0  0  0  0  0  0  0  0  0  0  0  0  # atno 13566 bound_to 5546
  108.6475  242.5153  317.3543 LP  0  0  0  0  0  0  0  0  0  0  0  0  # atno 13567 bound_to 5574
  108.7043  243.4048  315.8692 LP  0  0  0  0  0  0  0  0  0  0  0  0  # atno 13568 bound_to 5574
  110.8525  243.2844  317.0744 LP  0  0  0  0  0  0  0  0  0  0  0  0  # atno 13569 bound_to 5604
  109.3804  249.4787  317.8812 LP  0  0  0  0  0  0  0  0  0  0  0  0  # atno 13570 bound_to 8525
  106.6995  248.0578  317.6808 LP  0  0  0  0  0  0  0  0  0  0  0  0  # atno 13571 bound_to 5523
  107.5758  247.2843  316.4025 LP  0  0  0  0  0  0  0  0  0  0  0  0  # atno 13572 bound_to 5523
  102.9219  242.4655  325.2969 LP  0  0  0  0  0  0  0  0  0  0  0  0  # atno 13573 bound_to 6144
  101.5739  242.0718  324.2829 LP  0  0  0  0  0  0  0  0  0  0  0  0  # atno 13574 bound_to 6144
  109.7845  246.8763  317.5138 LP  0  0  0  0  0  0  0  0  0  0  0  0  # atno 13575 bound_to 8506
  109.9917  246.0206  316.1385 LP  0  0  0  0  0  0  0  0  0  0  0  0  # atno 13576 bound_to 8506
  116.2617  238.9673  332.1526 LP  0  0  0  0  0  0  0  0  0  0  0  0  # atno 13577 bound_to 9175
  116.4015  237.2778  331.7974 LP  0  0  0  0  0  0  0  0  0  0  0  0  # atno 13578 bound_to 9175
  119.8384  240.7153  333.2059 LP  0  0  0  0  0  0  0  0  0  0  0  0  # atno 13579 bound_to 9178
  119.5816  240.2195  331.6713 LP  0  0  0  0  0  0  0  0  0  0  0  0  # atno 13580 bound_to 9178
  113.6488  235.4502  329.1686 LP  0  0  0  0  0  0  0  0  0  0  0  0  # atno 13581 bound_to 9234
  114.3062  234.1735  330.1370 LP  0  0  0  0  0  0  0  0  0  0  0  0  # atno 13582 bound_to 9234
  117.2083  234.8721  329.1818 LP  0  0  0  0  0  0  0  0  0  0  0  0  # atno 13583 bound_to 9265
  116.8535  235.6038  332.6880 LP  0  0  0  0  0  0  0  0  0  0  0  0  # atno 13584 bound_to 9282
  112.7810  235.7613  334.7971 LP  0  0  0  0  0  0  0  0  0  0  0  0  # atno 13585 bound_to 9285
  111.8232  236.5740  333.6045 LP  0  0  0  0  0  0  0  0  0  0  0  0  # atno 13586 bound_to 9285
  113.7910  237.2236  333.4142 LP  0  0  0  0  0  0  0  0  0  0  0  0  # atno 13587 bound_to 9318
  111.4720  234.9092  329.2412 LP  0  0  0  0  0  0  0  0  0  0  0  0  # atno 13588 bound_to 9391
  109.2045  235.2727  328.4392 LP  0  0  0  0  0  0  0  0  0  0  0  0  # atno 13592 bound_to 9366
  109.1067  234.5668  330.0179 LP  0  0  0  0  0  0  0  0  0  0  0  0  # atno 13593 bound_to 9366
  112.1417  253.3410  329.2695 LP  0  0  0  0  0  0  0  0  0  0  0  0  # atno 13594 bound_to 12888
  111.6105  251.9607  328.5773 LP  0  0  0  0  0  0  0  0  0  0  0  0  # atno 13595 bound_to 12888
  109.8467  246.3342  336.4546 LP  0  0  0  0  0  0  0  0  0  0  0  0  # atno 13596 bound_to 13450
  108.5735  246.8580  337.3328 LP  0  0  0  0  0  0  0  0  0  0  0  0  # atno 13597 bound_to 13450

> <Gold.Score>
     Fitness  S(hb_ext) S(vdw_ext)  S(hb_int)    S(int)      intcor
     38.32       8.49      22.67       0.00      -1.34      -0.76

> <Gold.Goldscore.Fitness>
38.3197

> <Gold.Goldscore.Internal.Vdw>
-1.7270

> <Gold.Goldscore.Internal.Torsion>
-0.3710

> <Gold.Goldscore.External.Vdw>
22.6675

> <Gold.Goldscore.Internal.HBond>
0.0000

> <Gold.Goldscore.External.HBond>
8.4913

> <Gold.Goldscore.Internal.Correction>
-0.7585

> <Gold.Goldscore.Hbonds>
donor molecule, donor type, donor heavy atom, donor atom, acceptor molecule, acceptor atom, score
      P1  H  5693  5706       L1    17  0.11
      P1  H  9538  9550       L1    17  1.00
      L1  H    10    23       P1  9098  0.91

> <Gold.Goldscore.Internal.Vdw.Weighted>
-1.7270

> <Gold.Goldscore.Internal.Torsion.Weighted>
-0.3710

> <Gold.Goldscore.External.Vdw.Weighted>
31.1679

> <Gold.Goldscore.Internal.HBond.Weighted>
0.0000

> <Gold.Goldscore.External.HBond.Weighted>
8.4913

> <Gold.Goldscore.Internal.Correction.Weighted>
-0.7585

> <Gold.Rescore>
     Score     S(PLP)   S(hbond)     S(cho)   S(metal)  DE(clash)   DE(tors)     intcor
     23.60     -19.07       1.56       0.00       0.00       0.00       0.07       ----

> <Gold.PLP.Fitness>
23.5976

> <Gold.PLP.PLP>
-19.0673

> <Gold.PLP.part.hbond>
-5.7035

> <Gold.PLP.part.metal>
0.0000

> <Gold.PLP.part.buried>
2.1847

> <Gold.PLP.part.nonpolar>
-21.9777

> <Gold.PLP.part.repulsive>
6.3937

> <Gold.PLP.ligand.clash>
0.0000

> <Gold.PLP.ligand.torsion>
0.0709

> <Gold.PLP.Chemscore.Hbond>
1.5574

> <Gold.PLP.Chemscore.CHOScore>
0.0000

> <Gold.PLP.Chemscore.Metal>
0.0000

> <Gold.Chemscore.Hbonds>
donor molecule, donor type, donor heavy atom, donor atom, acceptor molecule, acceptor atom, score
      L1  H    10    23       P1  9098  0.29
      P1  H  9538  9550       L1    17  0.80

> <Gold.PLP.Chemscore.Internal.Correction>
   9.000000E+99

#       Name:                CT1002167954
#       Creating user name   hitesit
#       Creation time:       Sun Apr 16 22:52:08 2023


#       File generated by GOLD software.
#

@<TRIPOS>MOLECULE
CT1002167954|ligand_prepared|mol2|1|dock6
    29    30     1
SMALL
NO_CHARGES


@<TRIPOS>ATOM
      1 C1         113.1224 242.7531 326.2787 C.3            1 RES1               0.0000
      2 C2         114.0725 243.5913 325.3994 C.ar           1 RES1               0.0000
      3 C3         111.7131 243.0121 325.7544 C.2            1 RES1               0.0000
      4 C4         113.5807 241.3053 326.1421 C.2            1 RES1               0.0000
      5 C5         113.1651 243.1282 327.7784 C.3            1 RES1               0.0000
      6 C6         114.5371 243.0948 324.1852 C.ar           1 RES1               0.0000
      7 C7         114.4904 244.8616 325.7871 C.ar           1 RES1               0.0000
      8 N8         111.1127 242.0186 325.0385 N.am           1 RES1               0.0000
      9 O9         111.1525 244.0865 325.9324 O.2            1 RES1               0.0000
     10 N10        112.7322 240.4179 325.5335 N.am           1 RES1               0.0000
     11 O11        114.6758 240.9286 326.5411 O.2            1 RES1               0.0000
     12 C12        112.5079 242.1008 328.6864 C.3            1 RES1               0.0000
     13 C13        115.3862 243.8422 323.3860 C.ar           1 RES1               0.0000
     14 C14        115.3398 245.6073 324.9865 C.ar           1 RES1               0.0000
     15 C15        111.5319 240.7156 324.9480 C.2            1 RES1               0.0000
     16 C16        115.7878 245.0990 323.7858 C.ar           1 RES1               0.0000
     17 O17        110.8505 239.8725 324.3716 O.2            1 RES1               0.0000
     18 H18        114.2122 243.2496 328.0823 H              1 RES1               0.0000
     19 H19        112.6622 244.0935 327.9154 H              1 RES1               0.0000
     20 H20        114.2338 242.1067 323.8551 H              1 RES1               0.0000
     21 H21        114.1515 245.2814 326.7281 H              1 RES1               0.0000
     22 H22        110.2747 242.2675 324.5227 H              1 RES1               0.0000
     23 H23        113.0223 239.4454 325.5153 H              1 RES1               0.0000
     24 H24        112.5656 242.4127 329.7271 H              1 RES1               0.0000
     25 H25        111.4585 241.9733 328.4286 H              1 RES1               0.0000
     26 H26        112.9993 241.1344 328.5945 H              1 RES1               0.0000
     27 H27        115.7371 243.4370 322.4426 H              1 RES1               0.0000
     28 H28        115.6537 246.5957 325.3054 H              1 RES1               0.0000
     29 H29        116.4527 245.6844 323.1594 H              1 RES1               0.0000
@<TRIPOS>BOND
    1    1    2 1     
    2    1    3 1     
    3    1    4 1     
    4    1    5 1     
    5    2    6 ar    
    6    2    7 ar    
    7    3    8 1     
    8    3    9 2     
    9    4   10 1     
   10    4   11 2     
   11    5   12 1     
   12    5   18 1     
   13    5   19 1     
   14    6   13 ar    
   15    6   20 1     
   16    7   14 ar    
   17    7   21 1     
   18    8   15 1     
   19    8   22 1     
   20   10   15 1     
   21   10   23 1     
   22   12   24 1     
   23   12   25 1     
   24   12   26 1     
   25   13   16 ar    
   26   13   27 1     
   27   14   16 ar    
   28   14   28 1     
   29   15   17 2     
   30   16   29 1     
@<TRIPOS>SUBSTRUCTURE
      1 RES1           1
@<TRIPOS>SET
DONOR_HYDROGENS      STATIC     ATOMS    <user>   **** ""
2 22 23
ATOM$RED        STATIC     ATOMS    COLORGROUP SYSTEM
2 22 23
@<TRIPOS>COMMENT
> <Gold.Version>
2022.3.0

> <Gold.Id.Protein>
unknown|4uh6_clean|pdb

> <Gold.Protein.RotatedTorsions>
[ 8453 8448 8449 8450 ] final -136.18 input   43.75 | X-H torsion
[ 8477 8470 8471 8472 ] final -127.77 input  101.27 | X-H torsion
[ 9021 9017 9018 9019 ] final  -79.14 input   41.82 | X-H torsion
[ 9055 9041 9042 9043 ] final -144.84 input   38.00 | X-H torsion
[ 9099 9087 9088 9089 ] final   29.26 input   99.63 | X-H torsion
[ 9107 9098 9097 9095 ] final  -74.92 input   60.00 | X-H torsion
[ 9133 9125 9126 9127 ] final  -92.70 input   87.39 | X-H torsion
[ 9211 9202 9203 9204 ] final  123.31 input  119.00 | X-H torsion
[ 3596 3592 3593 3594 ] final   31.09 input   87.50 | X-H torsion
[ 9003 8997 8998 8999 ] final  142.04 input   29.71 | X-H torsion
[ 9159 9155 9156 9157 ] final -165.22 input  127.29 | X-H torsion
[ 11075 11068 11069 11070 ] final  -52.42 input   56.03 | X-H torsion
[ 4893 4888 4887 4884 ] final -144.05 input   60.01 | X-H torsion
[ 9007 9002 9001 8998 ] final  -83.61 input   59.98 | X-H torsion
[ 8973 8962 8963 8964 ] final   11.91 input   50.05 | X-H torsion
[ 8507 8501 8502 8503 ] final  -56.23 input   53.62 | X-H torsion
[ 4912 4907 4908 4909 ] final  154.49 input   25.27 | X-H torsion
[ 8353 8344 8343 8341 ] final -174.54 input   59.99 | X-H torsion
[ 5556 5551 5550 5547 ] final  -10.30 input   59.99 | X-H torsion
[ 5580 5571 5572 5573 ] final  125.69 input   51.16 | X-H torsion
[ 9375 9363 9364 9365 ] final  152.67 input  121.73 | X-H torsion
[ 9247 9231 9232 9233 ] final -157.11 input   97.49 | X-H torsion
[ 5552 5546 5547 5548 ] final   35.22 input   98.49 | X-H torsion
[ 5612 5604 5605 5606 ] final  119.20 input  122.00 | X-H torsion
[ 8533 8525 8526 8527 ] final   -4.65 input   68.51 | X-H torsion
[ 8511 8506 8505 8502 ] final   31.79 input   59.98 | X-H torsion
[ 9185 9178 9176 9173 ] final  -86.31 input   60.02 | X-H torsion
[ 9272 9265 9266 9267 ] final   41.41 input  106.17 | X-H torsion
[ 9298 9282 9283 9284 ] final -122.77 input   76.97 | X-H torsion
[ 9342 9318 9319 9320 ] final    3.81 input  100.94 | X-H torsion
[ 9412 9391 9392 9393 ] final   62.74 input   95.23 | X-H torsion
[ 12897 12888 12887 12885 ] final   16.26 input   60.01 | X-H torsion
[ 13469 13450 13449 13445 ] final   38.58 input   59.98 | X-H torsion
[ 3570 3563 3564 3565 ] final  -28.62 input   99.66 | X-H torsion
[ 13485 8425 8424 8423 ] final   47.50 input    0.00 | X-H torsion
[ 13489 8965 8964 8963 ] final  -87.49 input    0.00 | X-H torsion
[ 13492 9020 9019 9018 ] final   -0.37 input   -0.00 | X-H torsion
[ 13495 9044 9043 9042 ] final   16.53 input    0.00 | X-H torsion
[ 13498 9090 9089 9088 ] final  -23.21 input    0.00 | X-H torsion
[ 13503 9128 9127 9126 ] final  160.02 input    0.00 | X-H torsion
[ 13516 9000 8999 8998 ] final   24.90 input    0.00 | X-H torsion
[ 13518 8370 8369 8368 ] final  120.52 input    0.00 | X-H torsion
[ 13522 11071 11070 11069 ] final  -15.89 input   -0.00 | X-H torsion
[ 13526 8388 8387 8386 ] final  110.36 input    0.00 | X-H torsion
[ 13530 8451 8450 8449 ] final  154.29 input    0.00 | X-H torsion
[ 13532 8473 8472 8471 ] final  -80.55 input    0.00 | X-H torsion
[ 13539 4910 4909 4908 ] final   37.54 input   -0.00 | X-H torsion
[ 13543 5549 5548 5547 ] final  -56.70 input    0.00 | X-H torsion
[ 13547 9205 9204 9203 ] final   78.32 input   -0.00 | X-H torsion
[ 13556 5645 5644 5643 ] final -142.48 input   -0.00 | X-H torsion
[ 13562 9321 9320 9319 ] final  -22.95 input    0.00 | X-H torsion
[ 13567 5574 5573 5572 ] final  -20.08 input    0.00 | X-H torsion
[ 13571 5523 5522 5521 ] final  161.34 input    0.00 | X-H torsion
[ 13573 6144 6143 6142 ] final -129.74 input    0.00 | X-H torsion
[ 13577 9175 9174 9173 ] final   43.26 input    0.00 | X-H torsion
[ 13581 9234 9233 9232 ] final   -1.81 input    0.00 | X-H torsion
[ 13585 9285 9284 9283 ] final -177.57 input    0.00 | X-H torsion
[ 13592 9366 9365 9364 ] final -104.40 input   -0.00 | X-H torsion

> <Gold.Protein.ActiveResidues>
 TRP311  MET341  HIS342  TRP414  ARG419  CYS420  VAL421  GLY422  LEU429  LEU460 
 SER462  ALA463  ILE464  ASN481  SER482  GLN483  LEU484  ILE485  ARG486  ASP500 
 ALA502  ASN503  TRP566  TYR567  GLY568  LEU569  PRO570  ALA571  VAL572  SER573 
 ASN574  MET575  PRO588  PHE589  SER590  GLY591  TRP592  TYR593  MET594  GLY595 
 THR596  GLU597  ILE598  GLY599  VAL600  ARG601  ASP602  TYR603  ASP605  ARG608 
 ILE653  VAL654  TRP683  PRO687  SER691  PHE696  HIS697  TYR711  HEM750  H4B760 

> <Gold.Protein.RotatedAtoms>
  122.4747  250.0192  328.7662 H   0  0  0  0  0  0  0  0  0  0  0  0  # atno 3570 bound_to 3563
  123.8756  249.6806  327.8540 H   0  0  0  0  0  0  0  0  0  0  0  0  # atno 3596 bound_to 3592
  125.0348  247.7799  319.3150 H   0  0  0  0  0  0  0  0  0  0  0  0  # atno 4893 bound_to 4888
  123.3286  247.3345  314.7582 H   0  0  0  0  0  0  0  0  0  0  0  0  # atno 4912 bound_to 4907
  106.7168  244.6921  318.2557 H   0  0  0  0  0  0  0  0  0  0  0  0  # atno 5552 bound_to 5546
  107.1539  243.9901  320.3889 H   0  0  0  0  0  0  0  0  0  0  0  0  # atno 5556 bound_to 5551
  108.5671  244.3087  319.8216 H   0  0  0  0  0  0  0  0  0  0  0  0  # atno 5580 bound_to 5571
  112.0553  244.2621  316.6718 H   0  0  0  0  0  0  0  0  0  0  0  0  # atno 5612 bound_to 5604
  112.0844  239.6503  321.7499 H   0  0  0  0  0  0  0  0  0  0  0  0  # atno 8353 bound_to 8344
  116.5708  243.3980  319.2902 H   0  0  0  0  0  0  0  0  0  0  0  0  # atno 8453 bound_to 8448
  114.4343  245.7075  319.2847 H   0  0  0  0  0  0  0  0  0  0  0  0  # atno 8477 bound_to 8470
  111.8372  248.8635  319.0269 H   0  0  0  0  0  0  0  0  0  0  0  0  # atno 8507 bound_to 8501
  109.1306  247.2741  317.2339 H   0  0  0  0  0  0  0  0  0  0  0  0  # atno 8511 bound_to 8506
  110.3786  250.4545  318.7972 H   0  0  0  0  0  0  0  0  0  0  0  0  # atno 8533 bound_to 8525
  115.2503  249.0271  316.5873 H   0  0  0  0  0  0  0  0  0  0  0  0  # atno 8973 bound_to 8962
  118.1954  247.8425  316.2549 H   0  0  0  0  0  0  0  0  0  0  0  0  # atno 9003 bound_to 8997
  119.3666  246.0650  314.7480 H   0  0  0  0  0  0  0  0  0  0  0  0  # atno 9007 bound_to 9002
  120.5867  245.2235  317.9189 H   0  0  0  0  0  0  0  0  0  0  0  0  # atno 9021 bound_to 9017
  122.4960  243.4249  319.7530 H   0  0  0  0  0  0  0  0  0  0  0  0  # atno 9055 bound_to 9041
  122.8490  240.0992  322.7786 H   0  0  0  0  0  0  0  0  0  0  0  0  # atno 9099 bound_to 9087
  114.4691  238.8593  323.5905 H   0  0  0  0  0  0  0  0  0  0  0  0  # atno 9107 bound_to 9098
  122.1380  240.3037  325.6849 H   0  0  0  0  0  0  0  0  0  0  0  0  # atno 9133 bound_to 9125
  122.8148  238.1056  328.0251 H   0  0  0  0  0  0  0  0  0  0  0  0  # atno 9159 bound_to 9155
  121.0016  239.9159  332.3472 H   0  0  0  0  0  0  0  0  0  0  0  0  # atno 9185 bound_to 9178
  118.9454  239.3243  329.7423 H   0  0  0  0  0  0  0  0  0  0  0  0  # atno 9211 bound_to 9202
  116.4780  238.3003  327.9154 H   0  0  0  0  0  0  0  0  0  0  0  0  # atno 9247 bound_to 9231
  116.8611  235.9854  330.2470 H   0  0  0  0  0  0  0  0  0  0  0  0  # atno 9272 bound_to 9265
  116.1694  234.7591  332.5846 H   0  0  0  0  0  0  0  0  0  0  0  0  # atno 9298 bound_to 9282
  113.9153  236.9257  332.1188 H   0  0  0  0  0  0  0  0  0  0  0  0  # atno 9342 bound_to 9318
  112.7897  238.1419  329.8433 H   0  0  0  0  0  0  0  0  0  0  0  0  # atno 9375 bound_to 9363
  112.3269  235.1508  330.7244 H   0  0  0  0  0  0  0  0  0  0  0  0  # atno 9412 bound_to 9391
  125.6529  237.5998  325.9466 H   0  0  0  0  0  0  0  0  0  0  0  0  # atno 11075 bound_to 11068
  111.7799  252.0964  328.5110 H   0  0  0  0  0  0  0  0  0  0  0  0  # atno 12897 bound_to 12888
  110.3960  246.6074  337.5099 H   0  0  0  0  0  0  0  0  0  0  0  0  # atno 13469 bound_to 13450
  118.6956  243.6756  318.9611 LP  0  0  0  0  0  0  0  0  0  0  0  0  # atno 13485 bound_to 8425
  117.7514  245.0225  319.5036 LP  0  0  0  0  0  0  0  0  0  0  0  0  # atno 13486 bound_to 8425
  114.8613  243.0547  319.1882 LP  0  0  0  0  0  0  0  0  0  0  0  0  # atno 13487 bound_to 8448
  115.2324  247.1224  318.6369 LP  0  0  0  0  0  0  0  0  0  0  0  0  # atno 13488 bound_to 8470
  116.5153  247.8174  318.7453 LP  0  0  0  0  0  0  0  0  0  0  0  0  # atno 13489 bound_to 8965
  116.1477  246.9242  317.3075 LP  0  0  0  0  0  0  0  0  0  0  0  0  # atno 13490 bound_to 8965
  120.0939  245.6223  319.5492 LP  0  0  0  0  0  0  0  0  0  0  0  0  # atno 13491 bound_to 9017
  121.9052  243.1929  317.6555 LP  0  0  0  0  0  0  0  0  0  0  0  0  # atno 13492 bound_to 9020
  122.3462  241.8409  318.6443 LP  0  0  0  0  0  0  0  0  0  0  0  0  # atno 13493 bound_to 9020
  122.9643  243.8749  321.3788 LP  0  0  0  0  0  0  0  0  0  0  0  0  # atno 13494 bound_to 9041
  122.3712  243.5703  322.8528 LP  0  0  0  0  0  0  0  0  0  0  0  0  # atno 13495 bound_to 9044
  122.2435  242.5413  324.2402 LP  0  0  0  0  0  0  0  0  0  0  0  0  # atno 13496 bound_to 9044
  121.4411  240.9461  322.1806 LP  0  0  0  0  0  0  0  0  0  0  0  0  # atno 13497 bound_to 9087
  123.5051  239.0589  324.5110 LP  0  0  0  0  0  0  0  0  0  0  0  0  # atno 13498 bound_to 9090
  124.0746  239.9588  325.8770 LP  0  0  0  0  0  0  0  0  0  0  0  0  # atno 13499 bound_to 9090
  114.8381  239.1510  322.0328 LP  0  0  0  0  0  0  0  0  0  0  0  0  # atno 13500 bound_to 9098
  114.7059  240.3891  323.0894 LP  0  0  0  0  0  0  0  0  0  0  0  0  # atno 13501 bound_to 9098
  121.0040  241.3507  326.5071 LP  0  0  0  0  0  0  0  0  0  0  0  0  # atno 13502 bound_to 9125
  119.7133  238.3171  328.2103 LP  0  0  0  0  0  0  0  0  0  0  0  0  # atno 13503 bound_to 9128
  119.7864  240.0441  328.1000 LP  0  0  0  0  0  0  0  0  0  0  0  0  # atno 13504 bound_to 9128
  117.9047  238.5332  330.8983 LP  0  0  0  0  0  0  0  0  0  0  0  0  # atno 13505 bound_to 9202
  124.1481  248.1450  328.6385 LP  0  0  0  0  0  0  0  0  0  0  0  0  # atno 13514 bound_to 3592
  119.2403  248.4984  317.4850 LP  0  0  0  0  0  0  0  0  0  0  0  0  # atno 13515 bound_to 8997
  121.1369  247.8897  317.1191 LP  0  0  0  0  0  0  0  0  0  0  0  0  # atno 13516 bound_to 9000
  122.3533  246.7075  317.4695 LP  0  0  0  0  0  0  0  0  0  0  0  0  # atno 13517 bound_to 9000
  120.7374  238.6243  318.7676 LP  0  0  0  0  0  0  0  0  0  0  0  0  # atno 13518 bound_to 8370
  120.1194  237.8726  320.2003 LP  0  0  0  0  0  0  0  0  0  0  0  0  # atno 13519 bound_to 8370
  121.9099  238.8607  329.3185 LP  0  0  0  0  0  0  0  0  0  0  0  0  # atno 13520 bound_to 9155
  125.7583  239.2016  325.2664 LP  0  0  0  0  0  0  0  0  0  0  0  0  # atno 13521 bound_to 11068
  124.4578  239.3532  327.9165 LP  0  0  0  0  0  0  0  0  0  0  0  0  # atno 13522 bound_to 11071
  124.4974  238.3525  329.3296 LP  0  0  0  0  0  0  0  0  0  0  0  0  # atno 13523 bound_to 11071
  126.2680  247.0860  318.5107 LP  0  0  0  0  0  0  0  0  0  0  0  0  # atno 13524 bound_to 4888
  124.7959  246.3792  318.5213 LP  0  0  0  0  0  0  0  0  0  0  0  0  # atno 13525 bound_to 4888
  115.5180  239.8102  318.6776 LP  0  0  0  0  0  0  0  0  0  0  0  0  # atno 13526 bound_to 8388
  115.8625  240.6745  317.2168 LP  0  0  0  0  0  0  0  0  0  0  0  0  # atno 13527 bound_to 8388
  119.6508  244.4731  314.9289 LP  0  0  0  0  0  0  0  0  0  0  0  0  # atno 13528 bound_to 9002
  120.5673  245.5649  315.7255 LP  0  0  0  0  0  0  0  0  0  0  0  0  # atno 13529 bound_to 9002
  112.3177  245.5314  318.5302 LP  0  0  0  0  0  0  0  0  0  0  0  0  # atno 13530 bound_to 8451
  113.0474  244.7140  317.1888 LP  0  0  0  0  0  0  0  0  0  0  0  0  # atno 13531 bound_to 8451
  113.8113  250.0496  318.2330 LP  0  0  0  0  0  0  0  0  0  0  0  0  # atno 13532 bound_to 8473
  113.8987  248.8897  316.9496 LP  0  0  0  0  0  0  0  0  0  0  0  0  # atno 13533 bound_to 8473
  115.5887  250.4092  315.5718 LP  0  0  0  0  0  0  0  0  0  0  0  0  # atno 13534 bound_to 8962
  111.5545  247.3141  318.2774 LP  0  0  0  0  0  0  0  0  0  0  0  0  # atno 13535 bound_to 8501
  122.4861  248.4289  315.8263 LP  0  0  0  0  0  0  0  0  0  0  0  0  # atno 13538 bound_to 4907
  120.6413  248.8549  315.8321 LP  0  0  0  0  0  0  0  0  0  0  0  0  # atno 13539 bound_to 4910
  119.2405  249.2598  314.8972 LP  0  0  0  0  0  0  0  0  0  0  0  0  # atno 13540 bound_to 4910
  109.5670  247.6187  319.3741 LP  0  0  0  0  0  0  0  0  0  0  0  0  # atno 13543 bound_to 5549
  110.2831  246.4560  320.4396 LP  0  0  0  0  0  0  0  0  0  0  0  0  # atno 13544 bound_to 5549
  111.6562  238.3140  322.5743 LP  0  0  0  0  0  0  0  0  0  0  0  0  # atno 13545 bound_to 8344
  110.7401  238.8361  321.3274 LP  0  0  0  0  0  0  0  0  0  0  0  0  # atno 13546 bound_to 8344
  114.1498  239.1188  328.5699 LP  0  0  0  0  0  0  0  0  0  0  0  0  # atno 13547 bound_to 9205
  114.2998  238.1065  329.9673 LP  0  0  0  0  0  0  0  0  0  0  0  0  # atno 13548 bound_to 9205
  106.0376  244.0058  321.5730 LP  0  0  0  0  0  0  0  0  0  0  0  0  # atno 13553 bound_to 5551
  107.6112  244.2608  321.9272 LP  0  0  0  0  0  0  0  0  0  0  0  0  # atno 13554 bound_to 5551
  108.4322  245.3466  318.4141 LP  0  0  0  0  0  0  0  0  0  0  0  0  # atno 13555 bound_to 5571
  111.3696  239.2534  319.1921 LP  0  0  0  0  0  0  0  0  0  0  0  0  # atno 13556 bound_to 5645
  111.8391  240.6880  318.3427 LP  0  0  0  0  0  0  0  0  0  0  0  0  # atno 13557 bound_to 5645
  111.9034  237.2996  331.0947 LP  0  0  0  0  0  0  0  0  0  0  0  0  # atno 13560 bound_to 9363
  117.0986  237.4761  329.3297 LP  0  0  0  0  0  0  0  0  0  0  0  0  # atno 13561 bound_to 9231
  110.1599  237.3884  332.6163 LP  0  0  0  0  0  0  0  0  0  0  0  0  # atno 13562 bound_to 9321
  109.7092  237.3013  330.9462 LP  0  0  0  0  0  0  0  0  0  0  0  0  # atno 13563 bound_to 9321
  105.6379  246.0649  318.2337 LP  0  0  0  0  0  0  0  0  0  0  0  0  # atno 13566 bound_to 5546
  108.4634  242.8196  317.4395 LP  0  0  0  0  0  0  0  0  0  0  0  0  # atno 13567 bound_to 5574
  108.8884  243.1006  315.7841 LP  0  0  0  0  0  0  0  0  0  0  0  0  # atno 13568 bound_to 5574
  110.3925  243.7670  316.8876 LP  0  0  0  0  0  0  0  0  0  0  0  0  # atno 13569 bound_to 5604
  109.2855  249.1977  318.2828 LP  0  0  0  0  0  0  0  0  0  0  0  0  # atno 13570 bound_to 8525
  107.1942  247.8511  317.8869 LP  0  0  0  0  0  0  0  0  0  0  0  0  # atno 13571 bound_to 5523
  107.0811  247.4910  316.1964 LP  0  0  0  0  0  0  0  0  0  0  0  0  # atno 13572 bound_to 5523
  101.4613  242.0855  324.4773 LP  0  0  0  0  0  0  0  0  0  0  0  0  # atno 13573 bound_to 6144
  103.0345  242.4519  325.1024 LP  0  0  0  0  0  0  0  0  0  0  0  0  # atno 13574 bound_to 6144
  110.2734  246.1666  316.8921 LP  0  0  0  0  0  0  0  0  0  0  0  0  # atno 13575 bound_to 8506
  109.1367  246.5406  315.7809 LP  0  0  0  0  0  0  0  0  0  0  0  0  # atno 13576 bound_to 8506
  116.6822  238.2888  332.7492 LP  0  0  0  0  0  0  0  0  0  0  0  0  # atno 13577 bound_to 9175
  115.9811  237.9564  331.2007 LP  0  0  0  0  0  0  0  0  0  0  0  0  # atno 13578 bound_to 9175
  119.8833  240.7057  333.2271 LP  0  0  0  0  0  0  0  0  0  0  0  0  # atno 13579 bound_to 9178
  119.5459  240.2439  331.6975 LP  0  0  0  0  0  0  0  0  0  0  0  0  # atno 13580 bound_to 9178
  113.6672  235.2744  328.9897 LP  0  0  0  0  0  0  0  0  0  0  0  0  # atno 13581 bound_to 9234
  114.2878  234.3493  330.3159 LP  0  0  0  0  0  0  0  0  0  0  0  0  # atno 13582 bound_to 9234
  116.4866  234.7654  329.0496 LP  0  0  0  0  0  0  0  0  0  0  0  0  # atno 13583 bound_to 9265
  116.0639  236.3582  331.8928 LP  0  0  0  0  0  0  0  0  0  0  0  0  # atno 13584 bound_to 9282
  111.8257  236.7177  333.7312 LP  0  0  0  0  0  0  0  0  0  0  0  0  # atno 13585 bound_to 9285
  112.7784  235.6176  334.6704 LP  0  0  0  0  0  0  0  0  0  0  0  0  # atno 13586 bound_to 9285
  114.3750  238.1611  333.2661 LP  0  0  0  0  0  0  0  0  0  0  0  0  # atno 13587 bound_to 9318
  111.2590  235.0036  329.3480 LP  0  0  0  0  0  0  0  0  0  0  0  0  # atno 13588 bound_to 9391
  108.9519  235.0648  330.0577 LP  0  0  0  0  0  0  0  0  0  0  0  0  # atno 13592 bound_to 9366
  109.3592  234.7748  328.3994 LP  0  0  0  0  0  0  0  0  0  0  0  0  # atno 13593 bound_to 9366
  110.8286  252.3431  329.8080 LP  0  0  0  0  0  0  0  0  0  0  0  0  # atno 13594 bound_to 12888
  112.0236  253.3988  329.4555 LP  0  0  0  0  0  0  0  0  0  0  0  0  # atno 13595 bound_to 12888
  109.2261  246.4200  336.3938 LP  0  0  0  0  0  0  0  0  0  0  0  0  # atno 13596 bound_to 13450
  108.8587  246.9974  337.8764 LP  0  0  0  0  0  0  0  0  0  0  0  0  # atno 13597 bound_to 13450

> <Gold.Score>
     Fitness  S(hb_ext) S(vdw_ext)  S(hb_int)    S(int)      intcor
     38.03       5.37      24.00       0.00      -0.34      -0.76

> <Gold.Goldscore.Fitness>
38.0343

> <Gold.Goldscore.Internal.Vdw>
-0.4207

> <Gold.Goldscore.Internal.Torsion>
-0.6786

> <Gold.Goldscore.External.Vdw>
24.0035

> <Gold.Goldscore.Internal.HBond>
0.0000

> <Gold.Goldscore.External.HBond>
5.3703

> <Gold.Goldscore.Internal.Correction>
-0.7585

> <Gold.Goldscore.Hbonds>
donor molecule, donor type, donor heavy atom, donor atom, acceptor molecule, acceptor atom, score
      P1  H  5690  5702       L1    17  0.26
      P1  H  5693  5706       L1    17  0.34
      P1  H  9538  9550       L1    17  0.07
      L1  H    10    23       P1  9370  0.23

> <Gold.Goldscore.Internal.Vdw.Weighted>
-0.4207

> <Gold.Goldscore.Internal.Torsion.Weighted>
-0.6786

> <Gold.Goldscore.External.Vdw.Weighted>
33.0049

> <Gold.Goldscore.Internal.HBond.Weighted>
0.0000

> <Gold.Goldscore.External.HBond.Weighted>
5.3703

> <Gold.Goldscore.Internal.Correction.Weighted>
-0.7585

> <Gold.Rescore>
     Score     S(PLP)   S(hbond)     S(cho)   S(metal)  DE(clash)   DE(tors)     intcor
     27.95     -24.12       2.10       0.00       0.00       0.07       1.21       ----

> <Gold.PLP.Fitness>
27.9479

> <Gold.PLP.PLP>
-24.1240

> <Gold.PLP.part.hbond>
-5.3993

> <Gold.PLP.part.metal>
0.0000

> <Gold.PLP.part.buried>
6.4576

> <Gold.PLP.part.nonpolar>
-31.0542

> <Gold.PLP.part.repulsive>
5.7510

> <Gold.PLP.ligand.clash>
0.0726

> <Gold.PLP.ligand.torsion>
1.2060

> <Gold.PLP.Chemscore.Hbond>
2.1028

> <Gold.PLP.Chemscore.CHOScore>
0.0000

> <Gold.PLP.Chemscore.Metal>
0.0000

> <Gold.Chemscore.Hbonds>
donor molecule, donor type, donor heavy atom, donor atom, acceptor molecule, acceptor atom, score
      L1  H    10    23       P1  9370  0.74
      P1  H  5690  5702       L1    17  0.42
      P1  H  5693  5706       L1    17  0.27
      P1  H  9538  9550       L1    17  0.37

> <Gold.PLP.Chemscore.Internal.Correction>
   9.000000E+99

#       Name:                CT1002167954
#       Creating user name   hitesit
#       Creation time:       Sun Apr 16 22:52:09 2023


#       File generated by GOLD software.
#

@<TRIPOS>MOLECULE
CT1002167954|ligand_prepared|mol2|1|dock7
    29    30     1
SMALL
NO_CHARGES


@<TRIPOS>ATOM
      1 C1         112.5249 243.5295 325.7012 C.3            1 RES1               0.0000
      2 C2         111.7768 244.6241 324.9131 C.ar           1 RES1               0.0000
      3 C3         111.4790 242.8360 326.5693 C.2            1 RES1               0.0000
      4 C4         113.1714 242.6214 324.6611 C.2            1 RES1               0.0000
      5 C5         113.6427 244.0748 326.6202 C.3            1 RES1               0.0000
      6 C6         110.8624 244.2832 323.9209 C.ar           1 RES1               0.0000
      7 C7         111.9881 245.9764 325.1683 C.ar           1 RES1               0.0000
      8 N8         111.0771 241.5869 326.1977 N.am           1 RES1               0.0000
      9 O9         110.9855 243.3925 327.5424 O.2            1 RES1               0.0000
     10 N10        112.7277 241.3278 324.5734 N.am           1 RES1               0.0000
     11 O11        114.0495 243.0189 323.9053 O.2            1 RES1               0.0000
     12 C12        114.5229 242.9918 327.2240 C.3            1 RES1               0.0000
     13 C13        110.1817 245.2588 323.2115 C.ar           1 RES1               0.0000
     14 C14        111.3065 246.9504 324.4576 C.ar           1 RES1               0.0000
     15 C15        111.6886 240.7782 325.2737 C.2            1 RES1               0.0000
     16 C16        110.4029 246.5929 323.4796 C.ar           1 RES1               0.0000
     17 O17        111.3128 239.6224 325.1004 O.2            1 RES1               0.0000
     18 H18        114.2735 244.7601 326.0406 H              1 RES1               0.0000
     19 H19        113.1824 244.6496 327.4333 H              1 RES1               0.0000
     20 H20        110.6771 243.2385 323.6942 H              1 RES1               0.0000
     21 H21        112.6951 246.2810 325.9325 H              1 RES1               0.0000
     22 H22        110.2449 241.2202 326.6485 H              1 RES1               0.0000
     23 H23        113.2175 240.7182 323.9263 H              1 RES1               0.0000
     24 H24        115.2903 243.4284 327.8598 H              1 RES1               0.0000
     25 H25        113.9318 242.3066 327.8280 H              1 RES1               0.0000
     26 H26        115.0165 242.4164 326.4435 H              1 RES1               0.0000
     27 H27        109.4727 244.9722 322.4419 H              1 RES1               0.0000
     28 H28        111.4842 247.9992 324.6715 H              1 RES1               0.0000
     29 H29        109.8693 247.3569 322.9241 H              1 RES1               0.0000
@<TRIPOS>BOND
    1    1    2 1     
    2    1    3 1     
    3    1    4 1     
    4    1    5 1     
    5    2    6 ar    
    6    2    7 ar    
    7    3    8 1     
    8    3    9 2     
    9    4   10 1     
   10    4   11 2     
   11    5   12 1     
   12    5   18 1     
   13    5   19 1     
   14    6   13 ar    
   15    6   20 1     
   16    7   14 ar    
   17    7   21 1     
   18    8   15 1     
   19    8   22 1     
   20   10   15 1     
   21   10   23 1     
   22   12   24 1     
   23   12   25 1     
   24   12   26 1     
   25   13   16 ar    
   26   13   27 1     
   27   14   16 ar    
   28   14   28 1     
   29   15   17 2     
   30   16   29 1     
@<TRIPOS>SUBSTRUCTURE
      1 RES1           1
@<TRIPOS>SET
DONOR_HYDROGENS      STATIC     ATOMS    <user>   **** ""
2 22 23
ATOM$RED        STATIC     ATOMS    COLORGROUP SYSTEM
2 22 23
@<TRIPOS>COMMENT
> <Gold.Version>
2022.3.0

> <Gold.Id.Protein>
unknown|4uh6_clean|pdb

> <Gold.Protein.RotatedTorsions>
[ 8453 8448 8449 8450 ] final  -93.20 input   43.75 | X-H torsion
[ 8477 8470 8471 8472 ] final -118.02 input  101.27 | X-H torsion
[ 9021 9017 9018 9019 ] final -153.00 input   41.82 | X-H torsion
[ 9055 9041 9042 9043 ] final  -76.22 input   38.00 | X-H torsion
[ 9099 9087 9088 9089 ] final -136.30 input   99.63 | X-H torsion
[ 9107 9098 9097 9095 ] final  100.45 input   60.00 | X-H torsion
[ 9133 9125 9126 9127 ] final -161.25 input   87.39 | X-H torsion
[ 9211 9202 9203 9204 ] final  136.43 input  119.00 | X-H torsion
[ 3596 3592 3593 3594 ] final  -76.88 input   87.50 | X-H torsion
[ 9003 8997 8998 8999 ] final   50.78 input   29.71 | X-H torsion
[ 9159 9155 9156 9157 ] final  166.87 input  127.29 | X-H torsion
[ 11075 11068 11069 11070 ] final  146.35 input   56.03 | X-H torsion
[ 4893 4888 4887 4884 ] final  -12.78 input   60.01 | X-H torsion
[ 9007 9002 9001 8998 ] final  -90.25 input   59.98 | X-H torsion
[ 8973 8962 8963 8964 ] final   69.78 input   50.05 | X-H torsion
[ 8507 8501 8502 8503 ] final   29.66 input   53.62 | X-H torsion
[ 4912 4907 4908 4909 ] final   52.06 input   25.27 | X-H torsion
[ 8353 8344 8343 8341 ] final   30.10 input   59.99 | X-H torsion
[ 5556 5551 5550 5547 ] final  158.03 input   59.99 | X-H torsion
[ 5580 5571 5572 5573 ] final -124.71 input   51.16 | X-H torsion
[ 9375 9363 9364 9365 ] final   96.43 input  121.73 | X-H torsion
[ 9247 9231 9232 9233 ] final  -23.51 input   97.49 | X-H torsion
[ 5552 5546 5547 5548 ] final   82.91 input   98.49 | X-H torsion
[ 5612 5604 5605 5606 ] final  -69.36 input  122.00 | X-H torsion
[ 8533 8525 8526 8527 ] final  137.18 input   68.51 | X-H torsion
[ 8511 8506 8505 8502 ] final  121.69 input   59.98 | X-H torsion
[ 9185 9178 9176 9173 ] final  -57.03 input   60.02 | X-H torsion
[ 9272 9265 9266 9267 ] final -102.39 input  106.17 | X-H torsion
[ 9298 9282 9283 9284 ] final  -51.34 input   76.97 | X-H torsion
[ 9342 9318 9319 9320 ] final  -79.46 input  100.94 | X-H torsion
[ 9412 9391 9392 9393 ] final  173.61 input   95.23 | X-H torsion
[ 12897 12888 12887 12885 ] final  -31.98 input   60.01 | X-H torsion
[ 13469 13450 13449 13445 ] final  152.28 input   59.98 | X-H torsion
[ 3570 3563 3564 3565 ] final   82.17 input   99.66 | X-H torsion
[ 13485 8425 8424 8423 ] final  -38.54 input    0.00 | X-H torsion
[ 13489 8965 8964 8963 ] final   85.15 input    0.00 | X-H torsion
[ 13492 9020 9019 9018 ] final  130.13 input   -0.00 | X-H torsion
[ 13495 9044 9043 9042 ] final   27.45 input    0.00 | X-H torsion
[ 13498 9090 9089 9088 ] final   37.40 input    0.00 | X-H torsion
[ 13503 9128 9127 9126 ] final  -79.65 input    0.00 | X-H torsion
[ 13516 9000 8999 8998 ] final   78.06 input    0.00 | X-H torsion
[ 13518 8370 8369 8368 ] final   99.24 input    0.00 | X-H torsion
[ 13522 11071 11070 11069 ] final  130.08 input   -0.00 | X-H torsion
[ 13526 8388 8387 8386 ] final  -92.23 input    0.00 | X-H torsion
[ 13530 8451 8450 8449 ] final  -47.18 input    0.00 | X-H torsion
[ 13532 8473 8472 8471 ] final -131.70 input    0.00 | X-H torsion
[ 13539 4910 4909 4908 ] final   25.71 input   -0.00 | X-H torsion
[ 13543 5549 5548 5547 ] final  -89.49 input    0.00 | X-H torsion
[ 13547 9205 9204 9203 ] final   -3.75 input   -0.00 | X-H torsion
[ 13556 5645 5644 5643 ] final  -78.40 input   -0.00 | X-H torsion
[ 13562 9321 9320 9319 ] final  142.36 input    0.00 | X-H torsion
[ 13567 5574 5573 5572 ] final   93.22 input    0.00 | X-H torsion
[ 13571 5523 5522 5521 ] final   85.88 input    0.00 | X-H torsion
[ 13573 6144 6143 6142 ] final  178.54 input    0.00 | X-H torsion
[ 13577 9175 9174 9173 ] final   10.26 input    0.00 | X-H torsion
[ 13581 9234 9233 9232 ] final   64.65 input    0.00 | X-H torsion
[ 13585 9285 9284 9283 ] final   29.80 input    0.00 | X-H torsion
[ 13592 9366 9365 9364 ] final  114.01 input   -0.00 | X-H torsion

> <Gold.Protein.ActiveResidues>
 TRP311  MET341  HIS342  TRP414  ARG419  CYS420  VAL421  GLY422  LEU429  LEU460 
 SER462  ALA463  ILE464  ASN481  SER482  GLN483  LEU484  ILE485  ARG486  ASP500 
 ALA502  ASN503  TRP566  TYR567  GLY568  LEU569  PRO570  ALA571  VAL572  SER573 
 ASN574  MET575  PRO588  PHE589  SER590  GLY591  TRP592  TYR593  MET594  GLY595 
 THR596  GLU597  ILE598  GLY599  VAL600  ARG601  ASP602  TYR603  ASP605  ARG608 
 ILE653  VAL654  TRP683  PRO687  SER691  PHE696  HIS697  TYR711  HEM750  H4B760 

> <Gold.Protein.RotatedAtoms>
  121.7927  248.8317  329.2751 H   0  0  0  0  0  0  0  0  0  0  0  0  # atno 3570 bound_to 3563
  124.6988  248.9972  328.7938 H   0  0  0  0  0  0  0  0  0  0  0  0  # atno 3596 bound_to 3592
  124.9483  246.3203  318.4351 H   0  0  0  0  0  0  0  0  0  0  0  0  # atno 4893 bound_to 4888
  122.1169  247.5003  315.3817 H   0  0  0  0  0  0  0  0  0  0  0  0  # atno 4912 bound_to 4907
  106.1619  244.6295  318.6981 H   0  0  0  0  0  0  0  0  0  0  0  0  # atno 5552 bound_to 5546
  106.9021  244.2115  322.2216 H   0  0  0  0  0  0  0  0  0  0  0  0  # atno 5556 bound_to 5551
  108.8486  245.6439  319.2875 H   0  0  0  0  0  0  0  0  0  0  0  0  # atno 5580 bound_to 5571
  110.3394  243.8767  316.8346 H   0  0  0  0  0  0  0  0  0  0  0  0  # atno 5612 bound_to 5604
  111.1796  238.1586  322.3014 H   0  0  0  0  0  0  0  0  0  0  0  0  # atno 8353 bound_to 8344
  116.2402  243.7017  319.7550 H   0  0  0  0  0  0  0  0  0  0  0  0  # atno 8453 bound_to 8448
  114.3691  245.6980  319.1493 H   0  0  0  0  0  0  0  0  0  0  0  0  # atno 8477 bound_to 8470
  110.9144  248.1036  319.0503 H   0  0  0  0  0  0  0  0  0  0  0  0  # atno 8507 bound_to 8501
  108.8610  246.8785  315.9999 H   0  0  0  0  0  0  0  0  0  0  0  0  # atno 8511 bound_to 8506
  109.4031  249.1183  318.8351 H   0  0  0  0  0  0  0  0  0  0  0  0  # atno 8533 bound_to 8525
  115.2466  249.8092  316.9370 H   0  0  0  0  0  0  0  0  0  0  0  0  # atno 8973 bound_to 8962
  119.4109  248.1191  316.3398 H   0  0  0  0  0  0  0  0  0  0  0  0  # atno 9003 bound_to 8997
  119.3092  245.9880  314.6977 H   0  0  0  0  0  0  0  0  0  0  0  0  # atno 9007 bound_to 9002
  120.6119  246.1852  318.3787 H   0  0  0  0  0  0  0  0  0  0  0  0  # atno 9021 bound_to 9017
  121.8497  243.5907  320.5021 H   0  0  0  0  0  0  0  0  0  0  0  0  # atno 9055 bound_to 9041
  121.5266  241.1339  322.2602 H   0  0  0  0  0  0  0  0  0  0  0  0  # atno 9099 bound_to 9087
  114.8686  240.1257  322.2731 H   0  0  0  0  0  0  0  0  0  0  0  0  # atno 9107 bound_to 9098
  122.3147  241.2611  325.9049 H   0  0  0  0  0  0  0  0  0  0  0  0  # atno 9133 bound_to 9125
  123.0594  238.0447  328.3716 H   0  0  0  0  0  0  0  0  0  0  0  0  # atno 9159 bound_to 9155
  120.7976  239.8337  331.9281 H   0  0  0  0  0  0  0  0  0  0  0  0  # atno 9185 bound_to 9178
  118.9405  239.4746  329.8755 H   0  0  0  0  0  0  0  0  0  0  0  0  # atno 9211 bound_to 9202
  116.4878  237.7691  329.4630 H   0  0  0  0  0  0  0  0  0  0  0  0  # atno 9247 bound_to 9231
  116.0038  234.9447  329.2271 H   0  0  0  0  0  0  0  0  0  0  0  0  # atno 9272 bound_to 9265
  115.4159  235.1004  331.9755 H   0  0  0  0  0  0  0  0  0  0  0  0  # atno 9298 bound_to 9282
  113.7087  237.0376  333.2699 H   0  0  0  0  0  0  0  0  0  0  0  0  # atno 9342 bound_to 9318
  113.0906  237.4093  330.1150 H   0  0  0  0  0  0  0  0  0  0  0  0  # atno 9375 bound_to 9363
  112.2113  234.7256  329.3347 H   0  0  0  0  0  0  0  0  0  0  0  0  # atno 9412 bound_to 9391
  125.9746  239.0850  325.1227 H   0  0  0  0  0  0  0  0  0  0  0  0  # atno 11075 bound_to 11068
  111.1901  251.8172  328.9104 H   0  0  0  0  0  0  0  0  0  0  0  0  # atno 12897 bound_to 12888
  108.9411  247.0067  337.9386 H   0  0  0  0  0  0  0  0  0  0  0  0  # atno 13469 bound_to 13450
  118.4860  244.1350  320.0294 LP  0  0  0  0  0  0  0  0  0  0  0  0  # atno 13485 bound_to 8425
  117.9610  244.5630  318.4353 LP  0  0  0  0  0  0  0  0  0  0  0  0  # atno 13486 bound_to 8425
  115.1853  242.7571  318.7326 LP  0  0  0  0  0  0  0  0  0  0  0  0  # atno 13487 bound_to 8448
  115.2959  247.1316  318.7686 LP  0  0  0  0  0  0  0  0  0  0  0  0  # atno 13488 bound_to 8470
  116.0769  247.0062  317.2833 LP  0  0  0  0  0  0  0  0  0  0  0  0  # atno 13489 bound_to 8965
  116.5862  247.7354  318.7695 LP  0  0  0  0  0  0  0  0  0  0  0  0  # atno 13490 bound_to 8965
  120.0694  244.6881  319.1027 LP  0  0  0  0  0  0  0  0  0  0  0  0  # atno 13491 bound_to 9017
  122.8988  242.1544  318.2946 LP  0  0  0  0  0  0  0  0  0  0  0  0  # atno 13492 bound_to 9020
  121.3526  242.8794  318.0052 LP  0  0  0  0  0  0  0  0  0  0  0  0  # atno 13493 bound_to 9020
  123.5894  243.7145  320.6542 LP  0  0  0  0  0  0  0  0  0  0  0  0  # atno 13494 bound_to 9041
  122.2065  243.5667  322.8546 LP  0  0  0  0  0  0  0  0  0  0  0  0  # atno 13495 bound_to 9044
  122.4082  242.5449  324.2385 LP  0  0  0  0  0  0  0  0  0  0  0  0  # atno 13496 bound_to 9044
  122.7293  239.9382  322.6855 LP  0  0  0  0  0  0  0  0  0  0  0  0  # atno 13497 bound_to 9087
  123.8468  239.8559  324.4026 LP  0  0  0  0  0  0  0  0  0  0  0  0  # atno 13498 bound_to 9090
  123.7329  239.1618  325.9854 LP  0  0  0  0  0  0  0  0  0  0  0  0  # atno 13499 bound_to 9090
  114.4906  239.7067  323.7992 LP  0  0  0  0  0  0  0  0  0  0  0  0  # atno 13500 bound_to 9098
  114.6510  238.5579  322.6498 LP  0  0  0  0  0  0  0  0  0  0  0  0  # atno 13501 bound_to 9098
  120.8320  240.4190  326.2929 LP  0  0  0  0  0  0  0  0  0  0  0  0  # atno 13502 bound_to 9125
  119.7122  239.6665  328.8711 LP  0  0  0  0  0  0  0  0  0  0  0  0  # atno 13503 bound_to 9128
  119.7875  238.6948  327.4392 LP  0  0  0  0  0  0  0  0  0  0  0  0  # atno 13504 bound_to 9128
  117.9095  238.3851  330.7670 LP  0  0  0  0  0  0  0  0  0  0  0  0  # atno 13505 bound_to 9202
  123.3386  248.8170  327.7144 LP  0  0  0  0  0  0  0  0  0  0  0  0  # atno 13514 bound_to 3592
  118.0329  248.2237  317.4007 LP  0  0  0  0  0  0  0  0  0  0  0  0  # atno 13515 bound_to 8997
  121.4835  247.9431  317.8102 LP  0  0  0  0  0  0  0  0  0  0  0  0  # atno 13516 bound_to 9000
  122.0067  246.6541  316.7784 LP  0  0  0  0  0  0  0  0  0  0  0  0  # atno 13517 bound_to 9000
  120.9200  238.3621  318.7801 LP  0  0  0  0  0  0  0  0  0  0  0  0  # atno 13518 bound_to 8370
  119.9368  238.1348  320.1878 LP  0  0  0  0  0  0  0  0  0  0  0  0  # atno 13519 bound_to 8370
  121.6728  238.9197  328.9826 LP  0  0  0  0  0  0  0  0  0  0  0  0  # atno 13520 bound_to 9155
  125.4397  237.7312  326.0822 LP  0  0  0  0  0  0  0  0  0  0  0  0  # atno 13521 bound_to 11068
  124.4105  238.0475  328.9342 LP  0  0  0  0  0  0  0  0  0  0  0  0  # atno 13522 bound_to 11071
  124.5448  239.6583  328.3119 LP  0  0  0  0  0  0  0  0  0  0  0  0  # atno 13523 bound_to 11071
  124.8735  247.6899  319.3114 LP  0  0  0  0  0  0  0  0  0  0  0  0  # atno 13524 bound_to 4888
  126.2773  247.2443  318.6061 LP  0  0  0  0  0  0  0  0  0  0  0  0  # atno 13525 bound_to 4888
  115.8018  240.9295  317.4321 LP  0  0  0  0  0  0  0  0  0  0  0  0  # atno 13526 bound_to 8388
  115.5787  239.5552  318.4623 LP  0  0  0  0  0  0  0  0  0  0  0  0  # atno 13527 bound_to 8388
  119.7325  244.4454  314.9958 LP  0  0  0  0  0  0  0  0  0  0  0  0  # atno 13528 bound_to 9002
  120.5435  245.6702  315.7092 LP  0  0  0  0  0  0  0  0  0  0  0  0  # atno 13529 bound_to 9002
  113.0033  245.0078  317.0633 LP  0  0  0  0  0  0  0  0  0  0  0  0  # atno 13530 bound_to 8451
  112.3617  245.2376  318.6557 LP  0  0  0  0  0  0  0  0  0  0  0  0  # atno 13531 bound_to 8451
  113.2912  250.1179  317.7002 LP  0  0  0  0  0  0  0  0  0  0  0  0  # atno 13532 bound_to 8473
  114.4188  248.8214  317.4824 LP  0  0  0  0  0  0  0  0  0  0  0  0  # atno 13533 bound_to 8473
  115.5923  249.6471  315.2311 LP  0  0  0  0  0  0  0  0  0  0  0  0  # atno 13534 bound_to 8962
  112.4659  248.0647  318.2543 LP  0  0  0  0  0  0  0  0  0  0  0  0  # atno 13535 bound_to 8501
  123.6770  248.2659  315.2134 LP  0  0  0  0  0  0  0  0  0  0  0  0  # atno 13538 bound_to 4907
  120.6266  248.6964  315.7513 LP  0  0  0  0  0  0  0  0  0  0  0  0  # atno 13539 bound_to 4910
  119.2552  249.4183  314.9780 LP  0  0  0  0  0  0  0  0  0  0  0  0  # atno 13540 bound_to 4910
  109.8914  247.3683  319.1073 LP  0  0  0  0  0  0  0  0  0  0  0  0  # atno 13543 bound_to 5549
  109.9586  246.7063  320.7064 LP  0  0  0  0  0  0  0  0  0  0  0  0  # atno 13544 bound_to 5549
  111.0232  239.3030  321.1548 LP  0  0  0  0  0  0  0  0  0  0  0  0  # atno 13545 bound_to 8344
  112.2840  239.3490  322.1916 LP  0  0  0  0  0  0  0  0  0  0  0  0  # atno 13546 bound_to 8344
  114.3217  239.3771  329.6638 LP  0  0  0  0  0  0  0  0  0  0  0  0  # atno 13547 bound_to 9205
  114.1279  237.8481  328.8734 LP  0  0  0  0  0  0  0  0  0  0  0  0  # atno 13548 bound_to 9205
  107.7604  244.1297  320.8413 LP  0  0  0  0  0  0  0  0  0  0  0  0  # atno 13553 bound_to 5551
  106.1419  243.9141  320.8137 LP  0  0  0  0  0  0  0  0  0  0  0  0  # atno 13554 bound_to 5551
  108.1632  244.0706  318.9246 LP  0  0  0  0  0  0  0  0  0  0  0  0  # atno 13555 bound_to 5571
  112.1566  239.3053  318.7206 LP  0  0  0  0  0  0  0  0  0  0  0  0  # atno 13556 bound_to 5645
  111.0521  240.6362  318.8142 LP  0  0  0  0  0  0  0  0  0  0  0  0  # atno 13557 bound_to 5645
  111.6116  238.0100  330.8312 LP  0  0  0  0  0  0  0  0  0  0  0  0  # atno 13560 bound_to 9363
  117.0892  237.9895  327.8338 LP  0  0  0  0  0  0  0  0  0  0  0  0  # atno 13561 bound_to 9231
  109.6619  237.5153  330.9771 LP  0  0  0  0  0  0  0  0  0  0  0  0  # atno 13562 bound_to 9321
  110.2071  237.1744  332.5854 LP  0  0  0  0  0  0  0  0  0  0  0  0  # atno 13563 bound_to 9321
  106.1828  246.1264  317.7993 LP  0  0  0  0  0  0  0  0  0  0  0  0  # atno 13566 bound_to 5546
  108.3924  243.7206  316.3097 LP  0  0  0  0  0  0  0  0  0  0  0  0  # atno 13567 bound_to 5574
  108.9594  242.1996  316.9138 LP  0  0  0  0  0  0  0  0  0  0  0  0  # atno 13568 bound_to 5574
  112.0642  244.1425  316.7290 LP  0  0  0  0  0  0  0  0  0  0  0  0  # atno 13569 bound_to 5604
  110.2523  250.5220  318.2452 LP  0  0  0  0  0  0  0  0  0  0  0  0  # atno 13570 bound_to 8525
  106.4058  248.0973  317.2225 LP  0  0  0  0  0  0  0  0  0  0  0  0  # atno 13571 bound_to 5523
  107.8695  247.2449  316.8608 LP  0  0  0  0  0  0  0  0  0  0  0  0  # atno 13572 bound_to 5523
  102.0228  242.0948  323.9719 LP  0  0  0  0  0  0  0  0  0  0  0  0  # atno 13573 bound_to 6144
  102.4730  242.4425  325.6079 LP  0  0  0  0  0  0  0  0  0  0  0  0  # atno 13574 bound_to 6144
  109.5077  247.0851  317.4793 LP  0  0  0  0  0  0  0  0  0  0  0  0  # atno 13575 bound_to 8506
  110.1737  246.0203  316.4356 LP  0  0  0  0  0  0  0  0  0  0  0  0  # atno 13576 bound_to 8506
  116.7346  237.8056  332.6730 LP  0  0  0  0  0  0  0  0  0  0  0  0  # atno 13577 bound_to 9175
  115.9287  238.4395  331.2770 LP  0  0  0  0  0  0  0  0  0  0  0  0  # atno 13578 bound_to 9175
  120.3297  240.5595  333.3075 LP  0  0  0  0  0  0  0  0  0  0  0  0  # atno 13579 bound_to 9178
  119.3049  240.4728  332.0391 LP  0  0  0  0  0  0  0  0  0  0  0  0  # atno 13580 bound_to 9178
  113.9541  234.3734  328.9063 LP  0  0  0  0  0  0  0  0  0  0  0  0  # atno 13581 bound_to 9234
  114.0009  235.2503  330.3993 LP  0  0  0  0  0  0  0  0  0  0  0  0  # atno 13582 bound_to 9234
  117.3162  235.7724  330.0365 LP  0  0  0  0  0  0  0  0  0  0  0  0  # atno 13583 bound_to 9265
  116.8052  236.0224  332.4921 LP  0  0  0  0  0  0  0  0  0  0  0  0  # atno 13584 bound_to 9282
  112.7548  235.9515  334.9067 LP  0  0  0  0  0  0  0  0  0  0  0  0  # atno 13585 bound_to 9285
  111.8494  236.3838  333.4949 LP  0  0  0  0  0  0  0  0  0  0  0  0  # atno 13586 bound_to 9285
  114.5769  238.0517  332.1421 LP  0  0  0  0  0  0  0  0  0  0  0  0  # atno 13587 bound_to 9318
  111.3718  235.4182  330.7030 LP  0  0  0  0  0  0  0  0  0  0  0  0  # atno 13588 bound_to 9391
  109.4421  234.2972  328.6991 LP  0  0  0  0  0  0  0  0  0  0  0  0  # atno 13592 bound_to 9366
  108.8690  235.5423  329.7580 LP  0  0  0  0  0  0  0  0  0  0  0  0  # atno 13593 bound_to 9366
  111.1717  252.9956  330.0324 LP  0  0  0  0  0  0  0  0  0  0  0  0  # atno 13594 bound_to 12888
  112.2747  253.0275  328.8287 LP  0  0  0  0  0  0  0  0  0  0  0  0  # atno 13595 bound_to 12888
  110.4194  246.5691  337.4165 LP  0  0  0  0  0  0  0  0  0  0  0  0  # atno 13596 bound_to 13450
  109.1299  246.4464  336.4221 LP  0  0  0  0  0  0  0  0  0  0  0  0  # atno 13597 bound_to 13450

> <Gold.Score>
     Fitness  S(hb_ext) S(vdw_ext)  S(hb_int)    S(int)      intcor
     36.78       7.79      21.32       0.00      -0.33      -0.76

> <Gold.Goldscore.Fitness>
36.7775

> <Gold.Goldscore.Internal.Vdw>
-0.5867

> <Gold.Goldscore.Internal.Torsion>
-0.4994

> <Gold.Goldscore.External.Vdw>
21.3210

> <Gold.Goldscore.Internal.HBond>
0.0000

> <Gold.Goldscore.External.HBond>
7.7887

> <Gold.Goldscore.Internal.Correction>
-0.7585

> <Gold.Goldscore.Hbonds>
donor molecule, donor type, donor heavy atom, donor atom, acceptor molecule, acceptor atom, score
      P1  H  5693  5706       L1    17  0.15
      P1  H  9538  9550       L1    17  1.00
      L1  H    10    23       P1  9098  0.46

> <Gold.Goldscore.Internal.Vdw.Weighted>
-0.5867

> <Gold.Goldscore.Internal.Torsion.Weighted>
-0.4994

> <Gold.Goldscore.External.Vdw.Weighted>
29.3163

> <Gold.Goldscore.Internal.HBond.Weighted>
0.0000

> <Gold.Goldscore.External.HBond.Weighted>
7.7887

> <Gold.Goldscore.Internal.Correction.Weighted>
-0.7585

> <Gold.Rescore>
     Score     S(PLP)   S(hbond)     S(cho)   S(metal)  DE(clash)   DE(tors)     intcor
     22.94     -19.61       1.12       0.00       0.00       0.00       0.02       ----

> <Gold.PLP.Fitness>
22.9376

> <Gold.PLP.PLP>
-19.6112

> <Gold.PLP.part.hbond>
-5.3327

> <Gold.PLP.part.metal>
0.0000

> <Gold.PLP.part.buried>
1.8916

> <Gold.PLP.part.nonpolar>
-21.7982

> <Gold.PLP.part.repulsive>
6.5200

> <Gold.PLP.ligand.clash>
0.0000

> <Gold.PLP.ligand.torsion>
0.0172

> <Gold.PLP.Chemscore.Hbond>
1.1202

> <Gold.PLP.Chemscore.CHOScore>
0.0000

> <Gold.PLP.Chemscore.Metal>
0.0000

> <Gold.Chemscore.Hbonds>
donor molecule, donor type, donor heavy atom, donor atom, acceptor molecule, acceptor atom, score
      P1  H  9538  9550       L1    17  0.93

> <Gold.PLP.Chemscore.Internal.Correction>
   9.000000E+99

#       Name:                CT1002167954
#       Creating user name   hitesit
#       Creation time:       Sun Apr 16 22:52:12 2023


#       File generated by GOLD software.
#

@<TRIPOS>MOLECULE
CT1002167954|ligand_prepared|mol2|1|dock10
    29    30     1
SMALL
NO_CHARGES


@<TRIPOS>ATOM
      1 C1         110.7987 246.6068 324.7893 C.3            1 RES1               0.0000
      2 C2         112.3180 246.3569 324.8789 C.ar           1 RES1               0.0000
      3 C3         110.4018 247.3034 326.0876 C.2            1 RES1               0.0000
      4 C4         110.5780 247.4500 323.5383 C.2            1 RES1               0.0000
      5 C5         109.9602 245.3150 324.6488 C.3            1 RES1               0.0000
      6 C6         113.1897 247.3955 325.1922 C.ar           1 RES1               0.0000
      7 C7         112.8615 245.0950 324.6537 C.ar           1 RES1               0.0000
      8 N8         110.1151 248.6353 326.0279 N.am           1 RES1               0.0000
      9 O9         110.3792 246.7019 327.1544 O.2            1 RES1               0.0000
     10 N10        110.1108 248.7280 323.6996 N.am           1 RES1               0.0000
     11 O11        110.8203 247.0248 322.4155 O.2            1 RES1               0.0000
     12 C12        108.4586 245.5536 324.6672 C.3            1 RES1               0.0000
     13 C13        114.5550 247.1798 325.2803 C.ar           1 RES1               0.0000
     14 C14        114.2272 244.8815 324.7421 C.ar           1 RES1               0.0000
     15 C15        109.8985 249.3693 324.8895 C.2            1 RES1               0.0000
     16 C16        115.0746 245.9228 325.0558 C.ar           1 RES1               0.0000
     17 O17        109.5294 250.5384 324.9537 O.2            1 RES1               0.0000
     18 H18        110.2278 244.8211 323.7065 H              1 RES1               0.0000
     19 H19        110.2196 244.6347 325.4694 H              1 RES1               0.0000
     20 H20        112.7994 248.3921 325.3698 H              1 RES1               0.0000
     21 H21        112.2141 244.2612 324.4045 H              1 RES1               0.0000
     22 H22        110.0565 249.1316 326.9115 H              1 RES1               0.0000
     23 H23        109.9017 249.2496 322.8543 H              1 RES1               0.0000
     24 H24        107.9177 244.6151 324.5655 H              1 RES1               0.0000
     25 H25        108.1537 246.0210 325.6012 H              1 RES1               0.0000
     26 H26        108.1618 246.2063 323.8488 H              1 RES1               0.0000
     27 H27        115.2178 248.0030 325.5262 H              1 RES1               0.0000
     28 H28        114.6318 243.8907 324.5639 H              1 RES1               0.0000
     29 H29        116.1441 245.7540 325.1252 H              1 RES1               0.0000
@<TRIPOS>BOND
    1    1    2 1     
    2    1    3 1     
    3    1    4 1     
    4    1    5 1     
    5    2    6 ar    
    6    2    7 ar    
    7    3    8 1     
    8    3    9 2     
    9    4   10 1     
   10    4   11 2     
   11    5   12 1     
   12    5   18 1     
   13    5   19 1     
   14    6   13 ar    
   15    6   20 1     
   16    7   14 ar    
   17    7   21 1     
   18    8   15 1     
   19    8   22 1     
   20   10   15 1     
   21   10   23 1     
   22   12   24 1     
   23   12   25 1     
   24   12   26 1     
   25   13   16 ar    
   26   13   27 1     
   27   14   16 ar    
   28   14   28 1     
   29   15   17 2     
   30   16   29 1     
@<TRIPOS>SUBSTRUCTURE
      1 RES1           1
@<TRIPOS>SET
DONOR_HYDROGENS      STATIC     ATOMS    <user>   **** ""
2 22 23
ATOM$RED        STATIC     ATOMS    COLORGROUP SYSTEM
2 22 23
@<TRIPOS>COMMENT
> <Gold.Version>
2022.3.0

> <Gold.Id.Protein>
unknown|4uh6_clean|pdb

> <Gold.Protein.RotatedTorsions>
[ 8453 8448 8449 8450 ] final  -46.32 input   43.75 | X-H torsion
[ 8477 8470 8471 8472 ] final  -33.88 input  101.27 | X-H torsion
[ 9021 9017 9018 9019 ] final   92.36 input   41.82 | X-H torsion
[ 9055 9041 9042 9043 ] final -139.35 input   38.00 | X-H torsion
[ 9099 9087 9088 9089 ] final   75.61 input   99.63 | X-H torsion
[ 9107 9098 9097 9095 ] final  162.66 input   60.00 | X-H torsion
[ 9133 9125 9126 9127 ] final   67.48 input   87.39 | X-H torsion
[ 9211 9202 9203 9204 ] final   85.16 input  119.00 | X-H torsion
[ 3596 3592 3593 3594 ] final  125.30 input   87.50 | X-H torsion
[ 9003 8997 8998 8999 ] final   40.86 input   29.71 | X-H torsion
[ 9159 9155 9156 9157 ] final  -92.18 input  127.29 | X-H torsion
[ 11075 11068 11069 11070 ] final   89.75 input   56.03 | X-H torsion
[ 4893 4888 4887 4884 ] final  -13.18 input   60.01 | X-H torsion
[ 9007 9002 9001 8998 ] final   47.24 input   59.98 | X-H torsion
[ 8973 8962 8963 8964 ] final   41.47 input   50.05 | X-H torsion
[ 8507 8501 8502 8503 ] final    2.92 input   53.62 | X-H torsion
[ 4912 4907 4908 4909 ] final  136.20 input   25.27 | X-H torsion
[ 8353 8344 8343 8341 ] final  123.18 input   59.99 | X-H torsion
[ 5556 5551 5550 5547 ] final  120.76 input   59.99 | X-H torsion
[ 5580 5571 5572 5573 ] final    2.27 input   51.16 | X-H torsion
[ 9375 9363 9364 9365 ] final   79.32 input  121.73 | X-H torsion
[ 9247 9231 9232 9233 ] final   28.42 input   97.49 | X-H torsion
[ 5552 5546 5547 5548 ] final  122.24 input   98.49 | X-H torsion
[ 5612 5604 5605 5606 ] final  -82.06 input  122.00 | X-H torsion
[ 8533 8525 8526 8527 ] final  -66.63 input   68.51 | X-H torsion
[ 8511 8506 8505 8502 ] final -124.10 input   59.98 | X-H torsion
[ 9185 9178 9176 9173 ] final  -70.94 input   60.02 | X-H torsion
[ 9272 9265 9266 9267 ] final -141.64 input  106.17 | X-H torsion
[ 9298 9282 9283 9284 ] final  -10.42 input   76.97 | X-H torsion
[ 9342 9318 9319 9320 ] final   91.02 input  100.94 | X-H torsion
[ 9412 9391 9392 9393 ] final  179.54 input   95.23 | X-H torsion
[ 12897 12888 12887 12885 ] final  -42.65 input   60.01 | X-H torsion
[ 13469 13450 13449 13445 ] final   64.27 input   59.98 | X-H torsion
[ 3570 3563 3564 3565 ] final  -10.32 input   99.66 | X-H torsion
[ 13485 8425 8424 8423 ] final  -35.24 input    0.00 | X-H torsion
[ 13489 8965 8964 8963 ] final  178.66 input    0.00 | X-H torsion
[ 13492 9020 9019 9018 ] final  139.01 input   -0.00 | X-H torsion
[ 13495 9044 9043 9042 ] final   18.16 input    0.00 | X-H torsion
[ 13498 9090 9089 9088 ] final -159.10 input    0.00 | X-H torsion
[ 13503 9128 9127 9126 ] final   89.85 input    0.00 | X-H torsion
[ 13516 9000 8999 8998 ] final -149.33 input    0.00 | X-H torsion
[ 13518 8370 8369 8368 ] final -164.76 input    0.00 | X-H torsion
[ 13522 11071 11070 11069 ] final  -29.78 input   -0.00 | X-H torsion
[ 13526 8388 8387 8386 ] final -147.82 input    0.00 | X-H torsion
[ 13530 8451 8450 8449 ] final  -59.23 input    0.00 | X-H torsion
[ 13532 8473 8472 8471 ] final  -63.46 input    0.00 | X-H torsion
[ 13539 4910 4909 4908 ] final  -47.92 input   -0.00 | X-H torsion
[ 13543 5549 5548 5547 ] final -178.77 input    0.00 | X-H torsion
[ 13547 9205 9204 9203 ] final -139.53 input   -0.00 | X-H torsion
[ 13556 5645 5644 5643 ] final  151.58 input   -0.00 | X-H torsion
[ 13562 9321 9320 9319 ] final  101.10 input    0.00 | X-H torsion
[ 13567 5574 5573 5572 ] final   94.00 input    0.00 | X-H torsion
[ 13571 5523 5522 5521 ] final  113.73 input    0.00 | X-H torsion
[ 13573 6144 6143 6142 ] final   26.77 input    0.00 | X-H torsion
[ 13577 9175 9174 9173 ] final -159.29 input    0.00 | X-H torsion
[ 13581 9234 9233 9232 ] final  -49.67 input    0.00 | X-H torsion
[ 13585 9285 9284 9283 ] final -174.73 input    0.00 | X-H torsion
[ 13592 9366 9365 9364 ] final  -20.42 input   -0.00 | X-H torsion

> <Gold.Protein.ActiveResidues>
 TRP311  MET341  HIS342  TRP414  ARG419  CYS420  VAL421  GLY422  LEU429  LEU460 
 SER462  ALA463  ILE464  ASN481  SER482  GLN483  LEU484  ILE485  ARG486  ASP500 
 ALA502  ASN503  TRP566  TYR567  GLY568  LEU569  PRO570  ALA571  VAL572  SER573 
 ASN574  MET575  PRO588  PHE589  SER590  GLY591  TRP592  TYR593  MET594  GLY595 
 THR596  GLU597  ILE598  GLY599  VAL600  ARG601  ASP602  TYR603  ASP605  ARG608 
 ILE653  VAL654  TRP683  PRO687  SER691  PHE696  HIS697  TYR711  HEM750  H4B760 

> <Gold.Protein.RotatedAtoms>
  122.4270  249.7615  328.6614 H   0  0  0  0  0  0  0  0  0  0  0  0  # atno 3570 bound_to 3563
  123.3445  248.5054  327.8405 H   0  0  0  0  0  0  0  0  0  0  0  0  # atno 3596 bound_to 3592
  124.9428  246.3221  318.4379 H   0  0  0  0  0  0  0  0  0  0  0  0  # atno 4893 bound_to 4888
  123.0834  247.2005  314.7748 H   0  0  0  0  0  0  0  0  0  0  0  0  # atno 4912 bound_to 4907
  105.6913  244.9581  318.8468 H   0  0  0  0  0  0  0  0  0  0  0  0  # atno 5552 bound_to 5546
  107.4707  244.2609  322.0418 H   0  0  0  0  0  0  0  0  0  0  0  0  # atno 5556 bound_to 5551
  108.1795  244.5598  318.3115 H   0  0  0  0  0  0  0  0  0  0  0  0  # atno 5580 bound_to 5571
  110.3289  244.0588  316.7631 H   0  0  0  0  0  0  0  0  0  0  0  0  # atno 5612 bound_to 5604
  112.2346  239.0023  322.4538 H   0  0  0  0  0  0  0  0  0  0  0  0  # atno 8353 bound_to 8344
  115.5646  243.7389  319.9410 H   0  0  0  0  0  0  0  0  0  0  0  0  # atno 8453 bound_to 8448
  114.4436  246.3597  318.1656 H   0  0  0  0  0  0  0  0  0  0  0  0  # atno 8477 bound_to 8470
  111.0866  248.4532  319.1633 H   0  0  0  0  0  0  0  0  0  0  0  0  # atno 8507 bound_to 8501
  110.1298  246.0174  316.3512 H   0  0  0  0  0  0  0  0  0  0  0  0  # atno 8511 bound_to 8506
  110.1006  250.4029  317.9411 H   0  0  0  0  0  0  0  0  0  0  0  0  # atno 8533 bound_to 8525
  115.2230  249.3830  316.8642 H   0  0  0  0  0  0  0  0  0  0  0  0  # atno 8973 bound_to 8962
  119.4880  248.1784  316.4555 H   0  0  0  0  0  0  0  0  0  0  0  0  # atno 9003 bound_to 8997
  120.5793  245.3878  315.7322 H   0  0  0  0  0  0  0  0  0  0  0  0  # atno 9007 bound_to 9002
  120.0720  245.4977  319.5898 H   0  0  0  0  0  0  0  0  0  0  0  0  # atno 9021 bound_to 9017
  122.4152  243.4287  319.7797 H   0  0  0  0  0  0  0  0  0  0  0  0  # atno 9055 bound_to 9041
  122.3793  239.6767  322.4839 H   0  0  0  0  0  0  0  0  0  0  0  0  # atno 9099 bound_to 9087
  114.8451  239.1905  322.0282 H   0  0  0  0  0  0  0  0  0  0  0  0  # atno 9107 bound_to 9098
  120.8303  241.1041  326.5204 H   0  0  0  0  0  0  0  0  0  0  0  0  # atno 9133 bound_to 9125
  121.8765  238.5856  327.9397 H   0  0  0  0  0  0  0  0  0  0  0  0  # atno 9159 bound_to 9155
  120.9197  239.8589  332.1175 H   0  0  0  0  0  0  0  0  0  0  0  0  # atno 9185 bound_to 9178
  118.8103  238.8016  329.5464 H   0  0  0  0  0  0  0  0  0  0  0  0  # atno 9211 bound_to 9202
  117.1652  237.4201  329.2992 H   0  0  0  0  0  0  0  0  0  0  0  0  # atno 9247 bound_to 9231
  116.5262  234.7231  329.0405 H   0  0  0  0  0  0  0  0  0  0  0  0  # atno 9272 bound_to 9265
  115.3973  235.6681  331.7392 H   0  0  0  0  0  0  0  0  0  0  0  0  # atno 9298 bound_to 9282
  114.5460  237.9656  332.0275 H   0  0  0  0  0  0  0  0  0  0  0  0  # atno 9342 bound_to 9318
  113.0448  237.2107  330.2832 H   0  0  0  0  0  0  0  0  0  0  0  0  # atno 9375 bound_to 9363
  112.1323  234.7325  329.2888 H   0  0  0  0  0  0  0  0  0  0  0  0  # atno 9412 bound_to 9391
  125.3075  239.1850  325.6074 H   0  0  0  0  0  0  0  0  0  0  0  0  # atno 11075 bound_to 11068
  111.0791  251.8276  329.0441 H   0  0  0  0  0  0  0  0  0  0  0  0  # atno 12897 bound_to 12888
  110.2157  246.7577  337.8538 H   0  0  0  0  0  0  0  0  0  0  0  0  # atno 13469 bound_to 13450
  118.5117  244.0975  320.0093 LP  0  0  0  0  0  0  0  0  0  0  0  0  # atno 13485 bound_to 8425
  117.9353  244.6006  318.4554 LP  0  0  0  0  0  0  0  0  0  0  0  0  # atno 13486 bound_to 8425
  115.8476  242.7206  318.5503 LP  0  0  0  0  0  0  0  0  0  0  0  0  # atno 13487 bound_to 8448
  115.2234  246.4877  319.7259 LP  0  0  0  0  0  0  0  0  0  0  0  0  # atno 13488 bound_to 8470
  116.8835  246.7302  318.2133 LP  0  0  0  0  0  0  0  0  0  0  0  0  # atno 13489 bound_to 8965
  115.7795  248.0114  317.8395 LP  0  0  0  0  0  0  0  0  0  0  0  0  # atno 13490 bound_to 8965
  120.5939  245.3559  317.9263 LP  0  0  0  0  0  0  0  0  0  0  0  0  # atno 13491 bound_to 9017
  122.8323  242.0693  318.3742 LP  0  0  0  0  0  0  0  0  0  0  0  0  # atno 13492 bound_to 9020
  121.4191  242.9645  317.9256 LP  0  0  0  0  0  0  0  0  0  0  0  0  # atno 13493 bound_to 9020
  123.0425  243.8713  321.3530 LP  0  0  0  0  0  0  0  0  0  0  0  0  # atno 13494 bound_to 9041
  122.3467  243.5710  322.8515 LP  0  0  0  0  0  0  0  0  0  0  0  0  # atno 13495 bound_to 9044
  122.2680  242.5406  324.2415 LP  0  0  0  0  0  0  0  0  0  0  0  0  # atno 13496 bound_to 9044
  121.8987  241.3577  322.4677 LP  0  0  0  0  0  0  0  0  0  0  0  0  # atno 13497 bound_to 9087
  123.8372  239.3782  326.0488 LP  0  0  0  0  0  0  0  0  0  0  0  0  # atno 13498 bound_to 9090
  123.7426  239.6395  324.3392 LP  0  0  0  0  0  0  0  0  0  0  0  0  # atno 13499 bound_to 9090
  114.6968  240.3811  323.1273 LP  0  0  0  0  0  0  0  0  0  0  0  0  # atno 13500 bound_to 9098
  114.4685  238.8255  323.5685 LP  0  0  0  0  0  0  0  0  0  0  0  0  # atno 13501 bound_to 9098
  122.2766  240.5718  325.6940 LP  0  0  0  0  0  0  0  0  0  0  0  0  # atno 13502 bound_to 9125
  119.7986  238.8334  327.3633 LP  0  0  0  0  0  0  0  0  0  0  0  0  # atno 13503 bound_to 9128
  119.7011  239.5278  328.9470 LP  0  0  0  0  0  0  0  0  0  0  0  0  # atno 13504 bound_to 9128
  118.0378  239.0485  331.0914 LP  0  0  0  0  0  0  0  0  0  0  0  0  # atno 13505 bound_to 9202
  124.6703  249.3005  328.6517 LP  0  0  0  0  0  0  0  0  0  0  0  0  # atno 13514 bound_to 3592
  117.9563  248.1648  317.2858 LP  0  0  0  0  0  0  0  0  0  0  0  0  # atno 13515 bound_to 8997
  122.3373  246.6741  317.3906 LP  0  0  0  0  0  0  0  0  0  0  0  0  # atno 13516 bound_to 9000
  121.1529  247.9231  317.1980 LP  0  0  0  0  0  0  0  0  0  0  0  0  # atno 13517 bound_to 9000
  119.9685  238.9764  319.3916 LP  0  0  0  0  0  0  0  0  0  0  0  0  # atno 13518 bound_to 8370
  120.8884  237.5205  319.5763 LP  0  0  0  0  0  0  0  0  0  0  0  0  # atno 13519 bound_to 8370
  122.8196  238.3953  329.4013 LP  0  0  0  0  0  0  0  0  0  0  0  0  # atno 13520 bound_to 9155
  126.1002  237.6321  325.6023 LP  0  0  0  0  0  0  0  0  0  0  0  0  # atno 13521 bound_to 11068
  124.4942  239.5062  328.0549 LP  0  0  0  0  0  0  0  0  0  0  0  0  # atno 13522 bound_to 11071
  124.4610  238.1995  329.1912 LP  0  0  0  0  0  0  0  0  0  0  0  0  # atno 13523 bound_to 11071
  124.8789  247.6936  319.3121 LP  0  0  0  0  0  0  0  0  0  0  0  0  # atno 13524 bound_to 4888
  126.2776  247.2388  318.6026 LP  0  0  0  0  0  0  0  0  0  0  0  0  # atno 13525 bound_to 4888
  115.6044  241.0652  318.2033 LP  0  0  0  0  0  0  0  0  0  0  0  0  # atno 13526 bound_to 8388
  115.7760  239.4196  317.6911 LP  0  0  0  0  0  0  0  0  0  0  0  0  # atno 13527 bound_to 8388
  119.4726  246.1762  314.8370 LP  0  0  0  0  0  0  0  0  0  0  0  0  # atno 13528 bound_to 9002
  119.5238  244.5441  314.8258 LP  0  0  0  0  0  0  0  0  0  0  0  0  # atno 13529 bound_to 9002
  112.9584  245.1827  317.0408 LP  0  0  0  0  0  0  0  0  0  0  0  0  # atno 13530 bound_to 8451
  112.4067  245.0628  318.6782 LP  0  0  0  0  0  0  0  0  0  0  0  0  # atno 13531 bound_to 8451
  114.0157  249.9167  318.3154 LP  0  0  0  0  0  0  0  0  0  0  0  0  # atno 13532 bound_to 8473
  113.6943  249.0226  316.8672 LP  0  0  0  0  0  0  0  0  0  0  0  0  # atno 13533 bound_to 8473
  115.6153  250.0624  315.3021 LP  0  0  0  0  0  0  0  0  0  0  0  0  # atno 13534 bound_to 8962
  112.2959  247.7194  318.1428 LP  0  0  0  0  0  0  0  0  0  0  0  0  # atno 13535 bound_to 8501
  122.7271  248.5606  315.8100 LP  0  0  0  0  0  0  0  0  0  0  0  0  # atno 13538 bound_to 4907
  119.9973  248.2497  315.0572 LP  0  0  0  0  0  0  0  0  0  0  0  0  # atno 13539 bound_to 4910
  119.8845  249.8650  315.6721 LP  0  0  0  0  0  0  0  0  0  0  0  0  # atno 13540 bound_to 4910
  110.5334  246.4820  319.6395 LP  0  0  0  0  0  0  0  0  0  0  0  0  # atno 13543 bound_to 5549
  109.3166  247.5926  320.1742 LP  0  0  0  0  0  0  0  0  0  0  0  0  # atno 13544 bound_to 5549
  110.8812  238.2272  321.9889 LP  0  0  0  0  0  0  0  0  0  0  0  0  # atno 13545 bound_to 8344
  111.3639  239.5754  321.2040 LP  0  0  0  0  0  0  0  0  0  0  0  0  # atno 13546 bound_to 8344
  114.2176  237.7827  329.5158 LP  0  0  0  0  0  0  0  0  0  0  0  0  # atno 13547 bound_to 9205
  114.2320  239.4426  329.0214 LP  0  0  0  0  0  0  0  0  0  0  0  0  # atno 13548 bound_to 9205
  107.3261  244.0171  320.4393 LP  0  0  0  0  0  0  0  0  0  0  0  0  # atno 13553 bound_to 5551
  106.0038  243.9769  321.3968 LP  0  0  0  0  0  0  0  0  0  0  0  0  # atno 13554 bound_to 5551
  108.8027  245.1066  319.8573 LP  0  0  0  0  0  0  0  0  0  0  0  0  # atno 13555 bound_to 5571
  110.8438  240.0354  319.1766 LP  0  0  0  0  0  0  0  0  0  0  0  0  # atno 13556 bound_to 5645
  112.3649  239.9060  318.3583 LP  0  0  0  0  0  0  0  0  0  0  0  0  # atno 13557 bound_to 5645
  111.6560  238.2026  330.6682 LP  0  0  0  0  0  0  0  0  0  0  0  0  # atno 13560 bound_to 9363
  116.4344  238.3269  327.9921 LP  0  0  0  0  0  0  0  0  0  0  0  0  # atno 13561 bound_to 9231
  109.6298  238.0152  331.3255 LP  0  0  0  0  0  0  0  0  0  0  0  0  # atno 13562 bound_to 9321
  110.2393  236.6745  332.2370 LP  0  0  0  0  0  0  0  0  0  0  0  0  # atno 13563 bound_to 9321
  106.6449  245.8037  317.6532 LP  0  0  0  0  0  0  0  0  0  0  0  0  # atno 13566 bound_to 5546
  108.3973  243.7181  316.2992 LP  0  0  0  0  0  0  0  0  0  0  0  0  # atno 13567 bound_to 5574
  108.9545  242.2020  316.9244 LP  0  0  0  0  0  0  0  0  0  0  0  0  # atno 13568 bound_to 5574
  112.0744  243.9651  316.7987 LP  0  0  0  0  0  0  0  0  0  0  0  0  # atno 13569 bound_to 5604
  109.5610  249.2488  319.1313 LP  0  0  0  0  0  0  0  0  0  0  0  0  # atno 13570 bound_to 8525
  106.6064  248.0832  317.5875 LP  0  0  0  0  0  0  0  0  0  0  0  0  # atno 13571 bound_to 5523
  107.6689  247.2590  316.4958 LP  0  0  0  0  0  0  0  0  0  0  0  0  # atno 13572 bound_to 5523
  102.8362  242.4673  325.3936 LP  0  0  0  0  0  0  0  0  0  0  0  0  # atno 13573 bound_to 6144
  101.6596  242.0700  324.1862 LP  0  0  0  0  0  0  0  0  0  0  0  0  # atno 13574 bound_to 6144
  108.8199  246.9390  316.0607 LP  0  0  0  0  0  0  0  0  0  0  0  0  # atno 13575 bound_to 8506
  109.5846  247.0329  317.5006 LP  0  0  0  0  0  0  0  0  0  0  0  0  # atno 13576 bound_to 8506
  115.9312  238.2903  331.2256 LP  0  0  0  0  0  0  0  0  0  0  0  0  # atno 13577 bound_to 9175
  116.7321  237.9548  332.7243 LP  0  0  0  0  0  0  0  0  0  0  0  0  # atno 13578 bound_to 9175
  120.1164  240.6405  333.2976 LP  0  0  0  0  0  0  0  0  0  0  0  0  # atno 13579 bound_to 9178
  119.3952  240.3664  331.8583 LP  0  0  0  0  0  0  0  0  0  0  0  0  # atno 13580 bound_to 9178
  113.6880  235.6262  329.5974 LP  0  0  0  0  0  0  0  0  0  0  0  0  # atno 13581 bound_to 9234
  114.2670  233.9975  329.7082 LP  0  0  0  0  0  0  0  0  0  0  0  0  # atno 13582 bound_to 9234
  116.8107  235.9869  330.2171 LP  0  0  0  0  0  0  0  0  0  0  0  0  # atno 13583 bound_to 9265
  116.8236  235.4638  332.7246 LP  0  0  0  0  0  0  0  0  0  0  0  0  # atno 13584 bound_to 9282
  111.8231  236.6877  333.7007 LP  0  0  0  0  0  0  0  0  0  0  0  0  # atno 13585 bound_to 9285
  112.7811  235.6476  334.7009 LP  0  0  0  0  0  0  0  0  0  0  0  0  # atno 13586 bound_to 9285
  113.7592  237.1456  333.3552 LP  0  0  0  0  0  0  0  0  0  0  0  0  # atno 13587 bound_to 9318
  111.4488  235.4115  330.7478 LP  0  0  0  0  0  0  0  0  0  0  0  0  # atno 13588 bound_to 9391
  108.9310  235.7495  329.1231 LP  0  0  0  0  0  0  0  0  0  0  0  0  # atno 13592 bound_to 9366
  109.3801  234.0901  329.3339 LP  0  0  0  0  0  0  0  0  0  0  0  0  # atno 13593 bound_to 9366
  111.2942  253.1190  330.0104 LP  0  0  0  0  0  0  0  0  0  0  0  0  # atno 13594 bound_to 12888
  112.2639  252.8936  328.7160 LP  0  0  0  0  0  0  0  0  0  0  0  0  # atno 13595 bound_to 12888
  109.6387  246.3470  336.3882 LP  0  0  0  0  0  0  0  0  0  0  0  0  # atno 13596 bound_to 13450
  108.6275  246.9191  337.5357 LP  0  0  0  0  0  0  0  0  0  0  0  0  # atno 13597 bound_to 13450

> <Gold.Score>
     Fitness  S(hb_ext) S(vdw_ext)  S(hb_int)    S(int)      intcor
     35.36       6.00      21.42       0.00      -0.09      -0.76

> <Gold.Goldscore.Fitness>
35.3594

> <Gold.Goldscore.Internal.Vdw>
-0.4533

> <Gold.Goldscore.Internal.Torsion>
-0.3998

> <Gold.Goldscore.External.Vdw>
21.4211

> <Gold.Goldscore.Internal.HBond>
0.0000

> <Gold.Goldscore.External.HBond>
6.0000

> <Gold.Goldscore.Internal.Correction>
-0.7585

> <Gold.Goldscore.Hbonds>
donor molecule, donor type, donor heavy atom, donor atom, acceptor molecule, acceptor atom, score
      L1  H    10    23       P1  8532  1.00

> <Gold.Goldscore.Internal.Vdw.Weighted>
-0.4533

> <Gold.Goldscore.Internal.Torsion.Weighted>
-0.3998

> <Gold.Goldscore.External.Vdw.Weighted>
29.4540

> <Gold.Goldscore.Internal.HBond.Weighted>
0.0000

> <Gold.Goldscore.External.HBond.Weighted>
6.0000

> <Gold.Goldscore.Internal.Correction.Weighted>
-0.7585

> <Gold.Rescore>
     Score     S(PLP)   S(hbond)     S(cho)   S(metal)  DE(clash)   DE(tors)     intcor
     33.06     -30.40       1.00       0.00       0.00       0.00       0.17       ----

> <Gold.PLP.Fitness>
33.0554

> <Gold.PLP.PLP>
-30.4009

> <Gold.PLP.part.hbond>
-1.7857

> <Gold.PLP.part.metal>
0.0000

> <Gold.PLP.part.buried>
-6.0405

> <Gold.PLP.part.nonpolar>
-23.0121

> <Gold.PLP.part.repulsive>
0.5890

> <Gold.PLP.ligand.clash>
0.0000

> <Gold.PLP.ligand.torsion>
0.1727

> <Gold.PLP.Chemscore.Hbond>
1.0000

> <Gold.PLP.Chemscore.CHOScore>
0.0000

> <Gold.PLP.Chemscore.Metal>
0.0000

> <Gold.Chemscore.Hbonds>
donor molecule, donor type, donor heavy atom, donor atom, acceptor molecule, acceptor atom, score
      L1  H    10    23       P1  8532  1.00

> <Gold.PLP.Chemscore.Internal.Correction>
   9.000000E+99

#       Name:                CT1002167954
#       Creating user name   hitesit
#       Creation time:       Sun Apr 16 22:52:11 2023


#       File generated by GOLD software.
#

@<TRIPOS>MOLECULE
CT1002167954|ligand_prepared|mol2|1|dock9
    29    30     1
SMALL
NO_CHARGES


@<TRIPOS>ATOM
      1 C1         112.3404 243.5707 325.8431 C.3            1 RES1               0.0000
      2 C2         112.4910 243.4254 327.3712 C.ar           1 RES1               0.0000
      3 C3         113.1853 244.7762 325.4420 C.2            1 RES1               0.0000
      4 C4         112.8124 242.2520 325.2406 C.2            1 RES1               0.0000
      5 C5         110.8854 243.8143 325.3790 C.3            1 RES1               0.0000
      6 C6         111.7864 244.2585 328.2350 C.ar           1 RES1               0.0000
      7 C7         113.3272 242.4630 327.9308 C.ar           1 RES1               0.0000
      8 N8         114.3626 244.5362 324.7967 N.am           1 RES1               0.0000
      9 O9         112.8430 245.9183 325.7226 O.2            1 RES1               0.0000
     10 N10        113.9430 242.2680 324.4665 N.am           1 RES1               0.0000
     11 O11        112.2248 241.1965 325.4428 O.2            1 RES1               0.0000
     12 C12        110.7097 243.7808 323.8690 C.3            1 RES1               0.0000
     13 C13        111.9109 244.1321 329.6087 C.ar           1 RES1               0.0000
     14 C14        113.4504 242.3385 329.3048 C.ar           1 RES1               0.0000
     15 C15        114.7568 243.3449 324.2425 C.2            1 RES1               0.0000
     16 C16        112.7425 243.1719 330.1444 C.ar           1 RES1               0.0000
     17 O17        115.7870 243.2683 323.5792 O.2            1 RES1               0.0000
     18 H18        110.2392 243.0492 325.8267 H              1 RES1               0.0000
     19 H19        110.5551 244.7919 325.7513 H              1 RES1               0.0000
     20 H20        111.1291 245.0215 327.8317 H              1 RES1               0.0000
     21 H21        113.8946 241.7971 327.2895 H              1 RES1               0.0000
     22 H22        115.0097 245.3143 324.7192 H              1 RES1               0.0000
     23 H23        114.2019 241.3963 324.0155 H              1 RES1               0.0000
     24 H24        109.6711 243.9574 323.5975 H              1 RES1               0.0000
     25 H25        111.3192 244.5460 323.3927 H              1 RES1               0.0000
     26 H26        111.0053 242.8136 323.4677 H              1 RES1               0.0000
     27 H27        111.3526 244.7914 330.2651 H              1 RES1               0.0000
     28 H28        114.1065 241.5818 329.7221 H              1 RES1               0.0000
     29 H29        112.8395 243.0729 331.2205 H              1 RES1               0.0000
@<TRIPOS>BOND
    1    1    2 1     
    2    1    3 1     
    3    1    4 1     
    4    1    5 1     
    5    2    6 ar    
    6    2    7 ar    
    7    3    8 1     
    8    3    9 2     
    9    4   10 1     
   10    4   11 2     
   11    5   12 1     
   12    5   18 1     
   13    5   19 1     
   14    6   13 ar    
   15    6   20 1     
   16    7   14 ar    
   17    7   21 1     
   18    8   15 1     
   19    8   22 1     
   20   10   15 1     
   21   10   23 1     
   22   12   24 1     
   23   12   25 1     
   24   12   26 1     
   25   13   16 ar    
   26   13   27 1     
   27   14   16 ar    
   28   14   28 1     
   29   15   17 2     
   30   16   29 1     
@<TRIPOS>SUBSTRUCTURE
      1 RES1           1
@<TRIPOS>SET
DONOR_HYDROGENS      STATIC     ATOMS    <user>   **** ""
2 22 23
ATOM$RED        STATIC     ATOMS    COLORGROUP SYSTEM
2 22 23
@<TRIPOS>COMMENT
> <Gold.Version>
2022.3.0

> <Gold.Id.Protein>
unknown|4uh6_clean|pdb

> <Gold.Protein.RotatedTorsions>
[ 8453 8448 8449 8450 ] final  106.93 input   43.75 | X-H torsion
[ 8477 8470 8471 8472 ] final -112.85 input  101.27 | X-H torsion
[ 9021 9017 9018 9019 ] final   -1.09 input   41.82 | X-H torsion
[ 9055 9041 9042 9043 ] final  -52.14 input   38.00 | X-H torsion
[ 9099 9087 9088 9089 ] final  169.09 input   99.63 | X-H torsion
[ 9107 9098 9097 9095 ] final -107.46 input   60.00 | X-H torsion
[ 9133 9125 9126 9127 ] final   86.66 input   87.39 | X-H torsion
[ 9211 9202 9203 9204 ] final  -97.10 input  119.00 | X-H torsion
[ 3596 3592 3593 3594 ] final  -69.67 input   87.50 | X-H torsion
[ 9003 8997 8998 8999 ] final   79.45 input   29.71 | X-H torsion
[ 9159 9155 9156 9157 ] final  146.56 input  127.29 | X-H torsion
[ 11075 11068 11069 11070 ] final  -23.08 input   56.03 | X-H torsion
[ 4893 4888 4887 4884 ] final   19.39 input   60.01 | X-H torsion
[ 9007 9002 9001 8998 ] final  143.51 input   59.98 | X-H torsion
[ 8973 8962 8963 8964 ] final  178.07 input   50.05 | X-H torsion
[ 8507 8501 8502 8503 ] final -138.49 input   53.62 | X-H torsion
[ 4912 4907 4908 4909 ] final  163.12 input   25.27 | X-H torsion
[ 8353 8344 8343 8341 ] final  162.29 input   59.99 | X-H torsion
[ 5556 5551 5550 5547 ] final  146.72 input   59.99 | X-H torsion
[ 5580 5571 5572 5573 ] final -117.03 input   51.16 | X-H torsion
[ 9375 9363 9364 9365 ] final  165.32 input  121.73 | X-H torsion
[ 9247 9231 9232 9233 ] final -169.41 input   97.49 | X-H torsion
[ 5552 5546 5547 5548 ] final  -38.24 input   98.49 | X-H torsion
[ 5612 5604 5605 5606 ] final  -70.88 input  122.00 | X-H torsion
[ 8533 8525 8526 8527 ] final -158.91 input   68.51 | X-H torsion
[ 8511 8506 8505 8502 ] final  -28.48 input   59.98 | X-H torsion
[ 9185 9178 9176 9173 ] final  122.02 input   60.02 | X-H torsion
[ 9272 9265 9266 9267 ] final -121.04 input  106.17 | X-H torsion
[ 9298 9282 9283 9284 ] final  -49.28 input   76.97 | X-H torsion
[ 9342 9318 9319 9320 ] final   96.01 input  100.94 | X-H torsion
[ 9412 9391 9392 9393 ] final  175.60 input   95.23 | X-H torsion
[ 12897 12888 12887 12885 ] final   89.54 input   60.01 | X-H torsion
[ 13469 13450 13449 13445 ] final  -77.28 input   59.98 | X-H torsion
[ 3570 3563 3564 3565 ] final -164.83 input   99.66 | X-H torsion
[ 13485 8425 8424 8423 ] final  104.15 input    0.00 | X-H torsion
[ 13489 8965 8964 8963 ] final  -23.50 input    0.00 | X-H torsion
[ 13492 9020 9019 9018 ] final -122.74 input   -0.00 | X-H torsion
[ 13495 9044 9043 9042 ] final   49.45 input    0.00 | X-H torsion
[ 13498 9090 9089 9088 ] final  104.27 input    0.00 | X-H torsion
[ 13503 9128 9127 9126 ] final  -61.69 input    0.00 | X-H torsion
[ 13516 9000 8999 8998 ] final  -12.18 input    0.00 | X-H torsion
[ 13518 8370 8369 8368 ] final   60.54 input    0.00 | X-H torsion
[ 13522 11071 11070 11069 ] final  -51.91 input   -0.00 | X-H torsion
[ 13526 8388 8387 8386 ] final   79.98 input    0.00 | X-H torsion
[ 13530 8451 8450 8449 ] final   98.97 input    0.00 | X-H torsion
[ 13532 8473 8472 8471 ] final -151.62 input    0.00 | X-H torsion
[ 13539 4910 4909 4908 ] final  -88.61 input   -0.00 | X-H torsion
[ 13543 5549 5548 5547 ] final    0.01 input    0.00 | X-H torsion
[ 13547 9205 9204 9203 ] final -167.27 input   -0.00 | X-H torsion
[ 13556 5645 5644 5643 ] final  -25.40 input   -0.00 | X-H torsion
[ 13562 9321 9320 9319 ] final  -52.34 input    0.00 | X-H torsion
[ 13567 5574 5573 5572 ] final  170.64 input    0.00 | X-H torsion
[ 13571 5523 5522 5521 ] final  161.95 input    0.00 | X-H torsion
[ 13573 6144 6143 6142 ] final  -46.88 input    0.00 | X-H torsion
[ 13577 9175 9174 9173 ] final   83.89 input    0.00 | X-H torsion
[ 13581 9234 9233 9232 ] final  -32.43 input    0.00 | X-H torsion
[ 13585 9285 9284 9283 ] final   61.09 input    0.00 | X-H torsion
[ 13592 9366 9365 9364 ] final  -53.65 input   -0.00 | X-H torsion

> <Gold.Protein.ActiveResidues>
 TRP311  MET341  HIS342  TRP414  ARG419  CYS420  VAL421  GLY422  LEU429  LEU460 
 SER462  ALA463  ILE464  ASN481  SER482  GLN483  LEU484  ILE485  ARG486  ASP500 
 ALA502  ASN503  TRP566  TYR567  GLY568  LEU569  PRO570  ALA571  VAL572  SER573 
 ASN574  MET575  PRO588  PHE589  SER590  GLY591  TRP592  TYR593  MET594  GLY595 
 THR596  GLU597  ILE598  GLY599  VAL600  ARG601  ASP602  TYR603  ASP605  ARG608 
 ILE653  VAL654  TRP683  PRO687  SER691  PHE696  HIS697  TYR711  HEM750  H4B760 

> <Gold.Protein.RotatedAtoms>
  121.7575  249.9475  330.2471 H   0  0  0  0  0  0  0  0  0  0  0  0  # atno 3570 bound_to 3563
  124.7035  249.1022  328.7591 H   0  0  0  0  0  0  0  0  0  0  0  0  # atno 3596 bound_to 3592
  125.4410  246.3015  318.2730 H   0  0  0  0  0  0  0  0  0  0  0  0  # atno 4893 bound_to 4888
  123.4307  247.4181  314.7694 H   0  0  0  0  0  0  0  0  0  0  0  0  # atno 4912 bound_to 4907
  106.8150  245.5614  317.6685 H   0  0  0  0  0  0  0  0  0  0  0  0  # atno 5552 bound_to 5546
  107.0847  244.2333  322.2067 H   0  0  0  0  0  0  0  0  0  0  0  0  # atno 5556 bound_to 5551
  108.8226  245.6725  319.1737 H   0  0  0  0  0  0  0  0  0  0  0  0  # atno 5580 bound_to 5571
  110.3359  243.8983  316.8262 H   0  0  0  0  0  0  0  0  0  0  0  0  # atno 5612 bound_to 5604
  112.2436  239.4748  322.0418 H   0  0  0  0  0  0  0  0  0  0  0  0  # atno 8353 bound_to 8344
  115.4465  242.6881  318.5891 H   0  0  0  0  0  0  0  0  0  0  0  0  # atno 8453 bound_to 8448
  114.3398  245.7016  319.0749 H   0  0  0  0  0  0  0  0  0  0  0  0  # atno 8477 bound_to 8470
  112.5035  248.2207  318.3375 H   0  0  0  0  0  0  0  0  0  0  0  0  # atno 8507 bound_to 8501
  109.8900  246.7797  317.4862 H   0  0  0  0  0  0  0  0  0  0  0  0  # atno 8511 bound_to 8506
  109.3523  249.3859  317.9493 H   0  0  0  0  0  0  0  0  0  0  0  0  # atno 8533 bound_to 8525
  115.5735  250.5343  315.7424 H   0  0  0  0  0  0  0  0  0  0  0  0  # atno 8973 bound_to 8962
  119.0825  247.9639  316.1044 H   0  0  0  0  0  0  0  0  0  0  0  0  # atno 9003 bound_to 8997
  119.8100  244.4375  315.0624 H   0  0  0  0  0  0  0  0  0  0  0  0  # atno 9007 bound_to 9002
  120.1892  244.5512  318.7182 H   0  0  0  0  0  0  0  0  0  0  0  0  # atno 9021 bound_to 9017
  121.8898  243.6828  320.8595 H   0  0  0  0  0  0  0  0  0  0  0  0  # atno 9055 bound_to 9041
  121.3660  240.3601  322.0713 H   0  0  0  0  0  0  0  0  0  0  0  0  # atno 9099 bound_to 9087
  114.5417  238.5726  323.1573 H   0  0  0  0  0  0  0  0  0  0  0  0  # atno 9107 bound_to 9098
  120.9866  241.3545  326.5286 H   0  0  0  0  0  0  0  0  0  0  0  0  # atno 9133 bound_to 9125
  123.1357  238.0643  328.6749 H   0  0  0  0  0  0  0  0  0  0  0  0  # atno 9159 bound_to 9155
  119.4830  240.7383  332.9083 H   0  0  0  0  0  0  0  0  0  0  0  0  # atno 9185 bound_to 9178
  118.0532  239.0786  331.1077 H   0  0  0  0  0  0  0  0  0  0  0  0  # atno 9211 bound_to 9202
  116.6365  238.2338  327.8325 H   0  0  0  0  0  0  0  0  0  0  0  0  # atno 9247 bound_to 9231
  116.2267  234.8073  329.1070 H   0  0  0  0  0  0  0  0  0  0  0  0  # atno 9272 bound_to 9265
  115.4059  235.1257  331.9592 H   0  0  0  0  0  0  0  0  0  0  0  0  # atno 9298 bound_to 9282
  114.5662  238.0203  332.0777 H   0  0  0  0  0  0  0  0  0  0  0  0  # atno 9342 bound_to 9318
  112.6463  238.2738  329.8606 H   0  0  0  0  0  0  0  0  0  0  0  0  # atno 9375 bound_to 9363
  112.1853  234.7275  329.3185 H   0  0  0  0  0  0  0  0  0  0  0  0  # atno 9412 bound_to 9391
  125.3136  237.8212  326.1275 H   0  0  0  0  0  0  0  0  0  0  0  0  # atno 11075 bound_to 11068
  112.2678  253.0434  328.8480 H   0  0  0  0  0  0  0  0  0  0  0  0  # atno 12897 bound_to 12888
  109.2926  246.4078  336.3860 H   0  0  0  0  0  0  0  0  0  0  0  0  # atno 13469 bound_to 13450
  118.2905  244.1190  318.4001 LP  0  0  0  0  0  0  0  0  0  0  0  0  # atno 13485 bound_to 8425
  118.1565  244.5791  320.0646 LP  0  0  0  0  0  0  0  0  0  0  0  0  # atno 13486 bound_to 8425
  115.9634  243.7506  319.8754 LP  0  0  0  0  0  0  0  0  0  0  0  0  # atno 13487 bound_to 8448
  115.3244  247.1281  318.8411 LP  0  0  0  0  0  0  0  0  0  0  0  0  # atno 13488 bound_to 8470
  115.9038  248.1167  318.1299 LP  0  0  0  0  0  0  0  0  0  0  0  0  # atno 13489 bound_to 8965
  116.7592  246.6249  317.9229 LP  0  0  0  0  0  0  0  0  0  0  0  0  # atno 13490 bound_to 8965
  120.4799  246.2753  318.7729 LP  0  0  0  0  0  0  0  0  0  0  0  0  # atno 13491 bound_to 9017
  121.5441  242.0700  318.6104 LP  0  0  0  0  0  0  0  0  0  0  0  0  # atno 13492 bound_to 9020
  122.7072  242.9638  317.6894 LP  0  0  0  0  0  0  0  0  0  0  0  0  # atno 13493 bound_to 9020
  123.5506  243.6255  320.3086 LP  0  0  0  0  0  0  0  0  0  0  0  0  # atno 13494 bound_to 9041
  121.8916  243.5041  322.9332 LP  0  0  0  0  0  0  0  0  0  0  0  0  # atno 13495 bound_to 9044
  122.7230  242.6075  324.1599 LP  0  0  0  0  0  0  0  0  0  0  0  0  # atno 13496 bound_to 9044
  122.8858  240.6919  322.8696 LP  0  0  0  0  0  0  0  0  0  0  0  0  # atno 13497 bound_to 9087
  124.1423  240.2999  325.1941 LP  0  0  0  0  0  0  0  0  0  0  0  0  # atno 13498 bound_to 9090
  123.4375  238.7177  325.1938 LP  0  0  0  0  0  0  0  0  0  0  0  0  # atno 13499 bound_to 9090
  114.8864  239.6767  322.0129 LP  0  0  0  0  0  0  0  0  0  0  0  0  # atno 13500 bound_to 9098
  114.5844  240.1521  323.5456 LP  0  0  0  0  0  0  0  0  0  0  0  0  # atno 13501 bound_to 9098
  122.1245  240.3281  325.6859 LP  0  0  0  0  0  0  0  0  0  0  0  0  # atno 13502 bound_to 9125
  119.7339  239.8636  328.6874 LP  0  0  0  0  0  0  0  0  0  0  0  0  # atno 13503 bound_to 9128
  119.7658  238.4976  327.6229 LP  0  0  0  0  0  0  0  0  0  0  0  0  # atno 13504 bound_to 9128
  118.7842  238.7754  329.5525 LP  0  0  0  0  0  0  0  0  0  0  0  0  # atno 13505 bound_to 9202
  123.3340  248.7137  327.7485 LP  0  0  0  0  0  0  0  0  0  0  0  0  # atno 13514 bound_to 3592
  118.3591  248.3779  317.6345 LP  0  0  0  0  0  0  0  0  0  0  0  0  # atno 13515 bound_to 8997
  121.1822  247.5516  316.6867 LP  0  0  0  0  0  0  0  0  0  0  0  0  # atno 13516 bound_to 9000
  122.3079  247.0456  317.9019 LP  0  0  0  0  0  0  0  0  0  0  0  0  # atno 13517 bound_to 9000
  121.0690  237.8721  319.0389 LP  0  0  0  0  0  0  0  0  0  0  0  0  # atno 13518 bound_to 8370
  119.7879  238.6248  319.9290 LP  0  0  0  0  0  0  0  0  0  0  0  0  # atno 13519 bound_to 8370
  121.5988  238.9006  328.6886 LP  0  0  0  0  0  0  0  0  0  0  0  0  # atno 13520 bound_to 9155
  126.0942  238.9824  325.0873 LP  0  0  0  0  0  0  0  0  0  0  0  0  # atno 13521 bound_to 11068
  124.5494  239.6682  328.3400 LP  0  0  0  0  0  0  0  0  0  0  0  0  # atno 13522 bound_to 11071
  124.4058  238.0376  328.9061 LP  0  0  0  0  0  0  0  0  0  0  0  0  # atno 13523 bound_to 11071
  124.5399  247.3107  319.1778 LP  0  0  0  0  0  0  0  0  0  0  0  0  # atno 13524 bound_to 4888
  126.1151  247.6424  318.9029 LP  0  0  0  0  0  0  0  0  0  0  0  0  # atno 13525 bound_to 4888
  115.6042  239.4902  318.3676 LP  0  0  0  0  0  0  0  0  0  0  0  0  # atno 13526 bound_to 8388
  115.7763  240.9946  317.5268 LP  0  0  0  0  0  0  0  0  0  0  0  0  # atno 13527 bound_to 8388
  120.5126  245.7657  315.6867 LP  0  0  0  0  0  0  0  0  0  0  0  0  # atno 13528 bound_to 9002
  119.2588  245.9120  314.6509 LP  0  0  0  0  0  0  0  0  0  0  0  0  # atno 13529 bound_to 9002
  112.5171  244.7587  318.6277 LP  0  0  0  0  0  0  0  0  0  0  0  0  # atno 13530 bound_to 8451
  112.8479  245.4868  317.0913 LP  0  0  0  0  0  0  0  0  0  0  0  0  # atno 13531 bound_to 8451
  113.1893  250.0033  317.4428 LP  0  0  0  0  0  0  0  0  0  0  0  0  # atno 13532 bound_to 8473
  114.5207  248.9360  317.7398 LP  0  0  0  0  0  0  0  0  0  0  0  0  # atno 13533 bound_to 8473
  115.2737  248.9406  316.3952 LP  0  0  0  0  0  0  0  0  0  0  0  0  # atno 13534 bound_to 8962
  110.8964  247.9490  318.9584 LP  0  0  0  0  0  0  0  0  0  0  0  0  # atno 13535 bound_to 8501
  122.3856  248.3467  315.8152 LP  0  0  0  0  0  0  0  0  0  0  0  0  # atno 13538 bound_to 4907
  119.5286  248.5356  314.8099 LP  0  0  0  0  0  0  0  0  0  0  0  0  # atno 13539 bound_to 4910
  120.3533  249.5792  315.9194 LP  0  0  0  0  0  0  0  0  0  0  0  0  # atno 13540 bound_to 4910
  109.3159  247.5997  320.1571 LP  0  0  0  0  0  0  0  0  0  0  0  0  # atno 13543 bound_to 5549
  110.5342  246.4749  319.6566 LP  0  0  0  0  0  0  0  0  0  0  0  0  # atno 13544 bound_to 5549
  111.3372  238.1778  322.4226 LP  0  0  0  0  0  0  0  0  0  0  0  0  # atno 13545 bound_to 8344
  110.8987  239.1490  321.1851 LP  0  0  0  0  0  0  0  0  0  0  0  0  # atno 13546 bound_to 8344
  114.1572  237.7648  329.1054 LP  0  0  0  0  0  0  0  0  0  0  0  0  # atno 13547 bound_to 9205
  114.2924  239.4604  329.4318 LP  0  0  0  0  0  0  0  0  0  0  0  0  # atno 13548 bound_to 9205
  107.6583  244.0953  320.6900 LP  0  0  0  0  0  0  0  0  0  0  0  0  # atno 13553 bound_to 5551
  106.0602  243.9265  320.9800 LP  0  0  0  0  0  0  0  0  0  0  0  0  # atno 13554 bound_to 5551
  108.1880  244.0433  319.0333 LP  0  0  0  0  0  0  0  0  0  0  0  0  # atno 13555 bound_to 5571
  112.3595  239.9490  318.3440 LP  0  0  0  0  0  0  0  0  0  0  0  0  # atno 13556 bound_to 5645
  110.8492  239.9925  319.1909 LP  0  0  0  0  0  0  0  0  0  0  0  0  # atno 13557 bound_to 5645
  112.0424  237.1717  331.0779 LP  0  0  0  0  0  0  0  0  0  0  0  0  # atno 13560 bound_to 9363
  116.9455  237.5403  329.4099 LP  0  0  0  0  0  0  0  0  0  0  0  0  # atno 13561 bound_to 9231
  110.2366  236.9713  332.5018 LP  0  0  0  0  0  0  0  0  0  0  0  0  # atno 13562 bound_to 9321
  109.6324  237.7184  331.0607 LP  0  0  0  0  0  0  0  0  0  0  0  0  # atno 13563 bound_to 9321
  105.5414  245.2112  318.8104 LP  0  0  0  0  0  0  0  0  0  0  0  0  # atno 13566 bound_to 5546
  108.9592  242.9554  315.7934 LP  0  0  0  0  0  0  0  0  0  0  0  0  # atno 13567 bound_to 5574
  108.3926  242.9648  317.4301 LP  0  0  0  0  0  0  0  0  0  0  0  0  # atno 13568 bound_to 5574
  112.0677  244.1214  316.7373 LP  0  0  0  0  0  0  0  0  0  0  0  0  # atno 13569 bound_to 5604
  110.3027  250.2568  319.1231 LP  0  0  0  0  0  0  0  0  0  0  0  0  # atno 13570 bound_to 8525
  107.2023  247.8470  317.8871 LP  0  0  0  0  0  0  0  0  0  0  0  0  # atno 13571 bound_to 5523
  107.0730  247.4952  316.1961 LP  0  0  0  0  0  0  0  0  0  0  0  0  # atno 13572 bound_to 5523
  101.8188  242.3222  325.5402 LP  0  0  0  0  0  0  0  0  0  0  0  0  # atno 13573 bound_to 6144
  102.6770  242.2151  324.0396 LP  0  0  0  0  0  0  0  0  0  0  0  0  # atno 13574 bound_to 6144
  109.8948  246.0471  316.0327 LP  0  0  0  0  0  0  0  0  0  0  0  0  # atno 13575 bound_to 8506
  108.7511  247.1577  316.3863 LP  0  0  0  0  0  0  0  0  0  0  0  0  # atno 13576 bound_to 8506
  116.4673  238.7943  332.5045 LP  0  0  0  0  0  0  0  0  0  0  0  0  # atno 13577 bound_to 9175
  116.1959  237.4508  331.4455 LP  0  0  0  0  0  0  0  0  0  0  0  0  # atno 13578 bound_to 9175
  119.9762  240.0108  331.5385 LP  0  0  0  0  0  0  0  0  0  0  0  0  # atno 13579 bound_to 9178
  120.9820  240.1106  332.8211 LP  0  0  0  0  0  0  0  0  0  0  0  0  # atno 13580 bound_to 9178
  113.6546  235.5561  329.3497 LP  0  0  0  0  0  0  0  0  0  0  0  0  # atno 13581 bound_to 9234
  114.3004  234.0676  329.9559 LP  0  0  0  0  0  0  0  0  0  0  0  0  # atno 13582 bound_to 9234
  117.1005  235.9054  330.1527 LP  0  0  0  0  0  0  0  0  0  0  0  0  # atno 13583 bound_to 9265
  116.8151  235.9975  332.5081 LP  0  0  0  0  0  0  0  0  0  0  0  0  # atno 13584 bound_to 9282
  112.6050  236.3876  334.9818 LP  0  0  0  0  0  0  0  0  0  0  0  0  # atno 13585 bound_to 9285
  111.9992  235.9477  333.4198 LP  0  0  0  0  0  0  0  0  0  0  0  0  # atno 13586 bound_to 9285
  113.7395  237.0921  333.3062 LP  0  0  0  0  0  0  0  0  0  0  0  0  # atno 13587 bound_to 9318
  111.3972  235.4163  330.7188 LP  0  0  0  0  0  0  0  0  0  0  0  0  # atno 13588 bound_to 9391
  108.8685  235.6458  329.6033 LP  0  0  0  0  0  0  0  0  0  0  0  0  # atno 13592 bound_to 9366
  109.4426  234.1937  328.8538 LP  0  0  0  0  0  0  0  0  0  0  0  0  # atno 13593 bound_to 9366
  111.2057  251.8112  328.8907 LP  0  0  0  0  0  0  0  0  0  0  0  0  # atno 13594 bound_to 12888
  111.1550  252.9767  330.0334 LP  0  0  0  0  0  0  0  0  0  0  0  0  # atno 13595 bound_to 12888
  108.8115  246.9888  337.8284 LP  0  0  0  0  0  0  0  0  0  0  0  0  # atno 13596 bound_to 13450
  110.3839  246.6295  337.5732 LP  0  0  0  0  0  0  0  0  0  0  0  0  # atno 13597 bound_to 13450

> <Gold.Score>
     Fitness  S(hb_ext) S(vdw_ext)  S(hb_int)    S(int)      intcor
     32.31       1.94      22.90       0.00      -1.12      -0.76

> <Gold.Goldscore.Fitness>
32.3108

> <Gold.Goldscore.Internal.Vdw>
-1.4282

> <Gold.Goldscore.Internal.Torsion>
-0.4497

> <Gold.Goldscore.External.Vdw>
22.8986

> <Gold.Goldscore.Internal.HBond>
0.0000

> <Gold.Goldscore.External.HBond>
1.9446

> <Gold.Goldscore.Internal.Correction>
-0.7585

> <Gold.Goldscore.Hbonds>
donor molecule, donor type, donor heavy atom, donor atom, acceptor molecule, acceptor atom, score
      L1  H    10    23       P1  9098  0.97

> <Gold.Goldscore.Internal.Vdw.Weighted>
-1.4282

> <Gold.Goldscore.Internal.Torsion.Weighted>
-0.4497

> <Gold.Goldscore.External.Vdw.Weighted>
31.4856

> <Gold.Goldscore.Internal.HBond.Weighted>
0.0000

> <Gold.Goldscore.External.HBond.Weighted>
1.9446

> <Gold.Goldscore.Internal.Correction.Weighted>
-0.7585

> <Gold.Rescore>
     Score     S(PLP)   S(hbond)     S(cho)   S(metal)  DE(clash)   DE(tors)     intcor
     21.01     -23.25       0.00       0.00       0.00       0.00       1.12       ----

> <Gold.PLP.Fitness>
21.0114

> <Gold.PLP.PLP>
-23.2498

> <Gold.PLP.part.hbond>
0.0000

> <Gold.PLP.part.metal>
0.0000

> <Gold.PLP.part.buried>
-6.4529

> <Gold.PLP.part.nonpolar>
-18.7996

> <Gold.PLP.part.repulsive>
2.4691

> <Gold.PLP.ligand.clash>
0.0000

> <Gold.PLP.ligand.torsion>
1.1192

> <Gold.PLP.Chemscore.Hbond>
0.0000

> <Gold.PLP.Chemscore.CHOScore>
0.0000

> <Gold.PLP.Chemscore.Metal>
0.0000

> <Gold.Chemscore.Hbonds>
donor molecule, donor type, donor heavy atom, donor atom, acceptor molecule, acceptor atom, score
      L1  H    10    23       P1  9098  0.37

> <Gold.PLP.Chemscore.Internal.Correction>
   9.000000E+99

#       Name:                CT1002167954
#       Creating user name   hitesit
#       Creation time:       Sun Apr 16 22:52:10 2023


#       File generated by GOLD software.
#

@<TRIPOS>MOLECULE
CT1002167954|ligand_prepared|mol2|1|dock8
    29    30     1
SMALL
NO_CHARGES


@<TRIPOS>ATOM
      1 C1         111.1643 242.6662 328.7365 C.3            1 RES1               0.0000
      2 C2         110.9911 242.9035 327.2224 C.ar           1 RES1               0.0000
      3 C3         111.8298 241.3010 328.8828 C.2            1 RES1               0.0000
      4 C4         112.0047 243.8270 329.2569 C.2            1 RES1               0.0000
      5 C5         109.8327 242.6503 329.5227 C.3            1 RES1               0.0000
      6 C6         111.8797 242.3413 326.3108 C.ar           1 RES1               0.0000
      7 C7         109.9480 243.6788 326.7229 C.ar           1 RES1               0.0000
      8 N8         113.1460 241.2746 329.2391 N.am           1 RES1               0.0000
      9 O9         111.2199 240.2645 328.6505 O.2            1 RES1               0.0000
     10 N10        113.2561 243.5476 329.7402 N.am           1 RES1               0.0000
     11 O11        111.6010 244.9833 329.2374 O.2            1 RES1               0.0000
     12 C12        109.9747 242.1730 330.9595 C.3            1 RES1               0.0000
     13 C13        111.7293 242.5442 324.9490 C.ar           1 RES1               0.0000
     14 C14        109.7995 243.8806 325.3606 C.ar           1 RES1               0.0000
     15 C15        113.8767 242.3282 329.7265 C.2            1 RES1               0.0000
     16 C16        110.6890 243.3135 324.4730 C.ar           1 RES1               0.0000
     17 O17        115.0251 242.1665 330.1294 O.2            1 RES1               0.0000
     18 H18        109.4131 243.6638 329.5272 H              1 RES1               0.0000
     19 H19        109.1229 241.9958 329.0019 H              1 RES1               0.0000
     20 H20        112.7059 241.7349 326.6669 H              1 RES1               0.0000
     21 H21        109.2368 244.1357 327.4027 H              1 RES1               0.0000
     22 H22        113.6318 240.3897 329.1334 H              1 RES1               0.0000
     23 H23        113.7729 244.3203 330.1481 H              1 RES1               0.0000
     24 H24        109.0116 242.1812 331.4656 H              1 RES1               0.0000
     25 H25        110.3660 241.1583 330.9920 H              1 RES1               0.0000
     26 H26        110.6545 242.8164 331.5142 H              1 RES1               0.0000
     27 H27        112.4328 242.0968 324.2546 H              1 RES1               0.0000
     28 H28        108.9797 244.4873 324.9905 H              1 RES1               0.0000
     29 H29        110.5712 243.4720 323.4061 H              1 RES1               0.0000
@<TRIPOS>BOND
    1    1    2 1     
    2    1    3 1     
    3    1    4 1     
    4    1    5 1     
    5    2    6 ar    
    6    2    7 ar    
    7    3    8 1     
    8    3    9 2     
    9    4   10 1     
   10    4   11 2     
   11    5   12 1     
   12    5   18 1     
   13    5   19 1     
   14    6   13 ar    
   15    6   20 1     
   16    7   14 ar    
   17    7   21 1     
   18    8   15 1     
   19    8   22 1     
   20   10   15 1     
   21   10   23 1     
   22   12   24 1     
   23   12   25 1     
   24   12   26 1     
   25   13   16 ar    
   26   13   27 1     
   27   14   16 ar    
   28   14   28 1     
   29   15   17 2     
   30   16   29 1     
@<TRIPOS>SUBSTRUCTURE
      1 RES1           1
@<TRIPOS>SET
DONOR_HYDROGENS      STATIC     ATOMS    <user>   **** ""
2 22 23
ATOM$RED        STATIC     ATOMS    COLORGROUP SYSTEM
2 22 23
@<TRIPOS>COMMENT
> <Gold.Version>
2022.3.0

> <Gold.Id.Protein>
unknown|4uh6_clean|pdb

> <Gold.Protein.RotatedTorsions>
[ 8453 8448 8449 8450 ] final -128.68 input   43.75 | X-H torsion
[ 8477 8470 8471 8472 ] final   15.50 input  101.27 | X-H torsion
[ 9021 9017 9018 9019 ] final  128.14 input   41.82 | X-H torsion
[ 9055 9041 9042 9043 ] final -121.98 input   38.00 | X-H torsion
[ 9099 9087 9088 9089 ] final  178.32 input   99.63 | X-H torsion
[ 9107 9098 9097 9095 ] final  140.44 input   60.00 | X-H torsion
[ 9133 9125 9126 9127 ] final   46.89 input   87.39 | X-H torsion
[ 9211 9202 9203 9204 ] final   24.33 input  119.00 | X-H torsion
[ 3596 3592 3593 3594 ] final -153.58 input   87.50 | X-H torsion
[ 9003 8997 8998 8999 ] final -136.98 input   29.71 | X-H torsion
[ 9159 9155 9156 9157 ] final   23.44 input  127.29 | X-H torsion
[ 11075 11068 11069 11070 ] final  -97.66 input   56.03 | X-H torsion
[ 4893 4888 4887 4884 ] final  141.69 input   60.01 | X-H torsion
[ 9007 9002 9001 8998 ] final   16.26 input   59.98 | X-H torsion
[ 8973 8962 8963 8964 ] final   57.91 input   50.05 | X-H torsion
[ 8507 8501 8502 8503 ] final  -67.75 input   53.62 | X-H torsion
[ 4912 4907 4908 4909 ] final  128.34 input   25.27 | X-H torsion
[ 8353 8344 8343 8341 ] final   53.63 input   59.99 | X-H torsion
[ 5556 5551 5550 5547 ] final  -92.99 input   59.99 | X-H torsion
[ 5580 5571 5572 5573 ] final -103.64 input   51.16 | X-H torsion
[ 9375 9363 9364 9365 ] final -150.78 input  121.73 | X-H torsion
[ 9247 9231 9232 9233 ] final  -42.99 input   97.49 | X-H torsion
[ 5552 5546 5547 5548 ] final -154.91 input   98.49 | X-H torsion
[ 5612 5604 5605 5606 ] final   83.10 input  122.00 | X-H torsion
[ 8533 8525 8526 8527 ] final  -14.15 input   68.51 | X-H torsion
[ 8511 8506 8505 8502 ] final   20.31 input   59.98 | X-H torsion
[ 9185 9178 9176 9173 ] final   73.18 input   60.02 | X-H torsion
[ 9272 9265 9266 9267 ] final -169.82 input  106.17 | X-H torsion
[ 9298 9282 9283 9284 ] final   61.42 input   76.97 | X-H torsion
[ 9342 9318 9319 9320 ] final   96.13 input  100.94 | X-H torsion
[ 9412 9391 9392 9393 ] final   64.47 input   95.23 | X-H torsion
[ 12897 12888 12887 12885 ] final   15.19 input   60.01 | X-H torsion
[ 13469 13450 13449 13445 ] final  145.87 input   59.98 | X-H torsion
[ 3570 3563 3564 3565 ] final  121.25 input   99.66 | X-H torsion
[ 13485 8425 8424 8423 ] final    9.53 input    0.00 | X-H torsion
[ 13489 8965 8964 8963 ] final  -41.88 input    0.00 | X-H torsion
[ 13492 9020 9019 9018 ] final   30.83 input   -0.00 | X-H torsion
[ 13495 9044 9043 9042 ] final  171.89 input    0.00 | X-H torsion
[ 13498 9090 9089 9088 ] final -156.79 input    0.00 | X-H torsion
[ 13503 9128 9127 9126 ] final   33.72 input    0.00 | X-H torsion
[ 13516 9000 8999 8998 ] final -165.84 input    0.00 | X-H torsion
[ 13518 8370 8369 8368 ] final  -74.88 input    0.00 | X-H torsion
[ 13522 11071 11070 11069 ] final   32.55 input   -0.00 | X-H torsion
[ 13526 8388 8387 8386 ] final  164.10 input    0.00 | X-H torsion
[ 13530 8451 8450 8449 ] final   73.07 input    0.00 | X-H torsion
[ 13532 8473 8472 8471 ] final -115.30 input    0.00 | X-H torsion
[ 13539 4910 4909 4908 ] final   92.24 input   -0.00 | X-H torsion
[ 13543 5549 5548 5547 ] final  109.77 input    0.00 | X-H torsion
[ 13547 9205 9204 9203 ] final   39.78 input   -0.00 | X-H torsion
[ 13556 5645 5644 5643 ] final  -36.59 input   -0.00 | X-H torsion
[ 13562 9321 9320 9319 ] final  -34.88 input    0.00 | X-H torsion
[ 13567 5574 5573 5572 ] final  -50.70 input    0.00 | X-H torsion
[ 13571 5523 5522 5521 ] final  -18.33 input    0.00 | X-H torsion
[ 13573 6144 6143 6142 ] final  -15.67 input    0.00 | X-H torsion
[ 13577 9175 9174 9173 ] final  106.08 input    0.00 | X-H torsion
[ 13581 9234 9233 9232 ] final  -52.97 input    0.00 | X-H torsion
[ 13585 9285 9284 9283 ] final    9.11 input    0.00 | X-H torsion
[ 13592 9366 9365 9364 ] final -170.85 input   -0.00 | X-H torsion

> <Gold.Protein.ActiveResidues>
 TRP311  MET341  HIS342  TRP414  ARG419  CYS420  VAL421  GLY422  LEU429  LEU460 
 SER462  ALA463  ILE464  ASN481  SER482  GLN483  LEU484  ILE485  ARG486  ASP500 
 ALA502  ASN503  TRP566  TYR567  GLY568  LEU569  PRO570  ALA571  VAL572  SER573 
 ASN574  MET575  PRO588  PHE589  SER590  GLY591  TRP592  TYR593  MET594  GLY595 
 THR596  GLU597  ILE598  GLY599  VAL600  ARG601  ASP602  TYR603  ASP605  ARG608 
 ILE653  VAL654  TRP683  PRO687  SER691  PHE696  HIS697  TYR711  HEM750  H4B760 

> <Gold.Protein.RotatedAtoms>
  121.5984  248.9848  329.8150 H   0  0  0  0  0  0  0  0  0  0  0  0  # atno 3570 bound_to 3563
  124.0915  248.1078  328.6116 H   0  0  0  0  0  0  0  0  0  0  0  0  # atno 3596 bound_to 3592
  126.0882  247.6631  318.9208 H   0  0  0  0  0  0  0  0  0  0  0  0  # atno 4893 bound_to 4888
  122.9709  247.1637  314.7985 H   0  0  0  0  0  0  0  0  0  0  0  0  # atno 4912 bound_to 4907
  105.5454  245.9965  318.3375 H   0  0  0  0  0  0  0  0  0  0  0  0  # atno 5552 bound_to 5546
  106.0675  243.9296  320.9774 H   0  0  0  0  0  0  0  0  0  0  0  0  # atno 5556 bound_to 5551
  108.7646  245.6861  318.9733 H   0  0  0  0  0  0  0  0  0  0  0  0  # atno 5580 bound_to 5571
  112.0546  243.7513  316.8727 H   0  0  0  0  0  0  0  0  0  0  0  0  # atno 5612 bound_to 5604
  111.4946  238.2337  322.5040 H   0  0  0  0  0  0  0  0  0  0  0  0  # atno 8353 bound_to 8344
  116.5445  243.4636  319.3814 H   0  0  0  0  0  0  0  0  0  0  0  0  # atno 8453 bound_to 8448
  114.9050  246.9348  318.2346 H   0  0  0  0  0  0  0  0  0  0  0  0  # atno 8477 bound_to 8470
  111.9931  248.8545  318.9454 H   0  0  0  0  0  0  0  0  0  0  0  0  # atno 8507 bound_to 8501
  109.2681  247.2192  317.3489 H   0  0  0  0  0  0  0  0  0  0  0  0  # atno 8511 bound_to 8506
  110.3730  250.4992  318.6594 H   0  0  0  0  0  0  0  0  0  0  0  0  # atno 8533 bound_to 8525
  115.2308  249.6269  316.9317 H   0  0  0  0  0  0  0  0  0  0  0  0  # atno 8973 bound_to 8962
  117.9627  248.1949  317.3085 H   0  0  0  0  0  0  0  0  0  0  0  0  # atno 9003 bound_to 8997
  120.4615  245.8666  315.6502 H   0  0  0  0  0  0  0  0  0  0  0  0  # atno 9007 bound_to 9002
  120.2231  245.9929  319.4189 H   0  0  0  0  0  0  0  0  0  0  0  0  # atno 9021 bound_to 9017
  122.1819  243.4533  319.9109 H   0  0  0  0  0  0  0  0  0  0  0  0  # atno 9055 bound_to 9041
  121.3440  240.5006  322.0799 H   0  0  0  0  0  0  0  0  0  0  0  0  # atno 9099 bound_to 9087
  114.8817  239.5481  321.9978 H   0  0  0  0  0  0  0  0  0  0  0  0  # atno 9107 bound_to 9098
  120.7536  240.8026  326.4605 H   0  0  0  0  0  0  0  0  0  0  0  0  # atno 9133 bound_to 9125
  121.9893  238.8193  329.4209 H   0  0  0  0  0  0  0  0  0  0  0  0  # atno 9159 bound_to 9155
  119.2751  240.5407  332.1890 H   0  0  0  0  0  0  0  0  0  0  0  0  # atno 9185 bound_to 9178
  118.3054  238.1626  329.9048 H   0  0  0  0  0  0  0  0  0  0  0  0  # atno 9211 bound_to 9202
  116.2668  237.9396  329.3498 H   0  0  0  0  0  0  0  0  0  0  0  0  # atno 9247 bound_to 9231
  116.9574  234.7398  329.0750 H   0  0  0  0  0  0  0  0  0  0  0  0  # atno 9272 bound_to 9265
  116.1215  236.3833  331.9120 H   0  0  0  0  0  0  0  0  0  0  0  0  # atno 9298 bound_to 9282
  114.5666  238.0216  332.0790 H   0  0  0  0  0  0  0  0  0  0  0  0  # atno 9342 bound_to 9318
  112.0812  238.4908  330.1335 H   0  0  0  0  0  0  0  0  0  0  0  0  # atno 9375 bound_to 9363
  112.3467  235.1404  330.7096 H   0  0  0  0  0  0  0  0  0  0  0  0  # atno 9412 bound_to 9391
  126.1681  237.6656  325.5172 H   0  0  0  0  0  0  0  0  0  0  0  0  # atno 11075 bound_to 11068
  111.7671  252.0852  328.5149 H   0  0  0  0  0  0  0  0  0  0  0  0  # atno 12897 bound_to 12888
  109.0271  247.0125  337.9981 H   0  0  0  0  0  0  0  0  0  0  0  0  # atno 13469 bound_to 13450
  118.7375  243.7149  319.5216 LP  0  0  0  0  0  0  0  0  0  0  0  0  # atno 13485 bound_to 8425
  117.7096  244.9832  318.9431 LP  0  0  0  0  0  0  0  0  0  0  0  0  # atno 13486 bound_to 8425
  114.8871  242.9905  319.0988 LP  0  0  0  0  0  0  0  0  0  0  0  0  # atno 13487 bound_to 8448
  114.7743  245.9281  319.6587 LP  0  0  0  0  0  0  0  0  0  0  0  0  # atno 13488 bound_to 8470
  116.0559  248.1206  318.3609 LP  0  0  0  0  0  0  0  0  0  0  0  0  # atno 13489 bound_to 8965
  116.6071  246.6210  317.6919 LP  0  0  0  0  0  0  0  0  0  0  0  0  # atno 13490 bound_to 8965
  120.4471  244.8749  318.0923 LP  0  0  0  0  0  0  0  0  0  0  0  0  # atno 13491 bound_to 9017
  122.3661  243.1473  317.6069 LP  0  0  0  0  0  0  0  0  0  0  0  0  # atno 13492 bound_to 9020
  121.8852  241.8866  318.6929 LP  0  0  0  0  0  0  0  0  0  0  0  0  # atno 13493 bound_to 9020
  123.2681  243.8475  321.2261 LP  0  0  0  0  0  0  0  0  0  0  0  0  # atno 13494 bound_to 9041
  121.8893  242.6007  324.1532 LP  0  0  0  0  0  0  0  0  0  0  0  0  # atno 13495 bound_to 9044
  122.7254  243.5109  322.9398 LP  0  0  0  0  0  0  0  0  0  0  0  0  # atno 13496 bound_to 9044
  122.9073  240.5551  322.8612 LP  0  0  0  0  0  0  0  0  0  0  0  0  # atno 13497 bound_to 9087
  123.8226  239.3468  326.0441 LP  0  0  0  0  0  0  0  0  0  0  0  0  # atno 13498 bound_to 9090
  123.7571  239.6709  324.3439 LP  0  0  0  0  0  0  0  0  0  0  0  0  # atno 13499 bound_to 9090
  114.6128  240.2337  323.4487 LP  0  0  0  0  0  0  0  0  0  0  0  0  # atno 13500 bound_to 9098
  114.5155  238.6126  323.2777 LP  0  0  0  0  0  0  0  0  0  0  0  0  # atno 13501 bound_to 9098
  122.3513  240.8652  325.7522 LP  0  0  0  0  0  0  0  0  0  0  0  0  # atno 13502 bound_to 9125
  119.8239  239.6453  327.4281 LP  0  0  0  0  0  0  0  0  0  0  0  0  # atno 13503 bound_to 9128
  119.6758  238.7160  328.8822 LP  0  0  0  0  0  0  0  0  0  0  0  0  # atno 13504 bound_to 9128
  118.5356  239.6783  330.7382 LP  0  0  0  0  0  0  0  0  0  0  0  0  # atno 13505 bound_to 9202
  123.9358  249.6915  327.8935 LP  0  0  0  0  0  0  0  0  0  0  0  0  # atno 13514 bound_to 3592
  119.4715  248.1484  316.4384 LP  0  0  0  0  0  0  0  0  0  0  0  0  # atno 13515 bound_to 8997
  122.3666  246.7854  317.6111 LP  0  0  0  0  0  0  0  0  0  0  0  0  # atno 13516 bound_to 9000
  121.1235  247.8117  316.9775 LP  0  0  0  0  0  0  0  0  0  0  0  0  # atno 13517 bound_to 9000
  119.9815  238.0591  320.2012 LP  0  0  0  0  0  0  0  0  0  0  0  0  # atno 13518 bound_to 8370
  120.8753  238.4378  318.7667 LP  0  0  0  0  0  0  0  0  0  0  0  0  # atno 13519 bound_to 8370
  122.7103  238.1687  327.9653 LP  0  0  0  0  0  0  0  0  0  0  0  0  # atno 13520 bound_to 9155
  125.2482  239.1364  325.6916 LP  0  0  0  0  0  0  0  0  0  0  0  0  # atno 13521 bound_to 11068
  124.3527  238.6625  327.7875 LP  0  0  0  0  0  0  0  0  0  0  0  0  # atno 13522 bound_to 11071
  124.6025  239.0432  329.4586 LP  0  0  0  0  0  0  0  0  0  0  0  0  # atno 13523 bound_to 11071
  125.4786  246.3034  318.2658 LP  0  0  0  0  0  0  0  0  0  0  0  0  # atno 13524 bound_to 4888
  124.5250  247.2794  319.1629 LP  0  0  0  0  0  0  0  0  0  0  0  0  # atno 13525 bound_to 4888
  115.4886  240.5917  318.7135 LP  0  0  0  0  0  0  0  0  0  0  0  0  # atno 13526 bound_to 8388
  115.8919  239.8930  317.1808 LP  0  0  0  0  0  0  0  0  0  0  0  0  # atno 13527 bound_to 8388
  119.2124  245.8104  314.6090 LP  0  0  0  0  0  0  0  0  0  0  0  0  # atno 13528 bound_to 9002
  119.9026  244.4275  315.1364 LP  0  0  0  0  0  0  0  0  0  0  0  0  # atno 13529 bound_to 9002
  112.6775  244.4681  318.4265 LP  0  0  0  0  0  0  0  0  0  0  0  0  # atno 13530 bound_to 8451
  112.6876  245.7774  317.2925 LP  0  0  0  0  0  0  0  0  0  0  0  0  # atno 13531 bound_to 8451
  113.4265  250.1543  317.9036 LP  0  0  0  0  0  0  0  0  0  0  0  0  # atno 13532 bound_to 8473
  114.2835  248.7849  317.2790 LP  0  0  0  0  0  0  0  0  0  0  0  0  # atno 13533 bound_to 8473
  115.6076  249.8247  315.2362 LP  0  0  0  0  0  0  0  0  0  0  0  0  # atno 13534 bound_to 8962
  111.4004  247.3230  318.3579 LP  0  0  0  0  0  0  0  0  0  0  0  0  # atno 13535 bound_to 8501
  122.8376  248.5968  315.7867 LP  0  0  0  0  0  0  0  0  0  0  0  0  # atno 13538 bound_to 4907
  120.3448  249.5885  315.9167 LP  0  0  0  0  0  0  0  0  0  0  0  0  # atno 13539 bound_to 4910
  119.5370  248.5262  314.8126 LP  0  0  0  0  0  0  0  0  0  0  0  0  # atno 13540 bound_to 4910
  110.1576  246.5403  320.5768 LP  0  0  0  0  0  0  0  0  0  0  0  0  # atno 13543 bound_to 5549
  109.6925  247.5344  319.2369 LP  0  0  0  0  0  0  0  0  0  0  0  0  # atno 13544 bound_to 5549
  110.8071  238.9970  321.2417 LP  0  0  0  0  0  0  0  0  0  0  0  0  # atno 13545 bound_to 8344
  112.1830  239.5794  321.9007 LP  0  0  0  0  0  0  0  0  0  0  0  0  # atno 13546 bound_to 8344
  114.2336  239.4455  329.0314 LP  0  0  0  0  0  0  0  0  0  0  0  0  # atno 13547 bound_to 9205
  114.2160  237.7798  329.5058 LP  0  0  0  0  0  0  0  0  0  0  0  0  # atno 13548 bound_to 9205
  107.0813  244.2313  322.2141 LP  0  0  0  0  0  0  0  0  0  0  0  0  # atno 13553 bound_to 5551
  107.6613  244.0962  320.6936 LP  0  0  0  0  0  0  0  0  0  0  0  0  # atno 13554 bound_to 5551
  108.2435  244.0302  319.2249 LP  0  0  0  0  0  0  0  0  0  0  0  0  # atno 13555 bound_to 5571
  112.3689  239.7908  318.4026 LP  0  0  0  0  0  0  0  0  0  0  0  0  # atno 13556 bound_to 5645
  110.8398  240.1506  319.1322 LP  0  0  0  0  0  0  0  0  0  0  0  0  # atno 13557 bound_to 5645
  112.5905  236.9612  330.8133 LP  0  0  0  0  0  0  0  0  0  0  0  0  # atno 13560 bound_to 9363
  117.3028  237.8247  327.9433 LP  0  0  0  0  0  0  0  0  0  0  0  0  # atno 13561 bound_to 9231
  110.1995  237.2142  332.5953 LP  0  0  0  0  0  0  0  0  0  0  0  0  # atno 13562 bound_to 9321
  109.6695  237.4755  330.9672 LP  0  0  0  0  0  0  0  0  0  0  0  0  # atno 13563 bound_to 9321
  106.7882  244.7839  318.1534 LP  0  0  0  0  0  0  0  0  0  0  0  0  # atno 13566 bound_to 5546
  108.6968  242.4482  317.3100 LP  0  0  0  0  0  0  0  0  0  0  0  0  # atno 13567 bound_to 5574
  108.6549  243.4720  315.9135 LP  0  0  0  0  0  0  0  0  0  0  0  0  # atno 13568 bound_to 5574
  110.3932  244.2647  316.6919 LP  0  0  0  0  0  0  0  0  0  0  0  0  # atno 13569 bound_to 5604
  109.2911  249.1534  318.4193 LP  0  0  0  0  0  0  0  0  0  0  0  0  # atno 13570 bound_to 8525
  107.0767  247.4933  316.1963 LP  0  0  0  0  0  0  0  0  0  0  0  0  # atno 13571 bound_to 5523
  107.1986  247.8489  317.8870 LP  0  0  0  0  0  0  0  0  0  0  0  0  # atno 13572 bound_to 5523
  102.2638  242.4136  325.6436 LP  0  0  0  0  0  0  0  0  0  0  0  0  # atno 13573 bound_to 6144
  102.2320  242.1237  323.9362 LP  0  0  0  0  0  0  0  0  0  0  0  0  # atno 13574 bound_to 6144
  110.2593  246.0919  316.7194 LP  0  0  0  0  0  0  0  0  0  0  0  0  # atno 13575 bound_to 8506
  109.0124  246.6706  315.8379 LP  0  0  0  0  0  0  0  0  0  0  0  0  # atno 13576 bound_to 8506
  116.3137  238.9438  332.2492 LP  0  0  0  0  0  0  0  0  0  0  0  0  # atno 13577 bound_to 9175
  116.3496  237.3013  331.7007 LP  0  0  0  0  0  0  0  0  0  0  0  0  # atno 13578 bound_to 9175
  120.6875  239.8307  331.8021 LP  0  0  0  0  0  0  0  0  0  0  0  0  # atno 13579 bound_to 9178
  120.4801  240.4897  333.2818 LP  0  0  0  0  0  0  0  0  0  0  0  0  # atno 13580 bound_to 9178
  113.6975  235.6313  329.6461 LP  0  0  0  0  0  0  0  0  0  0  0  0  # atno 13581 bound_to 9234
  114.2575  233.9924  329.6595 LP  0  0  0  0  0  0  0  0  0  0  0  0  # atno 13582 bound_to 9234
  116.3934  235.9707  330.1837 LP  0  0  0  0  0  0  0  0  0  0  0  0  # atno 13583 bound_to 9265
  116.1111  234.7603  332.5546 LP  0  0  0  0  0  0  0  0  0  0  0  0  # atno 13584 bound_to 9282
  112.7827  235.6902  334.7403 LP  0  0  0  0  0  0  0  0  0  0  0  0  # atno 13585 bound_to 9285
  111.8215  236.6451  333.6614 LP  0  0  0  0  0  0  0  0  0  0  0  0  # atno 13586 bound_to 9285
  113.7391  237.0909  333.3050 LP  0  0  0  0  0  0  0  0  0  0  0  0  # atno 13587 bound_to 9318
  111.2397  235.0138  329.3624 LP  0  0  0  0  0  0  0  0  0  0  0  0  # atno 13588 bound_to 9391
  109.2615  234.2269  329.7372 LP  0  0  0  0  0  0  0  0  0  0  0  0  # atno 13592 bound_to 9366
  109.0496  235.6127  328.7199 LP  0  0  0  0  0  0  0  0  0  0  0  0  # atno 13593 bound_to 9366
  110.8314  252.3572  329.8181 LP  0  0  0  0  0  0  0  0  0  0  0  0  # atno 13594 bound_to 12888
  112.0338  253.3960  329.4415 LP  0  0  0  0  0  0  0  0  0  0  0  0  # atno 13595 bound_to 12888
  110.4260  246.5336  337.3175 LP  0  0  0  0  0  0  0  0  0  0  0  0  # atno 13596 bound_to 13450
  109.0367  246.4760  336.4613 LP  0  0  0  0  0  0  0  0  0  0  0  0  # atno 13597 bound_to 13450

> <Gold.Score>
     Fitness  S(hb_ext) S(vdw_ext)  S(hb_int)    S(int)      intcor
     31.56       3.89      20.60       0.00      -0.65      -0.76

> <Gold.Goldscore.Fitness>
31.5646

> <Gold.Goldscore.Internal.Vdw>
-0.8702

> <Gold.Goldscore.Internal.Torsion>
-0.5396

> <Gold.Goldscore.External.Vdw>
20.6028

> <Gold.Goldscore.Internal.HBond>
0.0000

> <Gold.Goldscore.External.HBond>
3.8870

> <Gold.Goldscore.Internal.Correction>
-0.7585

> <Gold.Goldscore.Hbonds>
donor molecule, donor type, donor heavy atom, donor atom, acceptor molecule, acceptor atom, score
      P1  H  9537  9548       L1     9  0.06
      P1  H  9363  9375       L1     9  0.03
      L1  H     8    22       P1  9205  1.00
      L1  H    10    23       P1 13334  0.24

> <Gold.Goldscore.Internal.Vdw.Weighted>
-0.8702

> <Gold.Goldscore.Internal.Torsion.Weighted>
-0.5396

> <Gold.Goldscore.External.Vdw.Weighted>
28.3289

> <Gold.Goldscore.Internal.HBond.Weighted>
0.0000

> <Gold.Goldscore.External.HBond.Weighted>
3.8870

> <Gold.Goldscore.Internal.Correction.Weighted>
-0.7585

> <Gold.Rescore>
     Score     S(PLP)   S(hbond)     S(cho)   S(metal)  DE(clash)   DE(tors)     intcor
      6.71      -2.02       2.51       0.00       0.00       0.00       1.42       ----

> <Gold.PLP.Fitness>
6.7059

> <Gold.PLP.PLP>
-2.0206

> <Gold.PLP.part.hbond>
-3.8826

> <Gold.PLP.part.metal>
0.0000

> <Gold.PLP.part.buried>
9.4352

> <Gold.PLP.part.nonpolar>
-19.4613

> <Gold.PLP.part.repulsive>
11.4516

> <Gold.PLP.ligand.clash>
0.0000

> <Gold.PLP.ligand.torsion>
1.4197

> <Gold.PLP.Chemscore.Hbond>
2.5083

> <Gold.PLP.Chemscore.CHOScore>
0.0000

> <Gold.PLP.Chemscore.Metal>
0.0000

> <Gold.Chemscore.Hbonds>
donor molecule, donor type, donor heavy atom, donor atom, acceptor molecule, acceptor atom, score
      L1  H     8    22       P1  9205  0.99
      L1  H    10    23       P1 13334  0.60
      P1  H  9537  9548       L1     9  0.58
      P1  H  9363  9375       L1     9  0.06

> <Gold.PLP.Chemscore.Internal.Correction>
   9.000000E+99

