#       Name:                GA Fitting Points
#       Creating user name   hitesit
#       Creation time:       Sun Apr 16 22:51:58 2023


#       Fitting Points Used by GA Software.
#

@<TRIPOS>MOLECULE
GA Fitting Points
  9123    0    0
SMALL
NO_CHARGES


@<TRIPOS>ATOM
      1 ****       102.0000 243.7500 322.2500 Du        
      2 ****       102.0000 243.7500 322.5000 Du        
      3 ****       102.0000 243.7500 322.7500 Du        
      4 ****       102.0000 244.0000 322.2500 Du        
      5 ****       102.0000 244.0000 322.5000 Du        
      6 ****       102.0000 244.0000 322.7500 Du        
      7 ****       102.0000 244.0000 323.0000 Du        
      8 ****       102.0000 244.0000 323.2500 Du        
      9 ****       102.0000 244.2500 322.0000 Du        
     10 ****       102.0000 244.2500 322.2500 Du        
     11 ****       102.0000 244.2500 322.5000 Du        
     12 ****       102.0000 244.2500 322.7500 Du        
     13 ****       102.0000 244.2500 323.0000 Du        
     14 ****       102.0000 244.2500 323.2500 Du        
     15 ****       102.0000 244.2500 323.5000 Du        
     16 ****       102.0000 244.5000 322.2500 Du        
     17 ****       102.0000 244.5000 322.5000 Du        
     18 ****       102.0000 244.5000 322.7500 Du        
     19 ****       102.0000 244.5000 323.0000 Du        
     20 ****       102.0000 244.5000 323.2500 Du        
     21 ****       102.0000 244.5000 323.5000 Du        
     22 ****       102.0000 244.5000 323.7500 Du        
     23 ****       102.0000 244.7500 322.2500 Du        
     24 ****       102.0000 244.7500 322.5000 Du        
     25 ****       102.0000 244.7500 322.7500 Du        
     26 ****       102.0000 244.7500 323.0000 Du        
     27 ****       102.0000 244.7500 323.2500 Du        
     28 ****       102.0000 244.7500 323.5000 Du        
     29 ****       102.0000 244.7500 323.7500 Du        
     30 ****       102.0000 244.7500 324.0000 Du        
     31 ****       102.0000 245.0000 322.7500 Du        
     32 ****       102.0000 245.0000 323.0000 Du        
     33 ****       102.0000 245.0000 323.2500 Du        
     34 ****       102.0000 245.0000 323.5000 Du        
     35 ****       102.0000 245.0000 323.7500 Du        
     36 ****       102.0000 245.0000 324.0000 Du        
     37 ****       102.0000 245.0000 324.2500 Du        
     38 ****       102.0000 245.2500 323.0000 Du        
     39 ****       102.0000 245.2500 323.2500 Du        
     40 ****       102.0000 245.2500 323.5000 Du        
     41 ****       102.0000 245.2500 323.7500 Du        
     42 ****       102.0000 245.2500 324.0000 Du        
     43 ****       102.0000 245.2500 324.2500 Du        
     44 ****       102.2500 243.7500 322.0000 Du        
     45 ****       102.2500 243.7500 322.2500 Du        
     46 ****       102.2500 243.7500 322.5000 Du        
     47 ****       102.2500 243.7500 322.7500 Du        
     48 ****       102.2500 244.0000 322.0000 Du        
     49 ****       102.2500 244.0000 322.2500 Du        
     50 ****       102.2500 244.0000 322.5000 Du        
     51 ****       102.2500 244.0000 322.7500 Du        
     52 ****       102.2500 244.0000 323.0000 Du        
     53 ****       102.2500 244.2500 322.0000 Du        
     54 ****       102.2500 244.2500 322.2500 Du        
     55 ****       102.2500 244.2500 322.5000 Du        
     56 ****       102.2500 244.2500 322.7500 Du        
     57 ****       102.2500 244.2500 323.0000 Du        
     58 ****       102.2500 244.2500 323.2500 Du        
     59 ****       102.2500 244.5000 322.0000 Du        
     60 ****       102.2500 244.5000 322.2500 Du        
     61 ****       102.2500 244.5000 322.5000 Du        
     62 ****       102.2500 244.5000 322.7500 Du        
     63 ****       102.2500 244.5000 323.0000 Du        
     64 ****       102.2500 244.5000 323.2500 Du        
     65 ****       102.2500 244.5000 323.5000 Du        
     66 ****       102.2500 244.7500 322.2500 Du        
     67 ****       102.2500 244.7500 322.5000 Du        
     68 ****       102.2500 244.7500 322.7500 Du        
     69 ****       102.2500 244.7500 323.0000 Du        
     70 ****       102.2500 244.7500 323.2500 Du        
     71 ****       102.2500 244.7500 323.5000 Du        
     72 ****       102.2500 244.7500 323.7500 Du        
     73 ****       102.2500 244.7500 324.0000 Du        
     74 ****       102.2500 245.0000 322.5000 Du        
     75 ****       102.2500 245.0000 322.7500 Du        
     76 ****       102.2500 245.0000 323.0000 Du        
     77 ****       102.2500 245.0000 323.2500 Du        
     78 ****       102.2500 245.0000 323.5000 Du        
     79 ****       102.2500 245.0000 323.7500 Du        
     80 ****       102.2500 245.0000 324.0000 Du        
     81 ****       102.2500 245.2500 323.0000 Du        
     82 ****       102.2500 245.2500 323.2500 Du        
     83 ****       102.2500 245.2500 323.5000 Du        
     84 ****       102.2500 245.2500 323.7500 Du        
     85 ****       102.2500 245.2500 324.0000 Du        
     86 ****       102.5000 241.7500 330.2500 Du        
     87 ****       102.5000 243.7500 322.0000 Du        
     88 ****       102.5000 243.7500 322.2500 Du        
     89 ****       102.5000 243.7500 322.5000 Du        
     90 ****       102.5000 244.0000 321.7500 Du        
     91 ****       102.5000 244.0000 322.0000 Du        
     92 ****       102.5000 244.0000 322.2500 Du        
     93 ****       102.5000 244.0000 322.5000 Du        
     94 ****       102.5000 244.0000 322.7500 Du        
     95 ****       102.5000 244.0000 323.0000 Du        
     96 ****       102.5000 244.2500 321.7500 Du        
     97 ****       102.5000 244.2500 322.0000 Du        
     98 ****       102.5000 244.2500 322.2500 Du        
     99 ****       102.5000 244.2500 322.5000 Du        
    100 ****       102.5000 244.2500 322.7500 Du        
    101 ****       102.5000 244.2500 323.0000 Du        
    102 ****       102.5000 244.2500 323.2500 Du        
    103 ****       102.5000 244.5000 322.0000 Du        
    104 ****       102.5000 244.5000 322.2500 Du        
    105 ****       102.5000 244.5000 322.5000 Du        
    106 ****       102.5000 244.5000 322.7500 Du        
    107 ****       102.5000 244.5000 323.0000 Du        
    108 ****       102.5000 244.5000 323.2500 Du        
    109 ****       102.5000 244.7500 322.2500 Du        
    110 ****       102.5000 244.7500 322.5000 Du        
    111 ****       102.5000 244.7500 322.7500 Du        
    112 ****       102.5000 244.7500 323.0000 Du        
    113 ****       102.5000 244.7500 323.2500 Du        
    114 ****       102.5000 244.7500 323.5000 Du        
    115 ****       102.5000 245.0000 322.5000 Du        
    116 ****       102.5000 245.0000 322.7500 Du        
    117 ****       102.5000 245.0000 323.0000 Du        
    118 ****       102.5000 245.0000 323.2500 Du        
    119 ****       102.5000 245.0000 323.5000 Du        
    120 ****       102.5000 245.0000 323.7500 Du        
    121 ****       102.5000 245.2500 322.7500 Du        
    122 ****       102.5000 245.2500 323.0000 Du        
    123 ****       102.5000 245.2500 323.2500 Du        
    124 ****       102.5000 245.2500 323.5000 Du        
    125 ****       102.7500 241.7500 330.0000 Du        
    126 ****       102.7500 241.7500 330.2500 Du        
    127 ****       102.7500 243.7500 321.7500 Du        
    128 ****       102.7500 243.7500 322.0000 Du        
    129 ****       102.7500 243.7500 322.2500 Du        
    130 ****       102.7500 243.7500 322.5000 Du        
    131 ****       102.7500 243.7500 322.7500 Du        
    132 ****       102.7500 244.0000 321.5000 Du        
    133 ****       102.7500 244.0000 321.7500 Du        
    134 ****       102.7500 244.0000 322.0000 Du        
    135 ****       102.7500 244.0000 322.2500 Du        
    136 ****       102.7500 244.0000 322.5000 Du        
    137 ****       102.7500 244.0000 322.7500 Du        
    138 ****       102.7500 244.0000 323.0000 Du        
    139 ****       102.7500 244.2500 321.5000 Du        
    140 ****       102.7500 244.2500 321.7500 Du        
    141 ****       102.7500 244.2500 322.0000 Du        
    142 ****       102.7500 244.2500 322.2500 Du        
    143 ****       102.7500 244.2500 322.5000 Du        
    144 ****       102.7500 244.2500 322.7500 Du        
    145 ****       102.7500 244.2500 323.0000 Du        
    146 ****       102.7500 244.2500 323.2500 Du        
    147 ****       102.7500 244.5000 321.7500 Du        
    148 ****       102.7500 244.5000 322.0000 Du        
    149 ****       102.7500 244.5000 322.2500 Du        
    150 ****       102.7500 244.5000 322.5000 Du        
    151 ****       102.7500 244.5000 322.7500 Du        
    152 ****       102.7500 244.5000 323.0000 Du        
    153 ****       102.7500 244.5000 323.2500 Du        
    154 ****       102.7500 244.5000 323.5000 Du        
    155 ****       102.7500 244.7500 321.7500 Du        
    156 ****       102.7500 244.7500 322.0000 Du        
    157 ****       102.7500 244.7500 322.2500 Du        
    158 ****       102.7500 244.7500 322.5000 Du        
    159 ****       102.7500 244.7500 322.7500 Du        
    160 ****       102.7500 244.7500 323.0000 Du        
    161 ****       102.7500 244.7500 323.2500 Du        
    162 ****       102.7500 244.7500 323.5000 Du        
    163 ****       102.7500 244.7500 323.7500 Du        
    164 ****       102.7500 245.0000 322.2500 Du        
    165 ****       102.7500 245.0000 322.5000 Du        
    166 ****       102.7500 245.0000 322.7500 Du        
    167 ****       102.7500 245.0000 323.0000 Du        
    168 ****       102.7500 245.0000 323.2500 Du        
    169 ****       102.7500 245.0000 323.5000 Du        
    170 ****       102.7500 245.0000 323.7500 Du        
    171 ****       102.7500 245.2500 322.5000 Du        
    172 ****       102.7500 245.2500 322.7500 Du        
    173 ****       102.7500 245.2500 323.0000 Du        
    174 ****       102.7500 245.2500 323.2500 Du        
    175 ****       102.7500 245.2500 323.5000 Du        
    176 ****       102.7500 245.2500 323.7500 Du        
    177 ****       102.7500 245.5000 323.2500 Du        
    178 ****       103.0000 241.7500 330.2500 Du        
    179 ****       103.0000 242.0000 330.0000 Du        
    180 ****       103.0000 242.0000 330.2500 Du        
    181 ****       103.0000 242.7500 331.0000 Du        
    182 ****       103.0000 243.5000 321.5000 Du        
    183 ****       103.0000 243.5000 321.7500 Du        
    184 ****       103.0000 243.7500 321.5000 Du        
    185 ****       103.0000 243.7500 321.7500 Du        
    186 ****       103.0000 243.7500 322.0000 Du        
    187 ****       103.0000 243.7500 322.2500 Du        
    188 ****       103.0000 243.7500 322.5000 Du        
    189 ****       103.0000 243.7500 322.7500 Du        
    190 ****       103.0000 244.0000 321.2500 Du        
    191 ****       103.0000 244.0000 321.5000 Du        
    192 ****       103.0000 244.0000 321.7500 Du        
    193 ****       103.0000 244.0000 322.0000 Du        
    194 ****       103.0000 244.0000 322.2500 Du        
    195 ****       103.0000 244.0000 322.5000 Du        
    196 ****       103.0000 244.0000 322.7500 Du        
    197 ****       103.0000 244.0000 323.0000 Du        
    198 ****       103.0000 244.0000 323.2500 Du        
    199 ****       103.0000 244.2500 321.2500 Du        
    200 ****       103.0000 244.2500 321.5000 Du        
    201 ****       103.0000 244.2500 321.7500 Du        
    202 ****       103.0000 244.2500 322.0000 Du        
    203 ****       103.0000 244.2500 322.2500 Du        
    204 ****       103.0000 244.2500 322.5000 Du        
    205 ****       103.0000 244.2500 322.7500 Du        
    206 ****       103.0000 244.2500 323.0000 Du        
    207 ****       103.0000 244.2500 323.2500 Du        
    208 ****       103.0000 244.2500 323.5000 Du        
    209 ****       103.0000 244.5000 321.2500 Du        
    210 ****       103.0000 244.5000 321.5000 Du        
    211 ****       103.0000 244.5000 321.7500 Du        
    212 ****       103.0000 244.5000 322.0000 Du        
    213 ****       103.0000 244.5000 322.2500 Du        
    214 ****       103.0000 244.5000 322.5000 Du        
    215 ****       103.0000 244.5000 322.7500 Du        
    216 ****       103.0000 244.5000 323.0000 Du        
    217 ****       103.0000 244.5000 323.2500 Du        
    218 ****       103.0000 244.5000 323.5000 Du        
    219 ****       103.0000 244.7500 321.2500 Du        
    220 ****       103.0000 244.7500 321.5000 Du        
    221 ****       103.0000 244.7500 321.7500 Du        
    222 ****       103.0000 244.7500 322.0000 Du        
    223 ****       103.0000 244.7500 322.2500 Du        
    224 ****       103.0000 244.7500 322.5000 Du        
    225 ****       103.0000 244.7500 322.7500 Du        
    226 ****       103.0000 244.7500 323.0000 Du        
    227 ****       103.0000 244.7500 323.2500 Du        
    228 ****       103.0000 244.7500 323.5000 Du        
    229 ****       103.0000 244.7500 323.7500 Du        
    230 ****       103.0000 244.7500 324.0000 Du        
    231 ****       103.0000 245.0000 322.0000 Du        
    232 ****       103.0000 245.0000 322.2500 Du        
    233 ****       103.0000 245.0000 322.5000 Du        
    234 ****       103.0000 245.0000 322.7500 Du        
    235 ****       103.0000 245.0000 323.0000 Du        
    236 ****       103.0000 245.0000 323.2500 Du        
    237 ****       103.0000 245.0000 323.5000 Du        
    238 ****       103.0000 245.0000 323.7500 Du        
    239 ****       103.0000 245.0000 324.0000 Du        
    240 ****       103.0000 245.2500 322.2500 Du        
    241 ****       103.0000 245.2500 322.5000 Du        
    242 ****       103.0000 245.2500 322.7500 Du        
    243 ****       103.0000 245.2500 323.0000 Du        
    244 ****       103.0000 245.2500 323.2500 Du        
    245 ****       103.0000 245.2500 323.5000 Du        
    246 ****       103.0000 245.2500 323.7500 Du        
    247 ****       103.0000 245.2500 324.0000 Du        
    248 ****       103.0000 245.5000 323.0000 Du        
    249 ****       103.0000 245.5000 323.2500 Du        
    250 ****       103.0000 245.7500 323.2500 Du        
    251 ****       103.2500 241.7500 330.2500 Du        
    252 ****       103.2500 242.0000 330.2500 Du        
    253 ****       103.2500 243.5000 321.2500 Du        
    254 ****       103.2500 243.5000 321.5000 Du        
    255 ****       103.2500 243.5000 321.7500 Du        
    256 ****       103.2500 243.7500 321.0000 Du        
    257 ****       103.2500 243.7500 321.2500 Du        
    258 ****       103.2500 243.7500 321.5000 Du        
    259 ****       103.2500 243.7500 321.7500 Du        
    260 ****       103.2500 243.7500 322.0000 Du        
    261 ****       103.2500 243.7500 322.2500 Du        
    262 ****       103.2500 243.7500 322.5000 Du        
    263 ****       103.2500 243.7500 322.7500 Du        
    264 ****       103.2500 244.0000 320.7500 Du        
    265 ****       103.2500 244.0000 321.0000 Du        
    266 ****       103.2500 244.0000 321.2500 Du        
    267 ****       103.2500 244.0000 321.5000 Du        
    268 ****       103.2500 244.0000 321.7500 Du        
    269 ****       103.2500 244.0000 322.0000 Du        
    270 ****       103.2500 244.0000 322.2500 Du        
    271 ****       103.2500 244.0000 322.5000 Du        
    272 ****       103.2500 244.0000 322.7500 Du        
    273 ****       103.2500 244.0000 323.0000 Du        
    274 ****       103.2500 244.0000 323.2500 Du        
    275 ****       103.2500 244.2500 320.7500 Du        
    276 ****       103.2500 244.2500 321.0000 Du        
    277 ****       103.2500 244.2500 321.2500 Du        
    278 ****       103.2500 244.2500 321.5000 Du        
    279 ****       103.2500 244.2500 321.7500 Du        
    280 ****       103.2500 244.2500 322.0000 Du        
    281 ****       103.2500 244.2500 322.2500 Du        
    282 ****       103.2500 244.2500 322.5000 Du        
    283 ****       103.2500 244.2500 322.7500 Du        
    284 ****       103.2500 244.2500 323.0000 Du        
    285 ****       103.2500 244.2500 323.2500 Du        
    286 ****       103.2500 244.2500 323.5000 Du        
    287 ****       103.2500 244.5000 320.7500 Du        
    288 ****       103.2500 244.5000 321.0000 Du        
    289 ****       103.2500 244.5000 321.2500 Du        
    290 ****       103.2500 244.5000 321.5000 Du        
    291 ****       103.2500 244.5000 321.7500 Du        
    292 ****       103.2500 244.5000 322.0000 Du        
    293 ****       103.2500 244.5000 322.2500 Du        
    294 ****       103.2500 244.5000 322.5000 Du        
    295 ****       103.2500 244.5000 322.7500 Du        
    296 ****       103.2500 244.5000 323.0000 Du        
    297 ****       103.2500 244.5000 323.2500 Du        
    298 ****       103.2500 244.5000 323.5000 Du        
    299 ****       103.2500 244.7500 321.0000 Du        
    300 ****       103.2500 244.7500 321.2500 Du        
    301 ****       103.2500 244.7500 321.5000 Du        
    302 ****       103.2500 244.7500 321.7500 Du        
    303 ****       103.2500 244.7500 322.0000 Du        
    304 ****       103.2500 244.7500 322.2500 Du        
    305 ****       103.2500 244.7500 322.5000 Du        
    306 ****       103.2500 244.7500 322.7500 Du        
    307 ****       103.2500 244.7500 323.0000 Du        
    308 ****       103.2500 244.7500 323.2500 Du        
    309 ****       103.2500 244.7500 323.5000 Du        
    310 ****       103.2500 244.7500 323.7500 Du        
    311 ****       103.2500 244.7500 324.0000 Du        
    312 ****       103.2500 245.0000 321.7500 Du        
    313 ****       103.2500 245.0000 322.0000 Du        
    314 ****       103.2500 245.0000 322.2500 Du        
    315 ****       103.2500 245.0000 322.5000 Du        
    316 ****       103.2500 245.0000 322.7500 Du        
    317 ****       103.2500 245.0000 323.0000 Du        
    318 ****       103.2500 245.0000 323.2500 Du        
    319 ****       103.2500 245.0000 323.5000 Du        
    320 ****       103.2500 245.0000 323.7500 Du        
    321 ****       103.2500 245.0000 324.0000 Du        
    322 ****       103.2500 245.2500 322.2500 Du        
    323 ****       103.2500 245.2500 322.5000 Du        
    324 ****       103.2500 245.2500 322.7500 Du        
    325 ****       103.2500 245.2500 323.0000 Du        
    326 ****       103.2500 245.2500 323.2500 Du        
    327 ****       103.2500 245.2500 323.5000 Du        
    328 ****       103.2500 245.2500 323.7500 Du        
    329 ****       103.2500 245.2500 324.0000 Du        
    330 ****       103.2500 245.5000 323.0000 Du        
    331 ****       103.2500 245.5000 323.2500 Du        
    332 ****       103.2500 245.7500 323.2500 Du        
    333 ****       103.5000 241.7500 330.0000 Du        
    334 ****       103.5000 241.7500 330.2500 Du        
    335 ****       103.5000 242.0000 330.2500 Du        
    336 ****       103.5000 243.5000 320.5000 Du        
    337 ****       103.5000 243.5000 320.7500 Du        
    338 ****       103.5000 243.5000 321.0000 Du        
    339 ****       103.5000 243.5000 321.2500 Du        
    340 ****       103.5000 243.7500 320.5000 Du        
    341 ****       103.5000 243.7500 320.7500 Du        
    342 ****       103.5000 243.7500 321.0000 Du        
    343 ****       103.5000 243.7500 321.2500 Du        
    344 ****       103.5000 243.7500 321.5000 Du        
    345 ****       103.5000 243.7500 321.7500 Du        
    346 ****       103.5000 243.7500 322.0000 Du        
    347 ****       103.5000 243.7500 322.2500 Du        
    348 ****       103.5000 244.0000 320.5000 Du        
    349 ****       103.5000 244.0000 320.7500 Du        
    350 ****       103.5000 244.0000 321.0000 Du        
    351 ****       103.5000 244.0000 321.2500 Du        
    352 ****       103.5000 244.0000 321.5000 Du        
    353 ****       103.5000 244.0000 321.7500 Du        
    354 ****       103.5000 244.0000 322.0000 Du        
    355 ****       103.5000 244.0000 322.2500 Du        
    356 ****       103.5000 244.0000 322.5000 Du        
    357 ****       103.5000 244.0000 322.7500 Du        
    358 ****       103.5000 244.0000 323.0000 Du        
    359 ****       103.5000 244.0000 323.2500 Du        
    360 ****       103.5000 244.2500 320.2500 Du        
    361 ****       103.5000 244.2500 320.5000 Du        
    362 ****       103.5000 244.2500 320.7500 Du        
    363 ****       103.5000 244.2500 321.0000 Du        
    364 ****       103.5000 244.2500 321.2500 Du        
    365 ****       103.5000 244.2500 321.5000 Du        
    366 ****       103.5000 244.2500 321.7500 Du        
    367 ****       103.5000 244.2500 322.0000 Du        
    368 ****       103.5000 244.2500 322.2500 Du        
    369 ****       103.5000 244.2500 322.5000 Du        
    370 ****       103.5000 244.2500 322.7500 Du        
    371 ****       103.5000 244.2500 323.0000 Du        
    372 ****       103.5000 244.2500 323.2500 Du        
    373 ****       103.5000 244.2500 323.5000 Du        
    374 ****       103.5000 244.5000 320.5000 Du        
    375 ****       103.5000 244.5000 320.7500 Du        
    376 ****       103.5000 244.5000 321.0000 Du        
    377 ****       103.5000 244.5000 321.2500 Du        
    378 ****       103.5000 244.5000 321.5000 Du        
    379 ****       103.5000 244.5000 321.7500 Du        
    380 ****       103.5000 244.5000 322.0000 Du        
    381 ****       103.5000 244.5000 322.2500 Du        
    382 ****       103.5000 244.5000 322.5000 Du        
    383 ****       103.5000 244.5000 322.7500 Du        
    384 ****       103.5000 244.5000 323.0000 Du        
    385 ****       103.5000 244.5000 323.2500 Du        
    386 ****       103.5000 244.5000 323.5000 Du        
    387 ****       103.5000 244.5000 323.7500 Du        
    388 ****       103.5000 244.7500 322.0000 Du        
    389 ****       103.5000 244.7500 322.2500 Du        
    390 ****       103.5000 244.7500 322.5000 Du        
    391 ****       103.5000 244.7500 322.7500 Du        
    392 ****       103.5000 244.7500 323.0000 Du        
    393 ****       103.5000 244.7500 323.2500 Du        
    394 ****       103.5000 244.7500 323.5000 Du        
    395 ****       103.5000 244.7500 323.7500 Du        
    396 ****       103.5000 244.7500 324.0000 Du        
    397 ****       103.5000 245.0000 322.5000 Du        
    398 ****       103.5000 245.0000 322.7500 Du        
    399 ****       103.5000 245.0000 323.0000 Du        
    400 ****       103.5000 245.0000 323.2500 Du        
    401 ****       103.5000 245.0000 323.5000 Du        
    402 ****       103.5000 245.0000 323.7500 Du        
    403 ****       103.5000 245.0000 324.0000 Du        
    404 ****       103.5000 245.0000 324.2500 Du        
    405 ****       103.5000 245.2500 322.7500 Du        
    406 ****       103.5000 245.2500 323.0000 Du        
    407 ****       103.5000 245.2500 323.2500 Du        
    408 ****       103.5000 245.2500 323.5000 Du        
    409 ****       103.5000 245.2500 323.7500 Du        
    410 ****       103.5000 245.2500 324.0000 Du        
    411 ****       103.5000 245.2500 324.2500 Du        
    412 ****       103.5000 248.5000 319.7500 Du        
    413 ****       103.5000 248.5000 320.0000 Du        
    414 ****       103.5000 248.7500 320.0000 Du        
    415 ****       103.5000 249.0000 320.0000 Du        
    416 ****       103.7500 241.7500 330.0000 Du        
    417 ****       103.7500 241.7500 330.2500 Du        
    418 ****       103.7500 242.0000 330.0000 Du        
    419 ****       103.7500 242.0000 330.2500 Du        
    420 ****       103.7500 242.0000 330.5000 Du        
    421 ****       103.7500 242.2500 330.7500 Du        
    422 ****       103.7500 243.0000 320.2500 Du        
    423 ****       103.7500 243.2500 320.0000 Du        
    424 ****       103.7500 243.2500 320.2500 Du        
    425 ****       103.7500 243.2500 320.5000 Du        
    426 ****       103.7500 243.2500 320.7500 Du        
    427 ****       103.7500 243.5000 320.0000 Du        
    428 ****       103.7500 243.5000 320.2500 Du        
    429 ****       103.7500 243.5000 320.5000 Du        
    430 ****       103.7500 243.5000 320.7500 Du        
    431 ****       103.7500 243.5000 321.0000 Du        
    432 ****       103.7500 243.7500 320.0000 Du        
    433 ****       103.7500 243.7500 320.2500 Du        
    434 ****       103.7500 243.7500 320.5000 Du        
    435 ****       103.7500 243.7500 320.7500 Du        
    436 ****       103.7500 243.7500 321.0000 Du        
    437 ****       103.7500 243.7500 321.2500 Du        
    438 ****       103.7500 243.7500 321.5000 Du        
    439 ****       103.7500 243.7500 321.7500 Du        
    440 ****       103.7500 244.0000 320.0000 Du        
    441 ****       103.7500 244.0000 320.2500 Du        
    442 ****       103.7500 244.0000 320.5000 Du        
    443 ****       103.7500 244.0000 320.7500 Du        
    444 ****       103.7500 244.0000 321.0000 Du        
    445 ****       103.7500 244.0000 321.2500 Du        
    446 ****       103.7500 244.0000 321.5000 Du        
    447 ****       103.7500 244.0000 321.7500 Du        
    448 ****       103.7500 244.0000 322.0000 Du        
    449 ****       103.7500 244.0000 322.2500 Du        
    450 ****       103.7500 244.0000 322.5000 Du        
    451 ****       103.7500 244.0000 322.7500 Du        
    452 ****       103.7500 244.2500 320.2500 Du        
    453 ****       103.7500 244.2500 320.5000 Du        
    454 ****       103.7500 244.2500 320.7500 Du        
    455 ****       103.7500 244.2500 321.0000 Du        
    456 ****       103.7500 244.2500 321.2500 Du        
    457 ****       103.7500 244.2500 321.5000 Du        
    458 ****       103.7500 244.2500 321.7500 Du        
    459 ****       103.7500 244.2500 322.0000 Du        
    460 ****       103.7500 244.2500 322.2500 Du        
    461 ****       103.7500 244.2500 322.5000 Du        
    462 ****       103.7500 244.2500 322.7500 Du        
    463 ****       103.7500 244.2500 323.0000 Du        
    464 ****       103.7500 244.2500 323.2500 Du        
    465 ****       103.7500 244.5000 322.2500 Du        
    466 ****       103.7500 244.5000 322.5000 Du        
    467 ****       103.7500 244.5000 322.7500 Du        
    468 ****       103.7500 244.5000 323.0000 Du        
    469 ****       103.7500 244.5000 323.2500 Du        
    470 ****       103.7500 244.5000 323.5000 Du        
    471 ****       103.7500 244.5000 323.7500 Du        
    472 ****       103.7500 244.7500 322.7500 Du        
    473 ****       103.7500 244.7500 323.0000 Du        
    474 ****       103.7500 244.7500 323.2500 Du        
    475 ****       103.7500 244.7500 323.5000 Du        
    476 ****       103.7500 244.7500 323.7500 Du        
    477 ****       103.7500 244.7500 324.0000 Du        
    478 ****       103.7500 245.0000 323.0000 Du        
    479 ****       103.7500 245.0000 323.2500 Du        
    480 ****       103.7500 245.0000 323.5000 Du        
    481 ****       103.7500 245.0000 323.7500 Du        
    482 ****       103.7500 245.0000 324.0000 Du        
    483 ****       103.7500 245.0000 324.2500 Du        
    484 ****       103.7500 245.2500 323.0000 Du        
    485 ****       103.7500 245.2500 323.2500 Du        
    486 ****       103.7500 245.2500 323.5000 Du        
    487 ****       103.7500 245.2500 323.7500 Du        
    488 ****       103.7500 245.2500 324.0000 Du        
    489 ****       103.7500 248.0000 320.0000 Du        
    490 ****       103.7500 248.0000 320.2500 Du        
    491 ****       103.7500 248.2500 319.7500 Du        
    492 ****       103.7500 248.2500 320.0000 Du        
    493 ****       103.7500 248.2500 320.2500 Du        
    494 ****       103.7500 248.5000 319.5000 Du        
    495 ****       103.7500 248.5000 319.7500 Du        
    496 ****       103.7500 248.5000 320.0000 Du        
    497 ****       103.7500 248.5000 320.2500 Du        
    498 ****       103.7500 248.7500 320.0000 Du        
    499 ****       103.7500 248.7500 320.2500 Du        
    500 ****       103.7500 249.0000 320.0000 Du        
    501 ****       104.0000 241.7500 330.0000 Du        
    502 ****       104.0000 241.7500 330.2500 Du        
    503 ****       104.0000 242.0000 330.0000 Du        
    504 ****       104.0000 242.0000 330.2500 Du        
    505 ****       104.0000 242.2500 330.0000 Du        
    506 ****       104.0000 242.2500 330.2500 Du        
    507 ****       104.0000 242.2500 330.5000 Du        
    508 ****       104.0000 242.5000 319.7500 Du        
    509 ****       104.0000 242.7500 319.7500 Du        
    510 ****       104.0000 242.7500 320.0000 Du        
    511 ****       104.0000 243.0000 319.5000 Du        
    512 ****       104.0000 243.0000 319.7500 Du        
    513 ****       104.0000 243.0000 320.0000 Du        
    514 ****       104.0000 243.0000 320.2500 Du        
    515 ****       104.0000 243.2500 319.7500 Du        
    516 ****       104.0000 243.2500 320.0000 Du        
    517 ****       104.0000 243.2500 320.2500 Du        
    518 ****       104.0000 243.2500 320.5000 Du        
    519 ****       104.0000 243.5000 319.7500 Du        
    520 ****       104.0000 243.5000 320.0000 Du        
    521 ****       104.0000 243.5000 320.2500 Du        
    522 ****       104.0000 243.5000 320.5000 Du        
    523 ****       104.0000 243.5000 320.7500 Du        
    524 ****       104.0000 243.7500 320.0000 Du        
    525 ****       104.0000 243.7500 320.2500 Du        
    526 ****       104.0000 243.7500 320.5000 Du        
    527 ****       104.0000 243.7500 320.7500 Du        
    528 ****       104.0000 243.7500 321.0000 Du        
    529 ****       104.0000 244.0000 320.5000 Du        
    530 ****       104.0000 244.0000 320.7500 Du        
    531 ****       104.0000 244.7500 323.0000 Du        
    532 ****       104.0000 244.7500 323.2500 Du        
    533 ****       104.0000 244.7500 323.5000 Du        
    534 ****       104.0000 244.7500 323.7500 Du        
    535 ****       104.0000 244.7500 324.0000 Du        
    536 ****       104.0000 245.0000 323.2500 Du        
    537 ****       104.0000 245.0000 323.5000 Du        
    538 ****       104.0000 245.0000 323.7500 Du        
    539 ****       104.0000 245.0000 324.0000 Du        
    540 ****       104.0000 245.2500 323.5000 Du        
    541 ****       104.0000 245.2500 323.7500 Du        
    542 ****       104.0000 245.2500 324.0000 Du        
    543 ****       104.0000 248.0000 319.7500 Du        
    544 ****       104.0000 248.0000 320.0000 Du        
    545 ****       104.0000 248.0000 320.2500 Du        
    546 ****       104.0000 248.2500 319.7500 Du        
    547 ****       104.0000 248.2500 320.0000 Du        
    548 ****       104.0000 248.2500 320.2500 Du        
    549 ****       104.0000 248.5000 319.5000 Du        
    550 ****       104.0000 248.5000 319.7500 Du        
    551 ****       104.0000 248.5000 320.0000 Du        
    552 ****       104.0000 248.5000 320.2500 Du        
    553 ****       104.0000 248.7500 319.5000 Du        
    554 ****       104.0000 248.7500 319.7500 Du        
    555 ****       104.0000 248.7500 320.0000 Du        
    556 ****       104.0000 248.7500 320.2500 Du        
    557 ****       104.0000 249.0000 319.5000 Du        
    558 ****       104.0000 249.0000 319.7500 Du        
    559 ****       104.0000 249.0000 320.0000 Du        
    560 ****       104.0000 249.2500 319.5000 Du        
    561 ****       104.0000 249.2500 319.7500 Du        
    562 ****       104.0000 249.2500 320.0000 Du        
    563 ****       104.0000 249.5000 319.5000 Du        
    564 ****       104.0000 249.5000 319.7500 Du        
    565 ****       104.0000 251.5000 325.0000 Du        
    566 ****       104.0000 251.5000 325.2500 Du        
    567 ****       104.0000 251.5000 325.5000 Du        
    568 ****       104.0000 251.7500 324.7500 Du        
    569 ****       104.0000 251.7500 325.0000 Du        
    570 ****       104.0000 251.7500 325.2500 Du        
    571 ****       104.0000 251.7500 325.5000 Du        
    572 ****       104.0000 251.7500 325.7500 Du        
    573 ****       104.0000 251.7500 326.0000 Du        
    574 ****       104.0000 251.7500 326.2500 Du        
    575 ****       104.0000 252.0000 324.2500 Du        
    576 ****       104.0000 252.0000 324.5000 Du        
    577 ****       104.0000 252.0000 324.7500 Du        
    578 ****       104.0000 252.0000 325.0000 Du        
    579 ****       104.0000 252.0000 325.2500 Du        
    580 ****       104.0000 252.0000 325.5000 Du        
    581 ****       104.0000 252.0000 325.7500 Du        
    582 ****       104.0000 252.0000 326.0000 Du        
    583 ****       104.0000 252.0000 326.2500 Du        
    584 ****       104.2500 242.0000 330.0000 Du        
    585 ****       104.2500 242.0000 330.2500 Du        
    586 ****       104.2500 242.2500 319.2500 Du        
    587 ****       104.2500 242.2500 319.5000 Du        
    588 ****       104.2500 242.2500 319.7500 Du        
    589 ****       104.2500 242.2500 330.0000 Du        
    590 ****       104.2500 242.2500 330.2500 Du        
    591 ****       104.2500 242.2500 330.5000 Du        
    592 ****       104.2500 242.5000 319.2500 Du        
    593 ****       104.2500 242.5000 319.5000 Du        
    594 ****       104.2500 242.5000 319.7500 Du        
    595 ****       104.2500 242.5000 320.0000 Du        
    596 ****       104.2500 242.7500 319.2500 Du        
    597 ****       104.2500 242.7500 319.5000 Du        
    598 ****       104.2500 242.7500 319.7500 Du        
    599 ****       104.2500 242.7500 320.0000 Du        
    600 ****       104.2500 243.0000 319.5000 Du        
    601 ****       104.2500 243.0000 319.7500 Du        
    602 ****       104.2500 243.0000 320.0000 Du        
    603 ****       104.2500 243.0000 320.2500 Du        
    604 ****       104.2500 243.0000 331.5000 Du        
    605 ****       104.2500 243.2500 319.7500 Du        
    606 ****       104.2500 243.2500 320.0000 Du        
    607 ****       104.2500 243.2500 320.2500 Du        
    608 ****       104.2500 243.5000 320.2500 Du        
    609 ****       104.2500 243.5000 320.5000 Du        
    610 ****       104.2500 245.2500 324.0000 Du        
    611 ****       104.2500 248.2500 319.7500 Du        
    612 ****       104.2500 248.2500 320.0000 Du        
    613 ****       104.2500 248.5000 319.5000 Du        
    614 ****       104.2500 248.5000 319.7500 Du        
    615 ****       104.2500 248.5000 320.0000 Du        
    616 ****       104.2500 248.7500 319.5000 Du        
    617 ****       104.2500 248.7500 319.7500 Du        
    618 ****       104.2500 248.7500 320.0000 Du        
    619 ****       104.2500 249.0000 319.5000 Du        
    620 ****       104.2500 249.0000 319.7500 Du        
    621 ****       104.2500 249.0000 320.0000 Du        
    622 ****       104.2500 249.2500 319.5000 Du        
    623 ****       104.2500 249.2500 319.7500 Du        
    624 ****       104.2500 249.5000 319.5000 Du        
    625 ****       104.2500 251.5000 324.7500 Du        
    626 ****       104.2500 251.5000 325.0000 Du        
    627 ****       104.2500 251.5000 325.2500 Du        
    628 ****       104.2500 251.5000 325.5000 Du        
    629 ****       104.2500 251.5000 325.7500 Du        
    630 ****       104.2500 251.5000 326.0000 Du        
    631 ****       104.2500 251.7500 324.2500 Du        
    632 ****       104.2500 251.7500 324.5000 Du        
    633 ****       104.2500 251.7500 324.7500 Du        
    634 ****       104.2500 251.7500 325.0000 Du        
    635 ****       104.2500 251.7500 325.2500 Du        
    636 ****       104.2500 251.7500 325.5000 Du        
    637 ****       104.2500 251.7500 325.7500 Du        
    638 ****       104.2500 251.7500 326.0000 Du        
    639 ****       104.2500 251.7500 326.2500 Du        
    640 ****       104.2500 252.0000 324.0000 Du        
    641 ****       104.2500 252.0000 324.2500 Du        
    642 ****       104.2500 252.0000 324.5000 Du        
    643 ****       104.2500 252.0000 324.7500 Du        
    644 ****       104.2500 252.0000 325.0000 Du        
    645 ****       104.2500 252.0000 325.2500 Du        
    646 ****       104.2500 252.0000 325.5000 Du        
    647 ****       104.2500 252.0000 325.7500 Du        
    648 ****       104.2500 252.0000 326.0000 Du        
    649 ****       104.2500 252.0000 326.2500 Du        
    650 ****       104.5000 242.0000 319.0000 Du        
    651 ****       104.5000 242.0000 319.2500 Du        
    652 ****       104.5000 242.0000 319.5000 Du        
    653 ****       104.5000 242.0000 330.2500 Du        
    654 ****       104.5000 242.2500 319.0000 Du        
    655 ****       104.5000 242.2500 319.2500 Du        
    656 ****       104.5000 242.2500 319.5000 Du        
    657 ****       104.5000 242.2500 319.7500 Du        
    658 ****       104.5000 242.2500 330.0000 Du        
    659 ****       104.5000 242.2500 330.2500 Du        
    660 ****       104.5000 242.2500 330.5000 Du        
    661 ****       104.5000 242.2500 330.7500 Du        
    662 ****       104.5000 242.5000 319.0000 Du        
    663 ****       104.5000 242.5000 319.2500 Du        
    664 ****       104.5000 242.5000 319.5000 Du        
    665 ****       104.5000 242.5000 319.7500 Du        
    666 ****       104.5000 242.7500 319.2500 Du        
    667 ****       104.5000 242.7500 319.5000 Du        
    668 ****       104.5000 242.7500 319.7500 Du        
    669 ****       104.5000 242.7500 320.0000 Du        
    670 ****       104.5000 242.7500 331.5000 Du        
    671 ****       104.5000 242.7500 331.7500 Du        
    672 ****       104.5000 243.0000 319.7500 Du        
    673 ****       104.5000 243.0000 320.0000 Du        
    674 ****       104.5000 243.0000 331.5000 Du        
    675 ****       104.5000 243.0000 331.7500 Du        
    676 ****       104.5000 243.2500 331.5000 Du        
    677 ****       104.5000 251.2500 324.7500 Du        
    678 ****       104.5000 251.2500 325.0000 Du        
    679 ****       104.5000 251.2500 325.2500 Du        
    680 ****       104.5000 251.5000 324.2500 Du        
    681 ****       104.5000 251.5000 324.5000 Du        
    682 ****       104.5000 251.5000 324.7500 Du        
    683 ****       104.5000 251.5000 325.0000 Du        
    684 ****       104.5000 251.5000 325.2500 Du        
    685 ****       104.5000 251.5000 325.5000 Du        
    686 ****       104.5000 251.5000 325.7500 Du        
    687 ****       104.5000 251.5000 326.0000 Du        
    688 ****       104.5000 251.7500 324.0000 Du        
    689 ****       104.5000 251.7500 324.2500 Du        
    690 ****       104.5000 251.7500 324.5000 Du        
    691 ****       104.5000 251.7500 324.7500 Du        
    692 ****       104.5000 251.7500 325.0000 Du        
    693 ****       104.5000 251.7500 325.2500 Du        
    694 ****       104.5000 251.7500 325.5000 Du        
    695 ****       104.5000 251.7500 325.7500 Du        
    696 ****       104.5000 251.7500 326.0000 Du        
    697 ****       104.5000 251.7500 326.2500 Du        
    698 ****       104.5000 252.0000 324.0000 Du        
    699 ****       104.5000 252.0000 324.2500 Du        
    700 ****       104.5000 252.0000 324.5000 Du        
    701 ****       104.5000 252.0000 324.7500 Du        
    702 ****       104.5000 252.0000 325.0000 Du        
    703 ****       104.5000 252.0000 325.2500 Du        
    704 ****       104.5000 252.0000 325.5000 Du        
    705 ****       104.5000 252.0000 325.7500 Du        
    706 ****       104.5000 252.0000 326.0000 Du        
    707 ****       104.5000 252.0000 326.2500 Du        
    708 ****       104.5000 252.2500 324.2500 Du        
    709 ****       104.5000 252.2500 324.5000 Du        
    710 ****       104.5000 252.2500 324.7500 Du        
    711 ****       104.5000 252.2500 325.0000 Du        
    712 ****       104.5000 252.2500 325.2500 Du        
    713 ****       104.5000 252.2500 325.5000 Du        
    714 ****       104.5000 252.2500 325.7500 Du        
    715 ****       104.5000 252.2500 326.0000 Du        
    716 ****       104.5000 252.2500 326.2500 Du        
    717 ****       104.5000 252.2500 326.5000 Du        
    718 ****       104.5000 252.5000 324.5000 Du        
    719 ****       104.5000 252.5000 324.7500 Du        
    720 ****       104.5000 252.5000 325.0000 Du        
    721 ****       104.5000 252.5000 325.2500 Du        
    722 ****       104.5000 252.5000 325.5000 Du        
    723 ****       104.5000 252.5000 325.7500 Du        
    724 ****       104.5000 252.5000 326.0000 Du        
    725 ****       104.5000 252.5000 326.2500 Du        
    726 ****       104.5000 252.5000 326.5000 Du        
    727 ****       104.7500 241.7500 319.0000 Du        
    728 ****       104.7500 241.7500 319.2500 Du        
    729 ****       104.7500 241.7500 319.5000 Du        
    730 ****       104.7500 242.0000 318.7500 Du        
    731 ****       104.7500 242.0000 319.0000 Du        
    732 ****       104.7500 242.0000 319.2500 Du        
    733 ****       104.7500 242.0000 319.5000 Du        
    734 ****       104.7500 242.0000 330.2500 Du        
    735 ****       104.7500 242.2500 318.7500 Du        
    736 ****       104.7500 242.2500 319.0000 Du        
    737 ****       104.7500 242.2500 319.2500 Du        
    738 ****       104.7500 242.2500 319.5000 Du        
    739 ****       104.7500 242.2500 319.7500 Du        
    740 ****       104.7500 242.2500 330.0000 Du        
    741 ****       104.7500 242.2500 330.2500 Du        
    742 ****       104.7500 242.2500 330.5000 Du        
    743 ****       104.7500 242.2500 330.7500 Du        
    744 ****       104.7500 242.5000 318.7500 Du        
    745 ****       104.7500 242.5000 319.0000 Du        
    746 ****       104.7500 242.5000 319.2500 Du        
    747 ****       104.7500 242.5000 319.5000 Du        
    748 ****       104.7500 242.5000 319.7500 Du        
    749 ****       104.7500 242.7500 319.2500 Du        
    750 ****       104.7500 242.7500 319.5000 Du        
    751 ****       104.7500 242.7500 319.7500 Du        
    752 ****       104.7500 242.7500 331.5000 Du        
    753 ****       104.7500 242.7500 331.7500 Du        
    754 ****       104.7500 242.7500 332.0000 Du        
    755 ****       104.7500 243.0000 331.0000 Du        
    756 ****       104.7500 243.0000 331.2500 Du        
    757 ****       104.7500 243.0000 331.5000 Du        
    758 ****       104.7500 243.0000 331.7500 Du        
    759 ****       104.7500 243.0000 332.0000 Du        
    760 ****       104.7500 243.2500 331.2500 Du        
    761 ****       104.7500 243.2500 331.5000 Du        
    762 ****       104.7500 243.2500 331.7500 Du        
    763 ****       104.7500 243.2500 332.0000 Du        
    764 ****       104.7500 251.0000 325.2500 Du        
    765 ****       104.7500 251.2500 324.0000 Du        
    766 ****       104.7500 251.2500 324.2500 Du        
    767 ****       104.7500 251.2500 324.5000 Du        
    768 ****       104.7500 251.2500 324.7500 Du        
    769 ****       104.7500 251.2500 325.0000 Du        
    770 ****       104.7500 251.2500 325.2500 Du        
    771 ****       104.7500 251.5000 323.7500 Du        
    772 ****       104.7500 251.5000 324.0000 Du        
    773 ****       104.7500 251.5000 324.2500 Du        
    774 ****       104.7500 251.5000 324.5000 Du        
    775 ****       104.7500 251.5000 324.7500 Du        
    776 ****       104.7500 251.5000 325.0000 Du        
    777 ****       104.7500 251.5000 325.2500 Du        
    778 ****       104.7500 251.5000 325.5000 Du        
    779 ****       104.7500 251.5000 325.7500 Du        
    780 ****       104.7500 251.5000 326.0000 Du        
    781 ****       104.7500 251.5000 326.2500 Du        
    782 ****       104.7500 251.7500 323.5000 Du        
    783 ****       104.7500 251.7500 323.7500 Du        
    784 ****       104.7500 251.7500 324.0000 Du        
    785 ****       104.7500 251.7500 324.2500 Du        
    786 ****       104.7500 251.7500 324.5000 Du        
    787 ****       104.7500 251.7500 324.7500 Du        
    788 ****       104.7500 251.7500 325.0000 Du        
    789 ****       104.7500 251.7500 325.2500 Du        
    790 ****       104.7500 251.7500 325.5000 Du        
    791 ****       104.7500 251.7500 325.7500 Du        
    792 ****       104.7500 251.7500 326.0000 Du        
    793 ****       104.7500 251.7500 326.2500 Du        
    794 ****       104.7500 251.7500 326.5000 Du        
    795 ****       104.7500 252.0000 323.5000 Du        
    796 ****       104.7500 252.0000 323.7500 Du        
    797 ****       104.7500 252.0000 324.0000 Du        
    798 ****       104.7500 252.0000 324.2500 Du        
    799 ****       104.7500 252.0000 324.5000 Du        
    800 ****       104.7500 252.0000 324.7500 Du        
    801 ****       104.7500 252.0000 325.0000 Du        
    802 ****       104.7500 252.0000 325.2500 Du        
    803 ****       104.7500 252.0000 325.5000 Du        
    804 ****       104.7500 252.0000 325.7500 Du        
    805 ****       104.7500 252.0000 326.0000 Du        
    806 ****       104.7500 252.0000 326.2500 Du        
    807 ****       104.7500 252.2500 324.0000 Du        
    808 ****       104.7500 252.2500 324.2500 Du        
    809 ****       104.7500 252.2500 324.5000 Du        
    810 ****       104.7500 252.2500 324.7500 Du        
    811 ****       104.7500 252.2500 325.0000 Du        
    812 ****       104.7500 252.2500 325.2500 Du        
    813 ****       104.7500 252.2500 325.5000 Du        
    814 ****       104.7500 252.2500 325.7500 Du        
    815 ****       104.7500 252.2500 326.0000 Du        
    816 ****       104.7500 252.2500 326.2500 Du        
    817 ****       104.7500 252.2500 326.5000 Du        
    818 ****       104.7500 252.5000 324.5000 Du        
    819 ****       104.7500 252.5000 324.7500 Du        
    820 ****       104.7500 252.5000 325.0000 Du        
    821 ****       104.7500 252.5000 325.2500 Du        
    822 ****       104.7500 252.5000 325.5000 Du        
    823 ****       104.7500 252.5000 325.7500 Du        
    824 ****       104.7500 252.5000 326.0000 Du        
    825 ****       104.7500 252.5000 326.2500 Du        
    826 ****       104.7500 252.5000 326.5000 Du        
    827 ****       105.0000 241.5000 319.2500 Du        
    828 ****       105.0000 241.7500 318.7500 Du        
    829 ****       105.0000 241.7500 319.0000 Du        
    830 ****       105.0000 241.7500 319.2500 Du        
    831 ****       105.0000 241.7500 319.5000 Du        
    832 ****       105.0000 242.0000 318.5000 Du        
    833 ****       105.0000 242.0000 318.7500 Du        
    834 ****       105.0000 242.0000 319.0000 Du        
    835 ****       105.0000 242.0000 319.2500 Du        
    836 ****       105.0000 242.0000 319.5000 Du        
    837 ****       105.0000 242.2500 318.2500 Du        
    838 ****       105.0000 242.2500 318.5000 Du        
    839 ****       105.0000 242.2500 318.7500 Du        
    840 ****       105.0000 242.2500 319.0000 Du        
    841 ****       105.0000 242.2500 319.2500 Du        
    842 ****       105.0000 242.2500 319.5000 Du        
    843 ****       105.0000 242.2500 319.7500 Du        
    844 ****       105.0000 242.2500 330.2500 Du        
    845 ****       105.0000 242.2500 330.5000 Du        
    846 ****       105.0000 242.2500 330.7500 Du        
    847 ****       105.0000 242.2500 331.0000 Du        
    848 ****       105.0000 242.5000 318.7500 Du        
    849 ****       105.0000 242.5000 319.0000 Du        
    850 ****       105.0000 242.5000 319.2500 Du        
    851 ****       105.0000 242.5000 319.5000 Du        
    852 ****       105.0000 242.5000 319.7500 Du        
    853 ****       105.0000 242.7500 331.0000 Du        
    854 ****       105.0000 242.7500 331.2500 Du        
    855 ****       105.0000 242.7500 331.5000 Du        
    856 ****       105.0000 242.7500 331.7500 Du        
    857 ****       105.0000 242.7500 332.0000 Du        
    858 ****       105.0000 242.7500 332.2500 Du        
    859 ****       105.0000 243.0000 331.0000 Du        
    860 ****       105.0000 243.0000 331.2500 Du        
    861 ****       105.0000 243.0000 331.5000 Du        
    862 ****       105.0000 243.0000 331.7500 Du        
    863 ****       105.0000 243.0000 332.0000 Du        
    864 ****       105.0000 243.0000 332.2500 Du        
    865 ****       105.0000 243.2500 331.0000 Du        
    866 ****       105.0000 243.2500 331.2500 Du        
    867 ****       105.0000 243.2500 331.5000 Du        
    868 ****       105.0000 243.2500 331.7500 Du        
    869 ****       105.0000 243.2500 332.0000 Du        
    870 ****       105.0000 243.2500 332.2500 Du        
    871 ****       105.0000 251.0000 324.2500 Du        
    872 ****       105.0000 251.0000 324.7500 Du        
    873 ****       105.0000 251.0000 325.0000 Du        
    874 ****       105.0000 251.0000 325.2500 Du        
    875 ****       105.0000 251.2500 324.0000 Du        
    876 ****       105.0000 251.2500 324.2500 Du        
    877 ****       105.0000 251.2500 324.5000 Du        
    878 ****       105.0000 251.2500 324.7500 Du        
    879 ****       105.0000 251.2500 325.0000 Du        
    880 ****       105.0000 251.2500 325.2500 Du        
    881 ****       105.0000 251.2500 325.7500 Du        
    882 ****       105.0000 251.2500 326.0000 Du        
    883 ****       105.0000 251.5000 323.5000 Du        
    884 ****       105.0000 251.5000 323.7500 Du        
    885 ****       105.0000 251.5000 324.0000 Du        
    886 ****       105.0000 251.5000 324.2500 Du        
    887 ****       105.0000 251.5000 324.5000 Du        
    888 ****       105.0000 251.5000 324.7500 Du        
    889 ****       105.0000 251.5000 325.0000 Du        
    890 ****       105.0000 251.5000 325.2500 Du        
    891 ****       105.0000 251.5000 325.5000 Du        
    892 ****       105.0000 251.5000 325.7500 Du        
    893 ****       105.0000 251.5000 326.0000 Du        
    894 ****       105.0000 251.5000 326.2500 Du        
    895 ****       105.0000 251.7500 323.0000 Du        
    896 ****       105.0000 251.7500 323.2500 Du        
    897 ****       105.0000 251.7500 323.5000 Du        
    898 ****       105.0000 251.7500 323.7500 Du        
    899 ****       105.0000 251.7500 324.0000 Du        
    900 ****       105.0000 251.7500 324.2500 Du        
    901 ****       105.0000 251.7500 324.5000 Du        
    902 ****       105.0000 251.7500 324.7500 Du        
    903 ****       105.0000 251.7500 325.0000 Du        
    904 ****       105.0000 251.7500 325.2500 Du        
    905 ****       105.0000 251.7500 325.5000 Du        
    906 ****       105.0000 251.7500 325.7500 Du        
    907 ****       105.0000 251.7500 326.0000 Du        
    908 ****       105.0000 251.7500 326.2500 Du        
    909 ****       105.0000 251.7500 326.5000 Du        
    910 ****       105.0000 252.0000 322.2500 Du        
    911 ****       105.0000 252.0000 322.7500 Du        
    912 ****       105.0000 252.0000 323.0000 Du        
    913 ****       105.0000 252.0000 323.2500 Du        
    914 ****       105.0000 252.0000 323.5000 Du        
    915 ****       105.0000 252.0000 323.7500 Du        
    916 ****       105.0000 252.0000 324.0000 Du        
    917 ****       105.0000 252.0000 324.2500 Du        
    918 ****       105.0000 252.0000 324.5000 Du        
    919 ****       105.0000 252.0000 324.7500 Du        
    920 ****       105.0000 252.0000 325.0000 Du        
    921 ****       105.0000 252.0000 325.2500 Du        
    922 ****       105.0000 252.0000 325.5000 Du        
    923 ****       105.0000 252.0000 325.7500 Du        
    924 ****       105.0000 252.0000 326.0000 Du        
    925 ****       105.0000 252.0000 326.2500 Du        
    926 ****       105.0000 252.0000 326.5000 Du        
    927 ****       105.0000 252.2500 323.7500 Du        
    928 ****       105.0000 252.2500 324.0000 Du        
    929 ****       105.0000 252.2500 324.2500 Du        
    930 ****       105.0000 252.2500 324.5000 Du        
    931 ****       105.0000 252.2500 324.7500 Du        
    932 ****       105.0000 252.2500 325.0000 Du        
    933 ****       105.0000 252.2500 325.2500 Du        
    934 ****       105.0000 252.2500 325.5000 Du        
    935 ****       105.0000 252.2500 325.7500 Du        
    936 ****       105.0000 252.2500 326.0000 Du        
    937 ****       105.0000 252.2500 326.2500 Du        
    938 ****       105.0000 252.2500 326.5000 Du        
    939 ****       105.0000 252.5000 324.2500 Du        
    940 ****       105.0000 252.5000 324.5000 Du        
    941 ****       105.0000 252.5000 324.7500 Du        
    942 ****       105.0000 252.5000 325.0000 Du        
    943 ****       105.0000 252.5000 325.2500 Du        
    944 ****       105.0000 252.5000 325.5000 Du        
    945 ****       105.0000 252.5000 325.7500 Du        
    946 ****       105.0000 252.5000 326.0000 Du        
    947 ****       105.0000 252.5000 326.2500 Du        
    948 ****       105.0000 252.7500 324.5000 Du        
    949 ****       105.0000 252.7500 324.7500 Du        
    950 ****       105.0000 252.7500 325.0000 Du        
    951 ****       105.0000 252.7500 325.2500 Du        
    952 ****       105.0000 252.7500 325.5000 Du        
    953 ****       105.0000 252.7500 325.7500 Du        
    954 ****       105.0000 252.7500 326.0000 Du        
    955 ****       105.0000 252.7500 326.2500 Du        
    956 ****       105.0000 253.0000 325.0000 Du        
    957 ****       105.0000 253.0000 325.2500 Du        
    958 ****       105.0000 253.0000 325.5000 Du        
    959 ****       105.0000 253.0000 325.7500 Du        
    960 ****       105.0000 253.0000 326.0000 Du        
    961 ****       105.0000 253.0000 326.2500 Du        
    962 ****       105.0000 253.2500 325.2500 Du        
    963 ****       105.0000 253.2500 325.7500 Du        
    964 ****       105.0000 253.2500 326.0000 Du        
    965 ****       105.0000 253.2500 326.2500 Du        
    966 ****       105.2500 241.5000 319.0000 Du        
    967 ****       105.2500 241.5000 319.2500 Du        
    968 ****       105.2500 241.7500 318.5000 Du        
    969 ****       105.2500 241.7500 318.7500 Du        
    970 ****       105.2500 241.7500 319.0000 Du        
    971 ****       105.2500 241.7500 319.2500 Du        
    972 ****       105.2500 241.7500 319.5000 Du        
    973 ****       105.2500 242.0000 318.0000 Du        
    974 ****       105.2500 242.0000 318.2500 Du        
    975 ****       105.2500 242.0000 318.5000 Du        
    976 ****       105.2500 242.0000 318.7500 Du        
    977 ****       105.2500 242.0000 319.0000 Du        
    978 ****       105.2500 242.0000 319.2500 Du        
    979 ****       105.2500 242.0000 319.5000 Du        
    980 ****       105.2500 242.2500 318.0000 Du        
    981 ****       105.2500 242.2500 318.2500 Du        
    982 ****       105.2500 242.2500 318.5000 Du        
    983 ****       105.2500 242.2500 318.7500 Du        
    984 ****       105.2500 242.2500 319.0000 Du        
    985 ****       105.2500 242.2500 319.2500 Du        
    986 ****       105.2500 242.2500 319.5000 Du        
    987 ****       105.2500 242.2500 330.5000 Du        
    988 ****       105.2500 242.2500 330.7500 Du        
    989 ****       105.2500 242.2500 331.0000 Du        
    990 ****       105.2500 242.2500 331.2500 Du        
    991 ****       105.2500 242.5000 319.0000 Du        
    992 ****       105.2500 242.5000 319.2500 Du        
    993 ****       105.2500 242.7500 331.2500 Du        
    994 ****       105.2500 242.7500 331.5000 Du        
    995 ****       105.2500 242.7500 331.7500 Du        
    996 ****       105.2500 242.7500 332.0000 Du        
    997 ****       105.2500 242.7500 332.2500 Du        
    998 ****       105.2500 242.7500 332.5000 Du        
    999 ****       105.2500 242.7500 332.7500 Du        
   1000 ****       105.2500 243.0000 331.0000 Du        
   1001 ****       105.2500 243.0000 331.2500 Du        
   1002 ****       105.2500 243.0000 331.5000 Du        
   1003 ****       105.2500 243.0000 331.7500 Du        
   1004 ****       105.2500 243.0000 332.0000 Du        
   1005 ****       105.2500 243.0000 332.2500 Du        
   1006 ****       105.2500 243.0000 332.5000 Du        
   1007 ****       105.2500 243.0000 332.7500 Du        
   1008 ****       105.2500 243.2500 331.0000 Du        
   1009 ****       105.2500 243.2500 331.2500 Du        
   1010 ****       105.2500 243.2500 331.5000 Du        
   1011 ****       105.2500 243.2500 331.7500 Du        
   1012 ****       105.2500 243.2500 332.0000 Du        
   1013 ****       105.2500 243.2500 332.2500 Du        
   1014 ****       105.2500 243.2500 332.5000 Du        
   1015 ****       105.2500 251.0000 324.7500 Du        
   1016 ****       105.2500 251.0000 325.0000 Du        
   1017 ****       105.2500 251.0000 325.2500 Du        
   1018 ****       105.2500 251.2500 324.0000 Du        
   1019 ****       105.2500 251.2500 324.2500 Du        
   1020 ****       105.2500 251.2500 324.5000 Du        
   1021 ****       105.2500 251.2500 324.7500 Du        
   1022 ****       105.2500 251.2500 325.0000 Du        
   1023 ****       105.2500 251.2500 325.2500 Du        
   1024 ****       105.2500 251.2500 325.7500 Du        
   1025 ****       105.2500 251.5000 323.5000 Du        
   1026 ****       105.2500 251.5000 323.7500 Du        
   1027 ****       105.2500 251.5000 324.0000 Du        
   1028 ****       105.2500 251.5000 324.2500 Du        
   1029 ****       105.2500 251.5000 324.5000 Du        
   1030 ****       105.2500 251.5000 324.7500 Du        
   1031 ****       105.2500 251.5000 325.0000 Du        
   1032 ****       105.2500 251.5000 325.2500 Du        
   1033 ****       105.2500 251.5000 325.5000 Du        
   1034 ****       105.2500 251.5000 325.7500 Du        
   1035 ****       105.2500 251.5000 326.0000 Du        
   1036 ****       105.2500 251.5000 326.2500 Du        
   1037 ****       105.2500 251.7500 322.7500 Du        
   1038 ****       105.2500 251.7500 323.0000 Du        
   1039 ****       105.2500 251.7500 323.2500 Du        
   1040 ****       105.2500 251.7500 323.5000 Du        
   1041 ****       105.2500 251.7500 323.7500 Du        
   1042 ****       105.2500 251.7500 324.0000 Du        
   1043 ****       105.2500 251.7500 324.2500 Du        
   1044 ****       105.2500 251.7500 324.5000 Du        
   1045 ****       105.2500 251.7500 324.7500 Du        
   1046 ****       105.2500 251.7500 325.0000 Du        
   1047 ****       105.2500 251.7500 325.2500 Du        
   1048 ****       105.2500 251.7500 325.5000 Du        
   1049 ****       105.2500 251.7500 325.7500 Du        
   1050 ****       105.2500 251.7500 326.0000 Du        
   1051 ****       105.2500 251.7500 326.2500 Du        
   1052 ****       105.2500 252.0000 322.5000 Du        
   1053 ****       105.2500 252.0000 322.7500 Du        
   1054 ****       105.2500 252.0000 323.0000 Du        
   1055 ****       105.2500 252.0000 323.2500 Du        
   1056 ****       105.2500 252.0000 323.5000 Du        
   1057 ****       105.2500 252.0000 323.7500 Du        
   1058 ****       105.2500 252.0000 324.0000 Du        
   1059 ****       105.2500 252.0000 324.2500 Du        
   1060 ****       105.2500 252.0000 324.5000 Du        
   1061 ****       105.2500 252.0000 324.7500 Du        
   1062 ****       105.2500 252.0000 325.0000 Du        
   1063 ****       105.2500 252.0000 325.2500 Du        
   1064 ****       105.2500 252.0000 325.5000 Du        
   1065 ****       105.2500 252.0000 325.7500 Du        
   1066 ****       105.2500 252.0000 326.0000 Du        
   1067 ****       105.2500 252.0000 326.2500 Du        
   1068 ****       105.2500 252.2500 323.5000 Du        
   1069 ****       105.2500 252.2500 323.7500 Du        
   1070 ****       105.2500 252.2500 324.0000 Du        
   1071 ****       105.2500 252.2500 324.2500 Du        
   1072 ****       105.2500 252.2500 324.5000 Du        
   1073 ****       105.2500 252.2500 324.7500 Du        
   1074 ****       105.2500 252.2500 325.0000 Du        
   1075 ****       105.2500 252.2500 325.2500 Du        
   1076 ****       105.2500 252.2500 325.5000 Du        
   1077 ****       105.2500 252.2500 325.7500 Du        
   1078 ****       105.2500 252.2500 326.0000 Du        
   1079 ****       105.2500 252.2500 326.2500 Du        
   1080 ****       105.2500 252.5000 324.0000 Du        
   1081 ****       105.2500 252.5000 324.2500 Du        
   1082 ****       105.2500 252.5000 324.5000 Du        
   1083 ****       105.2500 252.5000 324.7500 Du        
   1084 ****       105.2500 252.5000 325.0000 Du        
   1085 ****       105.2500 252.5000 325.2500 Du        
   1086 ****       105.2500 252.5000 325.5000 Du        
   1087 ****       105.2500 252.5000 325.7500 Du        
   1088 ****       105.2500 252.5000 326.0000 Du        
   1089 ****       105.2500 252.5000 326.2500 Du        
   1090 ****       105.2500 252.7500 324.5000 Du        
   1091 ****       105.2500 252.7500 324.7500 Du        
   1092 ****       105.2500 252.7500 325.0000 Du        
   1093 ****       105.2500 252.7500 325.2500 Du        
   1094 ****       105.2500 252.7500 325.5000 Du        
   1095 ****       105.2500 252.7500 325.7500 Du        
   1096 ****       105.2500 252.7500 326.0000 Du        
   1097 ****       105.2500 252.7500 326.2500 Du        
   1098 ****       105.2500 253.0000 325.0000 Du        
   1099 ****       105.2500 253.0000 325.2500 Du        
   1100 ****       105.2500 253.0000 325.5000 Du        
   1101 ****       105.2500 253.0000 325.7500 Du        
   1102 ****       105.2500 253.0000 326.0000 Du        
   1103 ****       105.5000 241.5000 319.0000 Du        
   1104 ****       105.5000 241.7500 318.0000 Du        
   1105 ****       105.5000 241.7500 318.2500 Du        
   1106 ****       105.5000 241.7500 318.5000 Du        
   1107 ****       105.5000 241.7500 318.7500 Du        
   1108 ****       105.5000 241.7500 319.0000 Du        
   1109 ****       105.5000 241.7500 319.2500 Du        
   1110 ****       105.5000 242.0000 318.0000 Du        
   1111 ****       105.5000 242.0000 318.2500 Du        
   1112 ****       105.5000 242.0000 318.5000 Du        
   1113 ****       105.5000 242.0000 318.7500 Du        
   1114 ****       105.5000 242.0000 319.0000 Du        
   1115 ****       105.5000 242.0000 319.2500 Du        
   1116 ****       105.5000 242.2500 318.0000 Du        
   1117 ****       105.5000 242.2500 318.2500 Du        
   1118 ****       105.5000 242.2500 318.5000 Du        
   1119 ****       105.5000 242.2500 318.7500 Du        
   1120 ****       105.5000 242.2500 319.0000 Du        
   1121 ****       105.5000 242.2500 319.2500 Du        
   1122 ****       105.5000 242.2500 330.7500 Du        
   1123 ****       105.5000 242.2500 331.0000 Du        
   1124 ****       105.5000 242.2500 331.2500 Du        
   1125 ****       105.5000 242.2500 331.5000 Du        
   1126 ****       105.5000 242.2500 331.7500 Du        
   1127 ****       105.5000 242.2500 333.7500 Du        
   1128 ****       105.5000 242.5000 331.0000 Du        
   1129 ****       105.5000 242.5000 331.2500 Du        
   1130 ****       105.5000 242.5000 331.5000 Du        
   1131 ****       105.5000 242.5000 331.7500 Du        
   1132 ****       105.5000 242.5000 332.0000 Du        
   1133 ****       105.5000 242.5000 332.2500 Du        
   1134 ****       105.5000 242.5000 332.5000 Du        
   1135 ****       105.5000 242.5000 332.7500 Du        
   1136 ****       105.5000 242.5000 333.0000 Du        
   1137 ****       105.5000 242.5000 333.2500 Du        
   1138 ****       105.5000 242.5000 333.5000 Du        
   1139 ****       105.5000 242.5000 333.7500 Du        
   1140 ****       105.5000 242.7500 331.0000 Du        
   1141 ****       105.5000 242.7500 331.2500 Du        
   1142 ****       105.5000 242.7500 331.5000 Du        
   1143 ****       105.5000 242.7500 331.7500 Du        
   1144 ****       105.5000 242.7500 332.0000 Du        
   1145 ****       105.5000 242.7500 332.2500 Du        
   1146 ****       105.5000 242.7500 332.5000 Du        
   1147 ****       105.5000 242.7500 332.7500 Du        
   1148 ****       105.5000 242.7500 333.0000 Du        
   1149 ****       105.5000 242.7500 333.2500 Du        
   1150 ****       105.5000 242.7500 333.5000 Du        
   1151 ****       105.5000 243.0000 331.0000 Du        
   1152 ****       105.5000 243.0000 331.2500 Du        
   1153 ****       105.5000 243.0000 331.5000 Du        
   1154 ****       105.5000 243.0000 331.7500 Du        
   1155 ****       105.5000 243.0000 332.0000 Du        
   1156 ****       105.5000 243.0000 332.2500 Du        
   1157 ****       105.5000 243.0000 332.5000 Du        
   1158 ****       105.5000 243.0000 332.7500 Du        
   1159 ****       105.5000 243.0000 333.0000 Du        
   1160 ****       105.5000 243.0000 333.2500 Du        
   1161 ****       105.5000 243.2500 331.5000 Du        
   1162 ****       105.5000 243.2500 331.7500 Du        
   1163 ****       105.5000 243.2500 332.0000 Du        
   1164 ****       105.5000 243.2500 332.2500 Du        
   1165 ****       105.5000 243.2500 332.5000 Du        
   1166 ****       105.5000 243.2500 332.7500 Du        
   1167 ****       105.5000 243.5000 332.0000 Du        
   1168 ****       105.5000 243.5000 332.2500 Du        
   1169 ****       105.5000 243.5000 332.5000 Du        
   1170 ****       105.5000 243.7500 332.0000 Du        
   1171 ****       105.5000 251.0000 325.5000 Du        
   1172 ****       105.5000 251.0000 325.7500 Du        
   1173 ****       105.5000 251.0000 326.0000 Du        
   1174 ****       105.5000 251.0000 326.2500 Du        
   1175 ****       105.5000 251.2500 324.2500 Du        
   1176 ****       105.5000 251.2500 324.7500 Du        
   1177 ****       105.5000 251.2500 325.0000 Du        
   1178 ****       105.5000 251.2500 325.2500 Du        
   1179 ****       105.5000 251.2500 325.5000 Du        
   1180 ****       105.5000 251.2500 325.7500 Du        
   1181 ****       105.5000 251.2500 326.0000 Du        
   1182 ****       105.5000 251.2500 326.2500 Du        
   1183 ****       105.5000 251.5000 323.5000 Du        
   1184 ****       105.5000 251.5000 323.7500 Du        
   1185 ****       105.5000 251.5000 324.0000 Du        
   1186 ****       105.5000 251.5000 324.2500 Du        
   1187 ****       105.5000 251.5000 324.5000 Du        
   1188 ****       105.5000 251.5000 324.7500 Du        
   1189 ****       105.5000 251.5000 325.0000 Du        
   1190 ****       105.5000 251.5000 325.2500 Du        
   1191 ****       105.5000 251.5000 325.5000 Du        
   1192 ****       105.5000 251.5000 325.7500 Du        
   1193 ****       105.5000 251.5000 326.0000 Du        
   1194 ****       105.5000 251.5000 326.2500 Du        
   1195 ****       105.5000 251.7500 323.0000 Du        
   1196 ****       105.5000 251.7500 323.2500 Du        
   1197 ****       105.5000 251.7500 323.5000 Du        
   1198 ****       105.5000 251.7500 323.7500 Du        
   1199 ****       105.5000 251.7500 324.0000 Du        
   1200 ****       105.5000 251.7500 324.2500 Du        
   1201 ****       105.5000 251.7500 324.5000 Du        
   1202 ****       105.5000 251.7500 324.7500 Du        
   1203 ****       105.5000 251.7500 325.0000 Du        
   1204 ****       105.5000 251.7500 325.2500 Du        
   1205 ****       105.5000 251.7500 325.5000 Du        
   1206 ****       105.5000 251.7500 325.7500 Du        
   1207 ****       105.5000 251.7500 326.0000 Du        
   1208 ****       105.5000 251.7500 326.2500 Du        
   1209 ****       105.5000 252.0000 322.5000 Du        
   1210 ****       105.5000 252.0000 322.7500 Du        
   1211 ****       105.5000 252.0000 323.0000 Du        
   1212 ****       105.5000 252.0000 323.2500 Du        
   1213 ****       105.5000 252.0000 323.5000 Du        
   1214 ****       105.5000 252.0000 323.7500 Du        
   1215 ****       105.5000 252.0000 324.0000 Du        
   1216 ****       105.5000 252.0000 324.2500 Du        
   1217 ****       105.5000 252.0000 324.5000 Du        
   1218 ****       105.5000 252.0000 324.7500 Du        
   1219 ****       105.5000 252.0000 325.0000 Du        
   1220 ****       105.5000 252.0000 325.2500 Du        
   1221 ****       105.5000 252.0000 325.5000 Du        
   1222 ****       105.5000 252.0000 325.7500 Du        
   1223 ****       105.5000 252.0000 326.0000 Du        
   1224 ****       105.5000 252.0000 326.2500 Du        
   1225 ****       105.5000 252.2500 322.7500 Du        
   1226 ****       105.5000 252.2500 323.0000 Du        
   1227 ****       105.5000 252.2500 323.2500 Du        
   1228 ****       105.5000 252.2500 323.5000 Du        
   1229 ****       105.5000 252.2500 323.7500 Du        
   1230 ****       105.5000 252.2500 324.0000 Du        
   1231 ****       105.5000 252.2500 324.2500 Du        
   1232 ****       105.5000 252.2500 324.5000 Du        
   1233 ****       105.5000 252.2500 324.7500 Du        
   1234 ****       105.5000 252.2500 325.0000 Du        
   1235 ****       105.5000 252.2500 325.2500 Du        
   1236 ****       105.5000 252.2500 325.5000 Du        
   1237 ****       105.5000 252.2500 325.7500 Du        
   1238 ****       105.5000 252.2500 326.0000 Du        
   1239 ****       105.5000 252.2500 326.2500 Du        
   1240 ****       105.5000 252.5000 323.7500 Du        
   1241 ****       105.5000 252.5000 324.0000 Du        
   1242 ****       105.5000 252.5000 324.2500 Du        
   1243 ****       105.5000 252.5000 324.5000 Du        
   1244 ****       105.5000 252.5000 324.7500 Du        
   1245 ****       105.5000 252.5000 325.0000 Du        
   1246 ****       105.5000 252.5000 325.2500 Du        
   1247 ****       105.5000 252.5000 325.5000 Du        
   1248 ****       105.5000 252.5000 325.7500 Du        
   1249 ****       105.5000 252.5000 326.0000 Du        
   1250 ****       105.5000 252.7500 324.5000 Du        
   1251 ****       105.5000 252.7500 324.7500 Du        
   1252 ****       105.5000 252.7500 325.0000 Du        
   1253 ****       105.5000 252.7500 325.2500 Du        
   1254 ****       105.5000 252.7500 325.5000 Du        
   1255 ****       105.5000 252.7500 325.7500 Du        
   1256 ****       105.5000 252.7500 326.0000 Du        
   1257 ****       105.7500 241.7500 317.7500 Du        
   1258 ****       105.7500 241.7500 318.0000 Du        
   1259 ****       105.7500 241.7500 318.2500 Du        
   1260 ****       105.7500 241.7500 318.5000 Du        
   1261 ****       105.7500 241.7500 318.7500 Du        
   1262 ****       105.7500 241.7500 319.0000 Du        
   1263 ****       105.7500 241.7500 334.5000 Du        
   1264 ****       105.7500 242.0000 318.0000 Du        
   1265 ****       105.7500 242.0000 318.2500 Du        
   1266 ****       105.7500 242.0000 318.5000 Du        
   1267 ****       105.7500 242.0000 318.7500 Du        
   1268 ****       105.7500 242.0000 319.0000 Du        
   1269 ****       105.7500 242.0000 319.2500 Du        
   1270 ****       105.7500 242.0000 331.2500 Du        
   1271 ****       105.7500 242.0000 333.7500 Du        
   1272 ****       105.7500 242.0000 334.0000 Du        
   1273 ****       105.7500 242.0000 334.2500 Du        
   1274 ****       105.7500 242.0000 334.5000 Du        
   1275 ****       105.7500 242.2500 318.0000 Du        
   1276 ****       105.7500 242.2500 318.2500 Du        
   1277 ****       105.7500 242.2500 318.5000 Du        
   1278 ****       105.7500 242.2500 318.7500 Du        
   1279 ****       105.7500 242.2500 319.0000 Du        
   1280 ****       105.7500 242.2500 330.7500 Du        
   1281 ****       105.7500 242.2500 331.0000 Du        
   1282 ****       105.7500 242.2500 331.2500 Du        
   1283 ****       105.7500 242.2500 331.5000 Du        
   1284 ****       105.7500 242.2500 331.7500 Du        
   1285 ****       105.7500 242.2500 332.0000 Du        
   1286 ****       105.7500 242.2500 332.2500 Du        
   1287 ****       105.7500 242.2500 332.5000 Du        
   1288 ****       105.7500 242.2500 332.7500 Du        
   1289 ****       105.7500 242.2500 333.0000 Du        
   1290 ****       105.7500 242.2500 333.2500 Du        
   1291 ****       105.7500 242.2500 333.5000 Du        
   1292 ****       105.7500 242.2500 333.7500 Du        
   1293 ****       105.7500 242.2500 334.0000 Du        
   1294 ****       105.7500 242.2500 334.2500 Du        
   1295 ****       105.7500 242.2500 334.5000 Du        
   1296 ****       105.7500 242.5000 331.0000 Du        
   1297 ****       105.7500 242.5000 331.2500 Du        
   1298 ****       105.7500 242.5000 331.5000 Du        
   1299 ****       105.7500 242.5000 331.7500 Du        
   1300 ****       105.7500 242.5000 332.0000 Du        
   1301 ****       105.7500 242.5000 332.2500 Du        
   1302 ****       105.7500 242.5000 332.5000 Du        
   1303 ****       105.7500 242.5000 332.7500 Du        
   1304 ****       105.7500 242.5000 333.0000 Du        
   1305 ****       105.7500 242.5000 333.2500 Du        
   1306 ****       105.7500 242.5000 333.5000 Du        
   1307 ****       105.7500 242.5000 333.7500 Du        
   1308 ****       105.7500 242.5000 334.0000 Du        
   1309 ****       105.7500 242.5000 334.2500 Du        
   1310 ****       105.7500 242.7500 331.0000 Du        
   1311 ****       105.7500 242.7500 331.2500 Du        
   1312 ****       105.7500 242.7500 331.5000 Du        
   1313 ****       105.7500 242.7500 331.7500 Du        
   1314 ****       105.7500 242.7500 332.0000 Du        
   1315 ****       105.7500 242.7500 332.2500 Du        
   1316 ****       105.7500 242.7500 332.5000 Du        
   1317 ****       105.7500 242.7500 332.7500 Du        
   1318 ****       105.7500 242.7500 333.0000 Du        
   1319 ****       105.7500 242.7500 333.2500 Du        
   1320 ****       105.7500 242.7500 333.5000 Du        
   1321 ****       105.7500 242.7500 333.7500 Du        
   1322 ****       105.7500 242.7500 334.0000 Du        
   1323 ****       105.7500 242.7500 334.2500 Du        
   1324 ****       105.7500 243.0000 331.0000 Du        
   1325 ****       105.7500 243.0000 331.2500 Du        
   1326 ****       105.7500 243.0000 331.5000 Du        
   1327 ****       105.7500 243.0000 331.7500 Du        
   1328 ****       105.7500 243.0000 332.0000 Du        
   1329 ****       105.7500 243.0000 332.2500 Du        
   1330 ****       105.7500 243.0000 332.5000 Du        
   1331 ****       105.7500 243.0000 332.7500 Du        
   1332 ****       105.7500 243.0000 333.0000 Du        
   1333 ****       105.7500 243.0000 333.2500 Du        
   1334 ****       105.7500 243.0000 333.5000 Du        
   1335 ****       105.7500 243.0000 333.7500 Du        
   1336 ****       105.7500 243.0000 334.0000 Du        
   1337 ****       105.7500 243.2500 331.0000 Du        
   1338 ****       105.7500 243.2500 331.5000 Du        
   1339 ****       105.7500 243.2500 331.7500 Du        
   1340 ****       105.7500 243.2500 332.0000 Du        
   1341 ****       105.7500 243.2500 332.2500 Du        
   1342 ****       105.7500 243.2500 332.5000 Du        
   1343 ****       105.7500 243.2500 332.7500 Du        
   1344 ****       105.7500 243.2500 333.0000 Du        
   1345 ****       105.7500 243.2500 333.2500 Du        
   1346 ****       105.7500 243.2500 333.5000 Du        
   1347 ****       105.7500 243.5000 331.5000 Du        
   1348 ****       105.7500 243.5000 331.7500 Du        
   1349 ****       105.7500 243.5000 332.0000 Du        
   1350 ****       105.7500 243.5000 332.2500 Du        
   1351 ****       105.7500 243.5000 332.5000 Du        
   1352 ****       105.7500 243.5000 332.7500 Du        
   1353 ****       105.7500 243.7500 331.7500 Du        
   1354 ****       105.7500 243.7500 332.0000 Du        
   1355 ****       105.7500 243.7500 332.2500 Du        
   1356 ****       105.7500 243.7500 332.5000 Du        
   1357 ****       105.7500 244.0000 331.7500 Du        
   1358 ****       105.7500 244.0000 332.0000 Du        
   1359 ****       105.7500 250.7500 326.0000 Du        
   1360 ****       105.7500 250.7500 326.2500 Du        
   1361 ****       105.7500 251.0000 325.0000 Du        
   1362 ****       105.7500 251.0000 325.2500 Du        
   1363 ****       105.7500 251.0000 325.5000 Du        
   1364 ****       105.7500 251.0000 325.7500 Du        
   1365 ****       105.7500 251.0000 326.0000 Du        
   1366 ****       105.7500 251.0000 326.2500 Du        
   1367 ****       105.7500 251.2500 324.2500 Du        
   1368 ****       105.7500 251.2500 324.7500 Du        
   1369 ****       105.7500 251.2500 325.0000 Du        
   1370 ****       105.7500 251.2500 325.2500 Du        
   1371 ****       105.7500 251.2500 325.5000 Du        
   1372 ****       105.7500 251.2500 325.7500 Du        
   1373 ****       105.7500 251.2500 326.0000 Du        
   1374 ****       105.7500 251.2500 326.2500 Du        
   1375 ****       105.7500 251.5000 323.7500 Du        
   1376 ****       105.7500 251.5000 324.0000 Du        
   1377 ****       105.7500 251.5000 324.2500 Du        
   1378 ****       105.7500 251.5000 324.5000 Du        
   1379 ****       105.7500 251.5000 324.7500 Du        
   1380 ****       105.7500 251.5000 325.0000 Du        
   1381 ****       105.7500 251.5000 325.2500 Du        
   1382 ****       105.7500 251.5000 325.5000 Du        
   1383 ****       105.7500 251.5000 325.7500 Du        
   1384 ****       105.7500 251.5000 326.0000 Du        
   1385 ****       105.7500 251.5000 326.2500 Du        
   1386 ****       105.7500 251.7500 323.2500 Du        
   1387 ****       105.7500 251.7500 323.5000 Du        
   1388 ****       105.7500 251.7500 323.7500 Du        
   1389 ****       105.7500 251.7500 324.0000 Du        
   1390 ****       105.7500 251.7500 324.2500 Du        
   1391 ****       105.7500 251.7500 324.5000 Du        
   1392 ****       105.7500 251.7500 324.7500 Du        
   1393 ****       105.7500 251.7500 325.0000 Du        
   1394 ****       105.7500 251.7500 325.2500 Du        
   1395 ****       105.7500 251.7500 325.5000 Du        
   1396 ****       105.7500 251.7500 325.7500 Du        
   1397 ****       105.7500 251.7500 326.0000 Du        
   1398 ****       105.7500 251.7500 326.2500 Du        
   1399 ****       105.7500 252.0000 322.7500 Du        
   1400 ****       105.7500 252.0000 323.0000 Du        
   1401 ****       105.7500 252.0000 323.2500 Du        
   1402 ****       105.7500 252.0000 323.5000 Du        
   1403 ****       105.7500 252.0000 323.7500 Du        
   1404 ****       105.7500 252.0000 324.0000 Du        
   1405 ****       105.7500 252.0000 324.2500 Du        
   1406 ****       105.7500 252.0000 324.5000 Du        
   1407 ****       105.7500 252.0000 324.7500 Du        
   1408 ****       105.7500 252.0000 325.0000 Du        
   1409 ****       105.7500 252.0000 325.2500 Du        
   1410 ****       105.7500 252.0000 325.5000 Du        
   1411 ****       105.7500 252.0000 325.7500 Du        
   1412 ****       105.7500 252.0000 326.0000 Du        
   1413 ****       105.7500 252.0000 326.2500 Du        
   1414 ****       105.7500 252.2500 322.5000 Du        
   1415 ****       105.7500 252.2500 322.7500 Du        
   1416 ****       105.7500 252.2500 323.0000 Du        
   1417 ****       105.7500 252.2500 323.2500 Du        
   1418 ****       105.7500 252.2500 323.5000 Du        
   1419 ****       105.7500 252.2500 323.7500 Du        
   1420 ****       105.7500 252.2500 324.0000 Du        
   1421 ****       105.7500 252.2500 324.2500 Du        
   1422 ****       105.7500 252.2500 324.5000 Du        
   1423 ****       105.7500 252.2500 324.7500 Du        
   1424 ****       105.7500 252.2500 325.0000 Du        
   1425 ****       105.7500 252.2500 325.2500 Du        
   1426 ****       105.7500 252.2500 325.5000 Du        
   1427 ****       105.7500 252.2500 325.7500 Du        
   1428 ****       105.7500 252.2500 326.0000 Du        
   1429 ****       105.7500 252.5000 323.5000 Du        
   1430 ****       105.7500 252.5000 323.7500 Du        
   1431 ****       105.7500 252.5000 324.0000 Du        
   1432 ****       105.7500 252.5000 324.2500 Du        
   1433 ****       105.7500 252.5000 324.5000 Du        
   1434 ****       105.7500 252.5000 324.7500 Du        
   1435 ****       105.7500 252.5000 325.0000 Du        
   1436 ****       105.7500 252.5000 325.2500 Du        
   1437 ****       105.7500 252.5000 325.5000 Du        
   1438 ****       105.7500 252.5000 325.7500 Du        
   1439 ****       105.7500 252.5000 326.0000 Du        
   1440 ****       105.7500 252.7500 324.2500 Du        
   1441 ****       105.7500 252.7500 324.5000 Du        
   1442 ****       105.7500 252.7500 324.7500 Du        
   1443 ****       105.7500 252.7500 325.0000 Du        
   1444 ****       105.7500 252.7500 325.2500 Du        
   1445 ****       106.0000 241.2500 334.7500 Du        
   1446 ****       106.0000 241.2500 335.0000 Du        
   1447 ****       106.0000 241.5000 334.2500 Du        
   1448 ****       106.0000 241.5000 334.5000 Du        
   1449 ****       106.0000 241.5000 334.7500 Du        
   1450 ****       106.0000 241.7500 317.7500 Du        
   1451 ****       106.0000 241.7500 318.0000 Du        
   1452 ****       106.0000 241.7500 318.2500 Du        
   1453 ****       106.0000 241.7500 318.5000 Du        
   1454 ****       106.0000 241.7500 333.7500 Du        
   1455 ****       106.0000 241.7500 334.0000 Du        
   1456 ****       106.0000 241.7500 334.2500 Du        
   1457 ****       106.0000 241.7500 334.5000 Du        
   1458 ****       106.0000 241.7500 334.7500 Du        
   1459 ****       106.0000 242.0000 318.0000 Du        
   1460 ****       106.0000 242.0000 318.2500 Du        
   1461 ****       106.0000 242.0000 318.5000 Du        
   1462 ****       106.0000 242.0000 318.7500 Du        
   1463 ****       106.0000 242.0000 331.0000 Du        
   1464 ****       106.0000 242.0000 331.2500 Du        
   1465 ****       106.0000 242.0000 331.5000 Du        
   1466 ****       106.0000 242.0000 331.7500 Du        
   1467 ****       106.0000 242.0000 332.0000 Du        
   1468 ****       106.0000 242.0000 332.2500 Du        
   1469 ****       106.0000 242.0000 332.7500 Du        
   1470 ****       106.0000 242.0000 333.0000 Du        
   1471 ****       106.0000 242.0000 333.2500 Du        
   1472 ****       106.0000 242.0000 333.5000 Du        
   1473 ****       106.0000 242.0000 333.7500 Du        
   1474 ****       106.0000 242.0000 334.0000 Du        
   1475 ****       106.0000 242.0000 334.2500 Du        
   1476 ****       106.0000 242.0000 334.5000 Du        
   1477 ****       106.0000 242.2500 318.2500 Du        
   1478 ****       106.0000 242.2500 318.5000 Du        
   1479 ****       106.0000 242.2500 318.7500 Du        
   1480 ****       106.0000 242.2500 330.7500 Du        
   1481 ****       106.0000 242.2500 331.0000 Du        
   1482 ****       106.0000 242.2500 331.2500 Du        
   1483 ****       106.0000 242.2500 331.5000 Du        
   1484 ****       106.0000 242.2500 331.7500 Du        
   1485 ****       106.0000 242.2500 332.0000 Du        
   1486 ****       106.0000 242.2500 332.2500 Du        
   1487 ****       106.0000 242.2500 332.5000 Du        
   1488 ****       106.0000 242.2500 332.7500 Du        
   1489 ****       106.0000 242.2500 333.0000 Du        
   1490 ****       106.0000 242.2500 333.2500 Du        
   1491 ****       106.0000 242.2500 333.5000 Du        
   1492 ****       106.0000 242.2500 333.7500 Du        
   1493 ****       106.0000 242.2500 334.0000 Du        
   1494 ****       106.0000 242.2500 334.2500 Du        
   1495 ****       106.0000 242.2500 334.5000 Du        
   1496 ****       106.0000 242.5000 330.7500 Du        
   1497 ****       106.0000 242.5000 331.0000 Du        
   1498 ****       106.0000 242.5000 331.2500 Du        
   1499 ****       106.0000 242.5000 331.5000 Du        
   1500 ****       106.0000 242.5000 331.7500 Du        
   1501 ****       106.0000 242.5000 332.0000 Du        
   1502 ****       106.0000 242.5000 332.2500 Du        
   1503 ****       106.0000 242.5000 332.5000 Du        
   1504 ****       106.0000 242.5000 332.7500 Du        
   1505 ****       106.0000 242.5000 333.0000 Du        
   1506 ****       106.0000 242.5000 333.2500 Du        
   1507 ****       106.0000 242.5000 333.5000 Du        
   1508 ****       106.0000 242.5000 333.7500 Du        
   1509 ****       106.0000 242.5000 334.0000 Du        
   1510 ****       106.0000 242.5000 334.2500 Du        
   1511 ****       106.0000 242.7500 330.7500 Du        
   1512 ****       106.0000 242.7500 331.0000 Du        
   1513 ****       106.0000 242.7500 331.2500 Du        
   1514 ****       106.0000 242.7500 331.5000 Du        
   1515 ****       106.0000 242.7500 331.7500 Du        
   1516 ****       106.0000 242.7500 332.0000 Du        
   1517 ****       106.0000 242.7500 332.2500 Du        
   1518 ****       106.0000 242.7500 332.5000 Du        
   1519 ****       106.0000 242.7500 332.7500 Du        
   1520 ****       106.0000 242.7500 333.0000 Du        
   1521 ****       106.0000 242.7500 333.2500 Du        
   1522 ****       106.0000 242.7500 333.5000 Du        
   1523 ****       106.0000 242.7500 333.7500 Du        
   1524 ****       106.0000 242.7500 334.0000 Du        
   1525 ****       106.0000 242.7500 334.2500 Du        
   1526 ****       106.0000 243.0000 330.7500 Du        
   1527 ****       106.0000 243.0000 331.0000 Du        
   1528 ****       106.0000 243.0000 331.2500 Du        
   1529 ****       106.0000 243.0000 331.5000 Du        
   1530 ****       106.0000 243.0000 331.7500 Du        
   1531 ****       106.0000 243.0000 332.0000 Du        
   1532 ****       106.0000 243.0000 332.2500 Du        
   1533 ****       106.0000 243.0000 332.5000 Du        
   1534 ****       106.0000 243.0000 332.7500 Du        
   1535 ****       106.0000 243.0000 333.0000 Du        
   1536 ****       106.0000 243.0000 333.2500 Du        
   1537 ****       106.0000 243.0000 333.5000 Du        
   1538 ****       106.0000 243.0000 333.7500 Du        
   1539 ****       106.0000 243.0000 334.0000 Du        
   1540 ****       106.0000 243.2500 331.5000 Du        
   1541 ****       106.0000 243.2500 331.7500 Du        
   1542 ****       106.0000 243.2500 332.0000 Du        
   1543 ****       106.0000 243.2500 332.2500 Du        
   1544 ****       106.0000 243.2500 332.5000 Du        
   1545 ****       106.0000 243.2500 332.7500 Du        
   1546 ****       106.0000 243.2500 333.0000 Du        
   1547 ****       106.0000 243.2500 333.2500 Du        
   1548 ****       106.0000 243.2500 333.5000 Du        
   1549 ****       106.0000 243.2500 333.7500 Du        
   1550 ****       106.0000 243.5000 331.5000 Du        
   1551 ****       106.0000 243.5000 331.7500 Du        
   1552 ****       106.0000 243.5000 332.0000 Du        
   1553 ****       106.0000 243.5000 332.2500 Du        
   1554 ****       106.0000 243.5000 332.5000 Du        
   1555 ****       106.0000 243.5000 332.7500 Du        
   1556 ****       106.0000 243.5000 333.0000 Du        
   1557 ****       106.0000 243.5000 333.2500 Du        
   1558 ****       106.0000 243.5000 333.5000 Du        
   1559 ****       106.0000 243.7500 331.5000 Du        
   1560 ****       106.0000 243.7500 331.7500 Du        
   1561 ****       106.0000 243.7500 332.0000 Du        
   1562 ****       106.0000 243.7500 332.2500 Du        
   1563 ****       106.0000 243.7500 332.5000 Du        
   1564 ****       106.0000 243.7500 332.7500 Du        
   1565 ****       106.0000 244.0000 331.5000 Du        
   1566 ****       106.0000 244.0000 331.7500 Du        
   1567 ****       106.0000 244.0000 332.0000 Du        
   1568 ****       106.0000 244.0000 332.2500 Du        
   1569 ****       106.0000 244.0000 332.5000 Du        
   1570 ****       106.0000 244.2500 331.7500 Du        
   1571 ****       106.0000 244.2500 332.0000 Du        
   1572 ****       106.0000 250.7500 325.7500 Du        
   1573 ****       106.0000 250.7500 326.0000 Du        
   1574 ****       106.0000 250.7500 326.2500 Du        
   1575 ****       106.0000 251.0000 325.0000 Du        
   1576 ****       106.0000 251.0000 325.2500 Du        
   1577 ****       106.0000 251.0000 325.5000 Du        
   1578 ****       106.0000 251.0000 325.7500 Du        
   1579 ****       106.0000 251.0000 326.0000 Du        
   1580 ****       106.0000 251.0000 326.2500 Du        
   1581 ****       106.0000 251.2500 324.7500 Du        
   1582 ****       106.0000 251.2500 325.0000 Du        
   1583 ****       106.0000 251.2500 325.2500 Du        
   1584 ****       106.0000 251.2500 325.5000 Du        
   1585 ****       106.0000 251.2500 325.7500 Du        
   1586 ****       106.0000 251.2500 326.0000 Du        
   1587 ****       106.0000 251.2500 326.2500 Du        
   1588 ****       106.0000 251.5000 324.0000 Du        
   1589 ****       106.0000 251.5000 324.2500 Du        
   1590 ****       106.0000 251.5000 324.5000 Du        
   1591 ****       106.0000 251.5000 324.7500 Du        
   1592 ****       106.0000 251.5000 325.0000 Du        
   1593 ****       106.0000 251.5000 325.2500 Du        
   1594 ****       106.0000 251.5000 325.5000 Du        
   1595 ****       106.0000 251.5000 325.7500 Du        
   1596 ****       106.0000 251.5000 326.0000 Du        
   1597 ****       106.0000 251.5000 326.2500 Du        
   1598 ****       106.0000 251.7500 323.5000 Du        
   1599 ****       106.0000 251.7500 323.7500 Du        
   1600 ****       106.0000 251.7500 324.0000 Du        
   1601 ****       106.0000 251.7500 324.2500 Du        
   1602 ****       106.0000 251.7500 324.5000 Du        
   1603 ****       106.0000 251.7500 324.7500 Du        
   1604 ****       106.0000 251.7500 325.0000 Du        
   1605 ****       106.0000 251.7500 325.2500 Du        
   1606 ****       106.0000 251.7500 325.5000 Du        
   1607 ****       106.0000 251.7500 325.7500 Du        
   1608 ****       106.0000 251.7500 326.0000 Du        
   1609 ****       106.0000 252.0000 323.0000 Du        
   1610 ****       106.0000 252.0000 323.2500 Du        
   1611 ****       106.0000 252.0000 323.5000 Du        
   1612 ****       106.0000 252.0000 323.7500 Du        
   1613 ****       106.0000 252.0000 324.0000 Du        
   1614 ****       106.0000 252.0000 324.2500 Du        
   1615 ****       106.0000 252.0000 324.5000 Du        
   1616 ****       106.0000 252.0000 324.7500 Du        
   1617 ****       106.0000 252.0000 325.0000 Du        
   1618 ****       106.0000 252.0000 325.2500 Du        
   1619 ****       106.0000 252.0000 325.5000 Du        
   1620 ****       106.0000 252.0000 325.7500 Du        
   1621 ****       106.0000 252.0000 326.0000 Du        
   1622 ****       106.0000 252.2500 322.7500 Du        
   1623 ****       106.0000 252.2500 323.0000 Du        
   1624 ****       106.0000 252.2500 323.2500 Du        
   1625 ****       106.0000 252.2500 323.5000 Du        
   1626 ****       106.0000 252.2500 323.7500 Du        
   1627 ****       106.0000 252.2500 324.0000 Du        
   1628 ****       106.0000 252.2500 324.2500 Du        
   1629 ****       106.0000 252.2500 324.5000 Du        
   1630 ****       106.0000 252.2500 324.7500 Du        
   1631 ****       106.0000 252.2500 325.0000 Du        
   1632 ****       106.0000 252.2500 325.2500 Du        
   1633 ****       106.0000 252.2500 325.5000 Du        
   1634 ****       106.0000 252.2500 325.7500 Du        
   1635 ****       106.0000 252.5000 322.7500 Du        
   1636 ****       106.0000 252.5000 323.0000 Du        
   1637 ****       106.0000 252.5000 323.2500 Du        
   1638 ****       106.0000 252.5000 323.5000 Du        
   1639 ****       106.0000 252.5000 323.7500 Du        
   1640 ****       106.0000 252.5000 324.0000 Du        
   1641 ****       106.0000 252.5000 324.2500 Du        
   1642 ****       106.0000 252.5000 324.5000 Du        
   1643 ****       106.0000 252.5000 324.7500 Du        
   1644 ****       106.0000 252.5000 325.0000 Du        
   1645 ****       106.0000 252.5000 325.2500 Du        
   1646 ****       106.0000 252.7500 324.0000 Du        
   1647 ****       106.0000 252.7500 324.2500 Du        
   1648 ****       106.0000 252.7500 324.5000 Du        
   1649 ****       106.0000 252.7500 324.7500 Du        
   1650 ****       106.2500 241.0000 334.7500 Du        
   1651 ****       106.2500 241.2500 334.5000 Du        
   1652 ****       106.2500 241.2500 334.7500 Du        
   1653 ****       106.2500 241.5000 334.0000 Du        
   1654 ****       106.2500 241.5000 334.2500 Du        
   1655 ****       106.2500 241.5000 334.5000 Du        
   1656 ****       106.2500 241.7500 333.2500 Du        
   1657 ****       106.2500 241.7500 333.5000 Du        
   1658 ****       106.2500 241.7500 333.7500 Du        
   1659 ****       106.2500 241.7500 334.0000 Du        
   1660 ****       106.2500 241.7500 334.2500 Du        
   1661 ****       106.2500 241.7500 334.5000 Du        
   1662 ****       106.2500 242.0000 318.2500 Du        
   1663 ****       106.2500 242.0000 331.0000 Du        
   1664 ****       106.2500 242.0000 331.2500 Du        
   1665 ****       106.2500 242.0000 331.5000 Du        
   1666 ****       106.2500 242.0000 331.7500 Du        
   1667 ****       106.2500 242.0000 332.0000 Du        
   1668 ****       106.2500 242.0000 332.2500 Du        
   1669 ****       106.2500 242.0000 332.5000 Du        
   1670 ****       106.2500 242.0000 332.7500 Du        
   1671 ****       106.2500 242.0000 333.0000 Du        
   1672 ****       106.2500 242.0000 333.2500 Du        
   1673 ****       106.2500 242.0000 333.5000 Du        
   1674 ****       106.2500 242.0000 333.7500 Du        
   1675 ****       106.2500 242.0000 334.0000 Du        
   1676 ****       106.2500 242.0000 334.2500 Du        
   1677 ****       106.2500 242.0000 334.5000 Du        
   1678 ****       106.2500 242.2500 330.7500 Du        
   1679 ****       106.2500 242.2500 331.0000 Du        
   1680 ****       106.2500 242.2500 331.2500 Du        
   1681 ****       106.2500 242.2500 331.5000 Du        
   1682 ****       106.2500 242.2500 331.7500 Du        
   1683 ****       106.2500 242.2500 332.0000 Du        
   1684 ****       106.2500 242.2500 332.2500 Du        
   1685 ****       106.2500 242.2500 332.5000 Du        
   1686 ****       106.2500 242.2500 332.7500 Du        
   1687 ****       106.2500 242.2500 333.0000 Du        
   1688 ****       106.2500 242.2500 333.2500 Du        
   1689 ****       106.2500 242.2500 333.5000 Du        
   1690 ****       106.2500 242.2500 333.7500 Du        
   1691 ****       106.2500 242.2500 334.0000 Du        
   1692 ****       106.2500 242.2500 334.2500 Du        
   1693 ****       106.2500 242.5000 330.7500 Du        
   1694 ****       106.2500 242.5000 331.0000 Du        
   1695 ****       106.2500 242.5000 331.2500 Du        
   1696 ****       106.2500 242.5000 331.5000 Du        
   1697 ****       106.2500 242.5000 331.7500 Du        
   1698 ****       106.2500 242.5000 332.0000 Du        
   1699 ****       106.2500 242.5000 332.2500 Du        
   1700 ****       106.2500 242.5000 332.5000 Du        
   1701 ****       106.2500 242.5000 332.7500 Du        
   1702 ****       106.2500 242.5000 333.0000 Du        
   1703 ****       106.2500 242.5000 333.2500 Du        
   1704 ****       106.2500 242.5000 333.5000 Du        
   1705 ****       106.2500 242.5000 333.7500 Du        
   1706 ****       106.2500 242.5000 334.0000 Du        
   1707 ****       106.2500 242.5000 334.2500 Du        
   1708 ****       106.2500 242.7500 330.7500 Du        
   1709 ****       106.2500 242.7500 331.0000 Du        
   1710 ****       106.2500 242.7500 331.2500 Du        
   1711 ****       106.2500 242.7500 331.5000 Du        
   1712 ****       106.2500 242.7500 331.7500 Du        
   1713 ****       106.2500 242.7500 332.0000 Du        
   1714 ****       106.2500 242.7500 332.2500 Du        
   1715 ****       106.2500 242.7500 332.5000 Du        
   1716 ****       106.2500 242.7500 332.7500 Du        
   1717 ****       106.2500 242.7500 333.0000 Du        
   1718 ****       106.2500 242.7500 333.2500 Du        
   1719 ****       106.2500 242.7500 333.5000 Du        
   1720 ****       106.2500 242.7500 333.7500 Du        
   1721 ****       106.2500 242.7500 334.0000 Du        
   1722 ****       106.2500 243.0000 330.7500 Du        
   1723 ****       106.2500 243.0000 331.0000 Du        
   1724 ****       106.2500 243.0000 331.2500 Du        
   1725 ****       106.2500 243.0000 331.5000 Du        
   1726 ****       106.2500 243.0000 331.7500 Du        
   1727 ****       106.2500 243.0000 332.0000 Du        
   1728 ****       106.2500 243.0000 332.2500 Du        
   1729 ****       106.2500 243.0000 332.5000 Du        
   1730 ****       106.2500 243.0000 332.7500 Du        
   1731 ****       106.2500 243.0000 333.0000 Du        
   1732 ****       106.2500 243.0000 333.2500 Du        
   1733 ****       106.2500 243.0000 333.5000 Du        
   1734 ****       106.2500 243.0000 333.7500 Du        
   1735 ****       106.2500 243.0000 334.0000 Du        
   1736 ****       106.2500 243.2500 331.2500 Du        
   1737 ****       106.2500 243.2500 331.5000 Du        
   1738 ****       106.2500 243.2500 331.7500 Du        
   1739 ****       106.2500 243.2500 332.0000 Du        
   1740 ****       106.2500 243.2500 332.2500 Du        
   1741 ****       106.2500 243.2500 332.5000 Du        
   1742 ****       106.2500 243.2500 332.7500 Du        
   1743 ****       106.2500 243.2500 333.0000 Du        
   1744 ****       106.2500 243.2500 333.2500 Du        
   1745 ****       106.2500 243.2500 333.5000 Du        
   1746 ****       106.2500 243.2500 333.7500 Du        
   1747 ****       106.2500 243.5000 331.5000 Du        
   1748 ****       106.2500 243.5000 331.7500 Du        
   1749 ****       106.2500 243.5000 332.0000 Du        
   1750 ****       106.2500 243.5000 332.2500 Du        
   1751 ****       106.2500 243.5000 332.5000 Du        
   1752 ****       106.2500 243.5000 332.7500 Du        
   1753 ****       106.2500 243.5000 333.0000 Du        
   1754 ****       106.2500 243.5000 333.2500 Du        
   1755 ****       106.2500 243.5000 333.5000 Du        
   1756 ****       106.2500 243.5000 333.7500 Du        
   1757 ****       106.2500 243.7500 331.5000 Du        
   1758 ****       106.2500 243.7500 331.7500 Du        
   1759 ****       106.2500 243.7500 332.0000 Du        
   1760 ****       106.2500 243.7500 332.2500 Du        
   1761 ****       106.2500 243.7500 332.5000 Du        
   1762 ****       106.2500 243.7500 332.7500 Du        
   1763 ****       106.2500 243.7500 333.0000 Du        
   1764 ****       106.2500 244.0000 331.5000 Du        
   1765 ****       106.2500 244.0000 331.7500 Du        
   1766 ****       106.2500 244.0000 332.0000 Du        
   1767 ****       106.2500 244.0000 332.2500 Du        
   1768 ****       106.2500 244.0000 332.5000 Du        
   1769 ****       106.2500 244.0000 332.7500 Du        
   1770 ****       106.2500 244.2500 331.7500 Du        
   1771 ****       106.2500 244.2500 332.0000 Du        
   1772 ****       106.2500 244.2500 332.2500 Du        
   1773 ****       106.2500 244.5000 331.7500 Du        
   1774 ****       106.2500 250.5000 326.0000 Du        
   1775 ****       106.2500 250.7500 325.7500 Du        
   1776 ****       106.2500 250.7500 326.0000 Du        
   1777 ****       106.2500 250.7500 326.2500 Du        
   1778 ****       106.2500 251.0000 325.0000 Du        
   1779 ****       106.2500 251.0000 325.2500 Du        
   1780 ****       106.2500 251.0000 325.5000 Du        
   1781 ****       106.2500 251.0000 325.7500 Du        
   1782 ****       106.2500 251.0000 326.0000 Du        
   1783 ****       106.2500 251.2500 324.7500 Du        
   1784 ****       106.2500 251.2500 325.0000 Du        
   1785 ****       106.2500 251.2500 325.2500 Du        
   1786 ****       106.2500 251.2500 325.5000 Du        
   1787 ****       106.2500 251.2500 325.7500 Du        
   1788 ****       106.2500 251.2500 326.0000 Du        
   1789 ****       106.2500 251.5000 324.2500 Du        
   1790 ****       106.2500 251.5000 324.5000 Du        
   1791 ****       106.2500 251.5000 324.7500 Du        
   1792 ****       106.2500 251.5000 325.0000 Du        
   1793 ****       106.2500 251.5000 325.2500 Du        
   1794 ****       106.2500 251.5000 325.5000 Du        
   1795 ****       106.2500 251.5000 325.7500 Du        
   1796 ****       106.2500 251.5000 326.0000 Du        
   1797 ****       106.2500 251.7500 323.7500 Du        
   1798 ****       106.2500 251.7500 324.0000 Du        
   1799 ****       106.2500 251.7500 324.2500 Du        
   1800 ****       106.2500 251.7500 324.5000 Du        
   1801 ****       106.2500 251.7500 324.7500 Du        
   1802 ****       106.2500 251.7500 325.0000 Du        
   1803 ****       106.2500 251.7500 325.2500 Du        
   1804 ****       106.2500 251.7500 325.5000 Du        
   1805 ****       106.2500 251.7500 325.7500 Du        
   1806 ****       106.2500 251.7500 326.0000 Du        
   1807 ****       106.2500 252.0000 323.0000 Du        
   1808 ****       106.2500 252.0000 323.2500 Du        
   1809 ****       106.2500 252.0000 323.5000 Du        
   1810 ****       106.2500 252.0000 323.7500 Du        
   1811 ****       106.2500 252.0000 324.0000 Du        
   1812 ****       106.2500 252.0000 324.2500 Du        
   1813 ****       106.2500 252.0000 324.5000 Du        
   1814 ****       106.2500 252.0000 324.7500 Du        
   1815 ****       106.2500 252.0000 325.0000 Du        
   1816 ****       106.2500 252.0000 325.2500 Du        
   1817 ****       106.2500 252.0000 325.5000 Du        
   1818 ****       106.2500 252.0000 325.7500 Du        
   1819 ****       106.2500 252.2500 322.7500 Du        
   1820 ****       106.2500 252.2500 323.0000 Du        
   1821 ****       106.2500 252.2500 323.2500 Du        
   1822 ****       106.2500 252.2500 323.5000 Du        
   1823 ****       106.2500 252.2500 323.7500 Du        
   1824 ****       106.2500 252.2500 324.0000 Du        
   1825 ****       106.2500 252.2500 324.2500 Du        
   1826 ****       106.2500 252.2500 324.5000 Du        
   1827 ****       106.2500 252.2500 324.7500 Du        
   1828 ****       106.2500 252.2500 325.0000 Du        
   1829 ****       106.2500 252.2500 325.2500 Du        
   1830 ****       106.2500 252.5000 322.7500 Du        
   1831 ****       106.2500 252.5000 323.0000 Du        
   1832 ****       106.2500 252.5000 323.2500 Du        
   1833 ****       106.2500 252.5000 323.5000 Du        
   1834 ****       106.2500 252.5000 323.7500 Du        
   1835 ****       106.2500 252.5000 324.0000 Du        
   1836 ****       106.2500 252.5000 324.2500 Du        
   1837 ****       106.2500 252.5000 324.5000 Du        
   1838 ****       106.2500 252.5000 324.7500 Du        
   1839 ****       106.2500 252.5000 325.0000 Du        
   1840 ****       106.2500 252.7500 324.0000 Du        
   1841 ****       106.2500 252.7500 324.2500 Du        
   1842 ****       106.5000 241.7500 331.5000 Du        
   1843 ****       106.5000 241.7500 331.7500 Du        
   1844 ****       106.5000 241.7500 332.0000 Du        
   1845 ****       106.5000 241.7500 332.2500 Du        
   1846 ****       106.5000 241.7500 333.7500 Du        
   1847 ****       106.5000 241.7500 334.0000 Du        
   1848 ****       106.5000 242.0000 331.0000 Du        
   1849 ****       106.5000 242.0000 331.2500 Du        
   1850 ****       106.5000 242.0000 331.5000 Du        
   1851 ****       106.5000 242.0000 331.7500 Du        
   1852 ****       106.5000 242.0000 332.0000 Du        
   1853 ****       106.5000 242.0000 332.2500 Du        
   1854 ****       106.5000 242.0000 332.5000 Du        
   1855 ****       106.5000 242.0000 332.7500 Du        
   1856 ****       106.5000 242.0000 333.0000 Du        
   1857 ****       106.5000 242.0000 333.2500 Du        
   1858 ****       106.5000 242.0000 333.5000 Du        
   1859 ****       106.5000 242.0000 333.7500 Du        
   1860 ****       106.5000 242.0000 334.0000 Du        
   1861 ****       106.5000 242.2500 330.7500 Du        
   1862 ****       106.5000 242.2500 331.0000 Du        
   1863 ****       106.5000 242.2500 331.2500 Du        
   1864 ****       106.5000 242.2500 331.5000 Du        
   1865 ****       106.5000 242.2500 331.7500 Du        
   1866 ****       106.5000 242.2500 332.0000 Du        
   1867 ****       106.5000 242.2500 332.2500 Du        
   1868 ****       106.5000 242.2500 332.5000 Du        
   1869 ****       106.5000 242.2500 332.7500 Du        
   1870 ****       106.5000 242.2500 333.0000 Du        
   1871 ****       106.5000 242.2500 333.2500 Du        
   1872 ****       106.5000 242.2500 333.5000 Du        
   1873 ****       106.5000 242.2500 333.7500 Du        
   1874 ****       106.5000 242.2500 334.0000 Du        
   1875 ****       106.5000 242.5000 331.0000 Du        
   1876 ****       106.5000 242.5000 331.2500 Du        
   1877 ****       106.5000 242.5000 331.5000 Du        
   1878 ****       106.5000 242.5000 331.7500 Du        
   1879 ****       106.5000 242.5000 332.0000 Du        
   1880 ****       106.5000 242.5000 332.2500 Du        
   1881 ****       106.5000 242.5000 332.5000 Du        
   1882 ****       106.5000 242.5000 332.7500 Du        
   1883 ****       106.5000 242.5000 333.0000 Du        
   1884 ****       106.5000 242.5000 333.2500 Du        
   1885 ****       106.5000 242.5000 333.5000 Du        
   1886 ****       106.5000 242.5000 333.7500 Du        
   1887 ****       106.5000 242.5000 334.0000 Du        
   1888 ****       106.5000 242.7500 330.7500 Du        
   1889 ****       106.5000 242.7500 331.0000 Du        
   1890 ****       106.5000 242.7500 331.2500 Du        
   1891 ****       106.5000 242.7500 331.5000 Du        
   1892 ****       106.5000 242.7500 331.7500 Du        
   1893 ****       106.5000 242.7500 332.0000 Du        
   1894 ****       106.5000 242.7500 332.2500 Du        
   1895 ****       106.5000 242.7500 332.5000 Du        
   1896 ****       106.5000 242.7500 332.7500 Du        
   1897 ****       106.5000 242.7500 333.0000 Du        
   1898 ****       106.5000 242.7500 333.2500 Du        
   1899 ****       106.5000 242.7500 333.5000 Du        
   1900 ****       106.5000 242.7500 333.7500 Du        
   1901 ****       106.5000 242.7500 334.0000 Du        
   1902 ****       106.5000 243.0000 331.0000 Du        
   1903 ****       106.5000 243.0000 331.2500 Du        
   1904 ****       106.5000 243.0000 331.5000 Du        
   1905 ****       106.5000 243.0000 331.7500 Du        
   1906 ****       106.5000 243.0000 332.0000 Du        
   1907 ****       106.5000 243.0000 332.2500 Du        
   1908 ****       106.5000 243.0000 332.5000 Du        
   1909 ****       106.5000 243.0000 332.7500 Du        
   1910 ****       106.5000 243.0000 333.0000 Du        
   1911 ****       106.5000 243.0000 333.2500 Du        
   1912 ****       106.5000 243.0000 333.5000 Du        
   1913 ****       106.5000 243.0000 333.7500 Du        
   1914 ****       106.5000 243.2500 331.2500 Du        
   1915 ****       106.5000 243.2500 331.5000 Du        
   1916 ****       106.5000 243.2500 331.7500 Du        
   1917 ****       106.5000 243.2500 332.0000 Du        
   1918 ****       106.5000 243.2500 332.2500 Du        
   1919 ****       106.5000 243.2500 332.5000 Du        
   1920 ****       106.5000 243.2500 332.7500 Du        
   1921 ****       106.5000 243.2500 333.0000 Du        
   1922 ****       106.5000 243.2500 333.2500 Du        
   1923 ****       106.5000 243.2500 333.5000 Du        
   1924 ****       106.5000 243.2500 333.7500 Du        
   1925 ****       106.5000 243.5000 331.7500 Du        
   1926 ****       106.5000 243.5000 332.0000 Du        
   1927 ****       106.5000 243.5000 332.2500 Du        
   1928 ****       106.5000 243.5000 332.5000 Du        
   1929 ****       106.5000 243.5000 332.7500 Du        
   1930 ****       106.5000 243.5000 333.0000 Du        
   1931 ****       106.5000 243.5000 333.2500 Du        
   1932 ****       106.5000 243.5000 333.5000 Du        
   1933 ****       106.5000 243.7500 331.2500 Du        
   1934 ****       106.5000 243.7500 331.5000 Du        
   1935 ****       106.5000 243.7500 331.7500 Du        
   1936 ****       106.5000 243.7500 332.0000 Du        
   1937 ****       106.5000 243.7500 332.2500 Du        
   1938 ****       106.5000 243.7500 332.5000 Du        
   1939 ****       106.5000 243.7500 332.7500 Du        
   1940 ****       106.5000 243.7500 333.0000 Du        
   1941 ****       106.5000 243.7500 333.2500 Du        
   1942 ****       106.5000 243.7500 333.5000 Du        
   1943 ****       106.5000 244.0000 331.5000 Du        
   1944 ****       106.5000 244.0000 331.7500 Du        
   1945 ****       106.5000 244.0000 332.0000 Du        
   1946 ****       106.5000 244.0000 332.2500 Du        
   1947 ****       106.5000 244.0000 332.5000 Du        
   1948 ****       106.5000 244.0000 332.7500 Du        
   1949 ****       106.5000 244.0000 333.0000 Du        
   1950 ****       106.5000 244.0000 333.2500 Du        
   1951 ****       106.5000 244.2500 331.5000 Du        
   1952 ****       106.5000 244.2500 331.7500 Du        
   1953 ****       106.5000 244.2500 332.0000 Du        
   1954 ****       106.5000 244.2500 332.2500 Du        
   1955 ****       106.5000 244.2500 332.5000 Du        
   1956 ****       106.5000 244.2500 332.7500 Du        
   1957 ****       106.5000 244.5000 331.7500 Du        
   1958 ****       106.5000 244.5000 332.0000 Du        
   1959 ****       106.5000 244.7500 331.7500 Du        
   1960 ****       106.5000 244.7500 332.0000 Du        
   1961 ****       106.5000 250.7500 326.0000 Du        
   1962 ****       106.5000 251.0000 325.2500 Du        
   1963 ****       106.5000 251.0000 325.5000 Du        
   1964 ****       106.5000 251.0000 325.7500 Du        
   1965 ****       106.5000 251.0000 326.0000 Du        
   1966 ****       106.5000 251.2500 324.7500 Du        
   1967 ****       106.5000 251.2500 325.0000 Du        
   1968 ****       106.5000 251.2500 325.2500 Du        
   1969 ****       106.5000 251.2500 325.5000 Du        
   1970 ****       106.5000 251.2500 325.7500 Du        
   1971 ****       106.5000 251.2500 326.0000 Du        
   1972 ****       106.5000 251.5000 324.2500 Du        
   1973 ****       106.5000 251.5000 324.5000 Du        
   1974 ****       106.5000 251.5000 324.7500 Du        
   1975 ****       106.5000 251.5000 325.0000 Du        
   1976 ****       106.5000 251.5000 325.2500 Du        
   1977 ****       106.5000 251.5000 325.5000 Du        
   1978 ****       106.5000 251.5000 325.7500 Du        
   1979 ****       106.5000 251.7500 323.7500 Du        
   1980 ****       106.5000 251.7500 324.0000 Du        
   1981 ****       106.5000 251.7500 324.2500 Du        
   1982 ****       106.5000 251.7500 324.5000 Du        
   1983 ****       106.5000 251.7500 324.7500 Du        
   1984 ****       106.5000 251.7500 325.0000 Du        
   1985 ****       106.5000 251.7500 325.2500 Du        
   1986 ****       106.5000 251.7500 325.5000 Du        
   1987 ****       106.5000 252.0000 323.2500 Du        
   1988 ****       106.5000 252.0000 323.5000 Du        
   1989 ****       106.5000 252.0000 323.7500 Du        
   1990 ****       106.5000 252.0000 324.0000 Du        
   1991 ****       106.5000 252.0000 324.2500 Du        
   1992 ****       106.5000 252.0000 324.5000 Du        
   1993 ****       106.5000 252.0000 324.7500 Du        
   1994 ****       106.5000 252.0000 325.0000 Du        
   1995 ****       106.5000 252.0000 325.2500 Du        
   1996 ****       106.5000 252.2500 323.0000 Du        
   1997 ****       106.5000 252.2500 323.2500 Du        
   1998 ****       106.5000 252.2500 323.5000 Du        
   1999 ****       106.5000 252.2500 323.7500 Du        
   2000 ****       106.5000 252.2500 324.0000 Du        
   2001 ****       106.5000 252.2500 324.2500 Du        
   2002 ****       106.5000 252.2500 324.5000 Du        
   2003 ****       106.5000 252.2500 324.7500 Du        
   2004 ****       106.5000 252.5000 322.7500 Du        
   2005 ****       106.5000 252.5000 323.0000 Du        
   2006 ****       106.5000 252.5000 323.2500 Du        
   2007 ****       106.5000 252.5000 323.5000 Du        
   2008 ****       106.5000 252.5000 323.7500 Du        
   2009 ****       106.5000 252.5000 324.0000 Du        
   2010 ****       106.5000 252.5000 324.2500 Du        
   2011 ****       106.5000 252.5000 324.5000 Du        
   2012 ****       106.7500 241.7500 331.5000 Du        
   2013 ****       106.7500 241.7500 331.7500 Du        
   2014 ****       106.7500 241.7500 332.0000 Du        
   2015 ****       106.7500 242.0000 331.0000 Du        
   2016 ****       106.7500 242.0000 331.2500 Du        
   2017 ****       106.7500 242.0000 331.5000 Du        
   2018 ****       106.7500 242.0000 331.7500 Du        
   2019 ****       106.7500 242.0000 332.0000 Du        
   2020 ****       106.7500 242.0000 332.2500 Du        
   2021 ****       106.7500 242.0000 332.5000 Du        
   2022 ****       106.7500 242.0000 332.7500 Du        
   2023 ****       106.7500 242.2500 330.7500 Du        
   2024 ****       106.7500 242.2500 331.0000 Du        
   2025 ****       106.7500 242.2500 331.2500 Du        
   2026 ****       106.7500 242.2500 331.5000 Du        
   2027 ****       106.7500 242.2500 331.7500 Du        
   2028 ****       106.7500 242.2500 332.0000 Du        
   2029 ****       106.7500 242.2500 332.2500 Du        
   2030 ****       106.7500 242.2500 332.5000 Du        
   2031 ****       106.7500 242.2500 332.7500 Du        
   2032 ****       106.7500 242.2500 333.0000 Du        
   2033 ****       106.7500 242.2500 333.2500 Du        
   2034 ****       106.7500 242.2500 333.5000 Du        
   2035 ****       106.7500 242.5000 331.0000 Du        
   2036 ****       106.7500 242.5000 331.2500 Du        
   2037 ****       106.7500 242.5000 331.5000 Du        
   2038 ****       106.7500 242.5000 331.7500 Du        
   2039 ****       106.7500 242.5000 332.0000 Du        
   2040 ****       106.7500 242.5000 332.2500 Du        
   2041 ****       106.7500 242.5000 332.5000 Du        
   2042 ****       106.7500 242.5000 332.7500 Du        
   2043 ****       106.7500 242.5000 333.0000 Du        
   2044 ****       106.7500 242.5000 333.2500 Du        
   2045 ****       106.7500 242.5000 333.5000 Du        
   2046 ****       106.7500 242.7500 330.7500 Du        
   2047 ****       106.7500 242.7500 331.0000 Du        
   2048 ****       106.7500 242.7500 331.2500 Du        
   2049 ****       106.7500 242.7500 331.5000 Du        
   2050 ****       106.7500 242.7500 331.7500 Du        
   2051 ****       106.7500 242.7500 332.0000 Du        
   2052 ****       106.7500 242.7500 332.2500 Du        
   2053 ****       106.7500 242.7500 332.5000 Du        
   2054 ****       106.7500 242.7500 332.7500 Du        
   2055 ****       106.7500 242.7500 333.0000 Du        
   2056 ****       106.7500 242.7500 333.2500 Du        
   2057 ****       106.7500 242.7500 333.5000 Du        
   2058 ****       106.7500 243.0000 331.0000 Du        
   2059 ****       106.7500 243.0000 331.2500 Du        
   2060 ****       106.7500 243.0000 331.5000 Du        
   2061 ****       106.7500 243.0000 331.7500 Du        
   2062 ****       106.7500 243.0000 332.0000 Du        
   2063 ****       106.7500 243.0000 332.2500 Du        
   2064 ****       106.7500 243.0000 332.5000 Du        
   2065 ****       106.7500 243.0000 332.7500 Du        
   2066 ****       106.7500 243.0000 333.0000 Du        
   2067 ****       106.7500 243.0000 333.2500 Du        
   2068 ****       106.7500 243.0000 333.5000 Du        
   2069 ****       106.7500 243.2500 331.0000 Du        
   2070 ****       106.7500 243.2500 331.2500 Du        
   2071 ****       106.7500 243.2500 331.5000 Du        
   2072 ****       106.7500 243.2500 331.7500 Du        
   2073 ****       106.7500 243.2500 332.0000 Du        
   2074 ****       106.7500 243.2500 332.2500 Du        
   2075 ****       106.7500 243.2500 332.5000 Du        
   2076 ****       106.7500 243.2500 332.7500 Du        
   2077 ****       106.7500 243.2500 333.0000 Du        
   2078 ****       106.7500 243.2500 333.2500 Du        
   2079 ****       106.7500 243.2500 333.5000 Du        
   2080 ****       106.7500 243.5000 331.2500 Du        
   2081 ****       106.7500 243.5000 331.5000 Du        
   2082 ****       106.7500 243.5000 331.7500 Du        
   2083 ****       106.7500 243.5000 332.0000 Du        
   2084 ****       106.7500 243.5000 332.2500 Du        
   2085 ****       106.7500 243.5000 332.5000 Du        
   2086 ****       106.7500 243.5000 332.7500 Du        
   2087 ****       106.7500 243.5000 333.0000 Du        
   2088 ****       106.7500 243.5000 333.2500 Du        
   2089 ****       106.7500 243.5000 333.5000 Du        
   2090 ****       106.7500 243.7500 331.2500 Du        
   2091 ****       106.7500 243.7500 331.5000 Du        
   2092 ****       106.7500 243.7500 331.7500 Du        
   2093 ****       106.7500 243.7500 332.0000 Du        
   2094 ****       106.7500 243.7500 332.2500 Du        
   2095 ****       106.7500 243.7500 332.5000 Du        
   2096 ****       106.7500 243.7500 332.7500 Du        
   2097 ****       106.7500 243.7500 333.0000 Du        
   2098 ****       106.7500 243.7500 333.2500 Du        
   2099 ****       106.7500 243.7500 333.5000 Du        
   2100 ****       106.7500 244.0000 331.2500 Du        
   2101 ****       106.7500 244.0000 331.5000 Du        
   2102 ****       106.7500 244.0000 331.7500 Du        
   2103 ****       106.7500 244.0000 332.0000 Du        
   2104 ****       106.7500 244.0000 332.2500 Du        
   2105 ****       106.7500 244.0000 332.5000 Du        
   2106 ****       106.7500 244.0000 332.7500 Du        
   2107 ****       106.7500 244.0000 333.0000 Du        
   2108 ****       106.7500 244.0000 333.2500 Du        
   2109 ****       106.7500 244.2500 331.5000 Du        
   2110 ****       106.7500 244.2500 331.7500 Du        
   2111 ****       106.7500 244.2500 332.0000 Du        
   2112 ****       106.7500 244.2500 332.2500 Du        
   2113 ****       106.7500 244.2500 332.5000 Du        
   2114 ****       106.7500 244.2500 332.7500 Du        
   2115 ****       106.7500 244.2500 333.0000 Du        
   2116 ****       106.7500 244.5000 331.7500 Du        
   2117 ****       106.7500 244.5000 332.0000 Du        
   2118 ****       106.7500 244.5000 332.2500 Du        
   2119 ****       106.7500 244.5000 332.5000 Du        
   2120 ****       106.7500 244.5000 332.7500 Du        
   2121 ****       106.7500 244.7500 331.5000 Du        
   2122 ****       106.7500 244.7500 331.7500 Du        
   2123 ****       106.7500 244.7500 332.0000 Du        
   2124 ****       106.7500 244.7500 332.2500 Du        
   2125 ****       106.7500 244.7500 332.5000 Du        
   2126 ****       106.7500 245.0000 331.5000 Du        
   2127 ****       106.7500 245.0000 331.7500 Du        
   2128 ****       106.7500 245.0000 332.0000 Du        
   2129 ****       106.7500 245.0000 332.2500 Du        
   2130 ****       106.7500 245.2500 331.5000 Du        
   2131 ****       106.7500 245.2500 331.7500 Du        
   2132 ****       106.7500 245.2500 332.0000 Du        
   2133 ****       106.7500 249.0000 328.5000 Du        
   2134 ****       106.7500 250.5000 326.0000 Du        
   2135 ****       106.7500 250.7500 325.7500 Du        
   2136 ****       106.7500 250.7500 326.0000 Du        
   2137 ****       106.7500 251.0000 325.2500 Du        
   2138 ****       106.7500 251.0000 325.5000 Du        
   2139 ****       106.7500 251.0000 325.7500 Du        
   2140 ****       106.7500 251.0000 326.0000 Du        
   2141 ****       106.7500 251.2500 325.0000 Du        
   2142 ****       106.7500 251.2500 325.2500 Du        
   2143 ****       106.7500 251.2500 325.5000 Du        
   2144 ****       106.7500 251.2500 325.7500 Du        
   2145 ****       106.7500 251.2500 326.0000 Du        
   2146 ****       106.7500 251.5000 324.5000 Du        
   2147 ****       106.7500 251.5000 324.7500 Du        
   2148 ****       106.7500 251.5000 325.0000 Du        
   2149 ****       106.7500 251.5000 325.2500 Du        
   2150 ****       106.7500 251.7500 324.0000 Du        
   2151 ****       106.7500 251.7500 324.2500 Du        
   2152 ****       106.7500 251.7500 324.5000 Du        
   2153 ****       106.7500 251.7500 324.7500 Du        
   2154 ****       106.7500 251.7500 325.0000 Du        
   2155 ****       106.7500 252.0000 323.2500 Du        
   2156 ****       106.7500 252.0000 323.5000 Du        
   2157 ****       106.7500 252.0000 323.7500 Du        
   2158 ****       106.7500 252.0000 324.0000 Du        
   2159 ****       106.7500 252.0000 324.2500 Du        
   2160 ****       106.7500 252.0000 324.5000 Du        
   2161 ****       106.7500 252.0000 324.7500 Du        
   2162 ****       106.7500 252.2500 323.0000 Du        
   2163 ****       106.7500 252.2500 323.2500 Du        
   2164 ****       106.7500 252.2500 323.5000 Du        
   2165 ****       106.7500 252.2500 323.7500 Du        
   2166 ****       106.7500 252.2500 324.0000 Du        
   2167 ****       106.7500 252.2500 324.2500 Du        
   2168 ****       106.7500 252.5000 322.7500 Du        
   2169 ****       106.7500 252.5000 323.0000 Du        
   2170 ****       106.7500 252.5000 323.2500 Du        
   2171 ****       106.7500 252.5000 323.5000 Du        
   2172 ****       106.7500 252.5000 323.7500 Du        
   2173 ****       106.7500 252.5000 324.0000 Du        
   2174 ****       106.7500 252.7500 323.2500 Du        
   2175 ****       107.0000 241.7500 331.2500 Du        
   2176 ****       107.0000 241.7500 331.5000 Du        
   2177 ****       107.0000 241.7500 331.7500 Du        
   2178 ****       107.0000 242.0000 331.0000 Du        
   2179 ****       107.0000 242.0000 331.2500 Du        
   2180 ****       107.0000 242.0000 331.5000 Du        
   2181 ****       107.0000 242.0000 331.7500 Du        
   2182 ****       107.0000 242.0000 332.0000 Du        
   2183 ****       107.0000 242.2500 330.7500 Du        
   2184 ****       107.0000 242.2500 331.0000 Du        
   2185 ****       107.0000 242.2500 331.2500 Du        
   2186 ****       107.0000 242.2500 331.5000 Du        
   2187 ****       107.0000 242.2500 331.7500 Du        
   2188 ****       107.0000 242.2500 332.0000 Du        
   2189 ****       107.0000 242.2500 332.2500 Du        
   2190 ****       107.0000 242.5000 331.0000 Du        
   2191 ****       107.0000 242.5000 331.2500 Du        
   2192 ****       107.0000 242.5000 331.5000 Du        
   2193 ****       107.0000 242.5000 331.7500 Du        
   2194 ****       107.0000 242.5000 332.0000 Du        
   2195 ****       107.0000 242.5000 332.2500 Du        
   2196 ****       107.0000 242.7500 330.7500 Du        
   2197 ****       107.0000 242.7500 331.0000 Du        
   2198 ****       107.0000 242.7500 331.2500 Du        
   2199 ****       107.0000 242.7500 331.5000 Du        
   2200 ****       107.0000 242.7500 331.7500 Du        
   2201 ****       107.0000 242.7500 332.0000 Du        
   2202 ****       107.0000 242.7500 332.2500 Du        
   2203 ****       107.0000 242.7500 332.5000 Du        
   2204 ****       107.0000 243.0000 330.7500 Du        
   2205 ****       107.0000 243.0000 331.0000 Du        
   2206 ****       107.0000 243.0000 331.2500 Du        
   2207 ****       107.0000 243.0000 331.5000 Du        
   2208 ****       107.0000 243.0000 331.7500 Du        
   2209 ****       107.0000 243.0000 332.0000 Du        
   2210 ****       107.0000 243.0000 332.2500 Du        
   2211 ****       107.0000 243.0000 332.5000 Du        
   2212 ****       107.0000 243.0000 332.7500 Du        
   2213 ****       107.0000 243.2500 331.0000 Du        
   2214 ****       107.0000 243.2500 331.2500 Du        
   2215 ****       107.0000 243.2500 331.5000 Du        
   2216 ****       107.0000 243.2500 331.7500 Du        
   2217 ****       107.0000 243.2500 332.0000 Du        
   2218 ****       107.0000 243.2500 332.2500 Du        
   2219 ****       107.0000 243.2500 332.5000 Du        
   2220 ****       107.0000 243.2500 332.7500 Du        
   2221 ****       107.0000 243.2500 333.0000 Du        
   2222 ****       107.0000 243.5000 331.2500 Du        
   2223 ****       107.0000 243.5000 331.5000 Du        
   2224 ****       107.0000 243.5000 331.7500 Du        
   2225 ****       107.0000 243.5000 332.0000 Du        
   2226 ****       107.0000 243.5000 332.2500 Du        
   2227 ****       107.0000 243.5000 332.5000 Du        
   2228 ****       107.0000 243.5000 332.7500 Du        
   2229 ****       107.0000 243.5000 333.0000 Du        
   2230 ****       107.0000 243.7500 331.0000 Du        
   2231 ****       107.0000 243.7500 331.2500 Du        
   2232 ****       107.0000 243.7500 331.5000 Du        
   2233 ****       107.0000 243.7500 331.7500 Du        
   2234 ****       107.0000 243.7500 332.0000 Du        
   2235 ****       107.0000 243.7500 332.2500 Du        
   2236 ****       107.0000 243.7500 332.5000 Du        
   2237 ****       107.0000 243.7500 332.7500 Du        
   2238 ****       107.0000 243.7500 333.0000 Du        
   2239 ****       107.0000 243.7500 333.2500 Du        
   2240 ****       107.0000 244.0000 331.0000 Du        
   2241 ****       107.0000 244.0000 331.2500 Du        
   2242 ****       107.0000 244.0000 331.5000 Du        
   2243 ****       107.0000 244.0000 331.7500 Du        
   2244 ****       107.0000 244.0000 332.0000 Du        
   2245 ****       107.0000 244.0000 332.2500 Du        
   2246 ****       107.0000 244.0000 332.5000 Du        
   2247 ****       107.0000 244.0000 332.7500 Du        
   2248 ****       107.0000 244.0000 333.0000 Du        
   2249 ****       107.0000 244.0000 333.2500 Du        
   2250 ****       107.0000 244.2500 331.2500 Du        
   2251 ****       107.0000 244.2500 331.5000 Du        
   2252 ****       107.0000 244.2500 331.7500 Du        
   2253 ****       107.0000 244.2500 332.0000 Du        
   2254 ****       107.0000 244.2500 332.2500 Du        
   2255 ****       107.0000 244.2500 332.5000 Du        
   2256 ****       107.0000 244.2500 332.7500 Du        
   2257 ****       107.0000 244.2500 333.0000 Du        
   2258 ****       107.0000 244.2500 333.2500 Du        
   2259 ****       107.0000 244.5000 331.7500 Du        
   2260 ****       107.0000 244.5000 332.0000 Du        
   2261 ****       107.0000 244.5000 332.2500 Du        
   2262 ****       107.0000 244.5000 332.5000 Du        
   2263 ****       107.0000 244.5000 332.7500 Du        
   2264 ****       107.0000 244.5000 333.0000 Du        
   2265 ****       107.0000 244.7500 331.5000 Du        
   2266 ****       107.0000 244.7500 331.7500 Du        
   2267 ****       107.0000 244.7500 332.0000 Du        
   2268 ****       107.0000 244.7500 332.2500 Du        
   2269 ****       107.0000 244.7500 332.5000 Du        
   2270 ****       107.0000 244.7500 332.7500 Du        
   2271 ****       107.0000 245.0000 331.5000 Du        
   2272 ****       107.0000 245.0000 331.7500 Du        
   2273 ****       107.0000 245.0000 332.0000 Du        
   2274 ****       107.0000 245.0000 332.2500 Du        
   2275 ****       107.0000 245.0000 332.5000 Du        
   2276 ****       107.0000 245.2500 331.5000 Du        
   2277 ****       107.0000 245.2500 331.7500 Du        
   2278 ****       107.0000 245.2500 332.0000 Du        
   2279 ****       107.0000 245.2500 332.2500 Du        
   2280 ****       107.0000 245.5000 331.5000 Du        
   2281 ****       107.0000 245.5000 331.7500 Du        
   2282 ****       107.0000 245.5000 332.0000 Du        
   2283 ****       107.0000 245.7500 331.2500 Du        
   2284 ****       107.0000 250.5000 326.0000 Du        
   2285 ****       107.0000 250.7500 325.7500 Du        
   2286 ****       107.0000 250.7500 326.0000 Du        
   2287 ****       107.0000 251.0000 325.2500 Du        
   2288 ****       107.0000 251.0000 325.5000 Du        
   2289 ****       107.0000 251.0000 325.7500 Du        
   2290 ****       107.0000 251.5000 324.7500 Du        
   2291 ****       107.0000 251.7500 324.0000 Du        
   2292 ****       107.0000 251.7500 324.2500 Du        
   2293 ****       107.0000 252.0000 323.5000 Du        
   2294 ****       107.0000 252.0000 323.7500 Du        
   2295 ****       107.0000 252.0000 324.0000 Du        
   2296 ****       107.0000 252.0000 324.2500 Du        
   2297 ****       107.0000 252.2500 323.0000 Du        
   2298 ****       107.0000 252.2500 323.2500 Du        
   2299 ****       107.0000 252.2500 323.5000 Du        
   2300 ****       107.0000 252.2500 323.7500 Du        
   2301 ****       107.0000 252.2500 324.0000 Du        
   2302 ****       107.0000 252.5000 323.0000 Du        
   2303 ****       107.0000 252.5000 323.2500 Du        
   2304 ****       107.0000 252.5000 323.5000 Du        
   2305 ****       107.0000 252.5000 323.7500 Du        
   2306 ****       107.0000 252.7500 323.2500 Du        
   2307 ****       107.2500 242.0000 331.0000 Du        
   2308 ****       107.2500 242.0000 331.2500 Du        
   2309 ****       107.2500 242.0000 331.5000 Du        
   2310 ****       107.2500 242.2500 330.7500 Du        
   2311 ****       107.2500 242.2500 331.0000 Du        
   2312 ****       107.2500 242.2500 331.2500 Du        
   2313 ****       107.2500 242.2500 331.5000 Du        
   2314 ****       107.2500 242.2500 331.7500 Du        
   2315 ****       107.2500 242.5000 330.7500 Du        
   2316 ****       107.2500 242.5000 331.0000 Du        
   2317 ****       107.2500 242.5000 331.2500 Du        
   2318 ****       107.2500 242.5000 331.5000 Du        
   2319 ****       107.2500 242.7500 330.7500 Du        
   2320 ****       107.2500 242.7500 331.0000 Du        
   2321 ****       107.2500 242.7500 331.2500 Du        
   2322 ****       107.2500 242.7500 331.5000 Du        
   2323 ****       107.2500 242.7500 331.7500 Du        
   2324 ****       107.2500 243.0000 330.7500 Du        
   2325 ****       107.2500 243.0000 331.0000 Du        
   2326 ****       107.2500 243.0000 331.2500 Du        
   2327 ****       107.2500 243.0000 331.5000 Du        
   2328 ****       107.2500 243.0000 331.7500 Du        
   2329 ****       107.2500 243.0000 332.0000 Du        
   2330 ****       107.2500 243.2500 331.0000 Du        
   2331 ****       107.2500 243.2500 331.2500 Du        
   2332 ****       107.2500 243.2500 331.5000 Du        
   2333 ****       107.2500 243.2500 331.7500 Du        
   2334 ****       107.2500 243.2500 332.0000 Du        
   2335 ****       107.2500 243.7500 331.2500 Du        
   2336 ****       107.2500 243.7500 331.5000 Du        
   2337 ****       107.2500 243.7500 331.7500 Du        
   2338 ****       107.2500 243.7500 332.0000 Du        
   2339 ****       107.2500 244.0000 331.2500 Du        
   2340 ****       107.2500 244.0000 331.5000 Du        
   2341 ****       107.2500 244.0000 331.7500 Du        
   2342 ****       107.2500 244.0000 332.0000 Du        
   2343 ****       107.2500 244.0000 332.2500 Du        
   2344 ****       107.2500 244.0000 332.5000 Du        
   2345 ****       107.2500 244.2500 331.2500 Du        
   2346 ****       107.2500 244.2500 331.5000 Du        
   2347 ****       107.2500 244.2500 331.7500 Du        
   2348 ****       107.2500 244.2500 332.0000 Du        
   2349 ****       107.2500 244.2500 332.2500 Du        
   2350 ****       107.2500 244.2500 332.5000 Du        
   2351 ****       107.2500 244.2500 332.7500 Du        
   2352 ****       107.2500 244.5000 332.0000 Du        
   2353 ****       107.2500 244.5000 332.2500 Du        
   2354 ****       107.2500 244.5000 332.5000 Du        
   2355 ****       107.2500 244.5000 332.7500 Du        
   2356 ****       107.2500 244.5000 333.0000 Du        
   2357 ****       107.2500 244.7500 331.7500 Du        
   2358 ****       107.2500 244.7500 332.0000 Du        
   2359 ****       107.2500 244.7500 332.2500 Du        
   2360 ****       107.2500 244.7500 332.5000 Du        
   2361 ****       107.2500 244.7500 332.7500 Du        
   2362 ****       107.2500 244.7500 333.0000 Du        
   2363 ****       107.2500 245.0000 331.5000 Du        
   2364 ****       107.2500 245.0000 331.7500 Du        
   2365 ****       107.2500 245.0000 332.0000 Du        
   2366 ****       107.2500 245.0000 332.2500 Du        
   2367 ****       107.2500 245.0000 332.5000 Du        
   2368 ****       107.2500 245.0000 332.7500 Du        
   2369 ****       107.2500 245.0000 333.0000 Du        
   2370 ****       107.2500 245.2500 331.5000 Du        
   2371 ****       107.2500 245.2500 331.7500 Du        
   2372 ****       107.2500 245.2500 332.0000 Du        
   2373 ****       107.2500 245.2500 332.2500 Du        
   2374 ****       107.2500 245.2500 332.5000 Du        
   2375 ****       107.2500 245.5000 331.5000 Du        
   2376 ****       107.2500 245.5000 331.7500 Du        
   2377 ****       107.2500 245.5000 332.0000 Du        
   2378 ****       107.2500 245.7500 331.0000 Du        
   2379 ****       107.2500 245.7500 331.2500 Du        
   2380 ****       107.2500 245.7500 331.5000 Du        
   2381 ****       107.2500 252.2500 323.2500 Du        
   2382 ****       107.2500 252.2500 323.5000 Du        
   2383 ****       107.2500 252.5000 323.0000 Du        
   2384 ****       107.2500 252.5000 323.2500 Du        
   2385 ****       107.2500 252.5000 323.5000 Du        
   2386 ****       107.5000 242.0000 331.0000 Du        
   2387 ****       107.5000 242.0000 331.2500 Du        
   2388 ****       107.5000 242.2500 330.5000 Du        
   2389 ****       107.5000 242.2500 330.7500 Du        
   2390 ****       107.5000 242.2500 331.0000 Du        
   2391 ****       107.5000 242.2500 331.2500 Du        
   2392 ****       107.5000 242.2500 331.5000 Du        
   2393 ****       107.5000 242.5000 330.7500 Du        
   2394 ****       107.5000 242.5000 331.0000 Du        
   2395 ****       107.5000 242.5000 331.2500 Du        
   2396 ****       107.5000 242.7500 330.5000 Du        
   2397 ****       107.5000 242.7500 330.7500 Du        
   2398 ****       107.5000 242.7500 331.0000 Du        
   2399 ****       107.5000 242.7500 331.2500 Du        
   2400 ****       107.5000 243.0000 330.7500 Du        
   2401 ****       107.5000 243.0000 331.0000 Du        
   2402 ****       107.5000 243.0000 331.2500 Du        
   2403 ****       107.5000 243.2500 331.0000 Du        
   2404 ****       107.5000 243.2500 331.2500 Du        
   2405 ****       107.5000 243.7500 331.5000 Du        
   2406 ****       107.5000 244.0000 331.5000 Du        
   2407 ****       107.5000 244.2500 331.5000 Du        
   2408 ****       107.5000 244.5000 331.5000 Du        
   2409 ****       107.5000 244.5000 331.7500 Du        
   2410 ****       107.5000 244.7500 331.5000 Du        
   2411 ****       107.5000 244.7500 331.7500 Du        
   2412 ****       107.5000 244.7500 332.0000 Du        
   2413 ****       107.5000 244.7500 332.2500 Du        
   2414 ****       107.5000 244.7500 332.5000 Du        
   2415 ****       107.5000 245.0000 331.5000 Du        
   2416 ****       107.5000 245.0000 331.7500 Du        
   2417 ****       107.5000 245.0000 332.0000 Du        
   2418 ****       107.5000 245.0000 332.2500 Du        
   2419 ****       107.5000 245.0000 332.5000 Du        
   2420 ****       107.5000 245.0000 332.7500 Du        
   2421 ****       107.5000 245.2500 331.5000 Du        
   2422 ****       107.5000 245.2500 331.7500 Du        
   2423 ****       107.5000 245.2500 332.0000 Du        
   2424 ****       107.5000 245.2500 332.2500 Du        
   2425 ****       107.5000 245.2500 332.5000 Du        
   2426 ****       107.5000 245.5000 331.2500 Du        
   2427 ****       107.5000 245.5000 331.5000 Du        
   2428 ****       107.5000 245.5000 331.7500 Du        
   2429 ****       107.5000 245.5000 332.0000 Du        
   2430 ****       107.5000 245.5000 332.2500 Du        
   2431 ****       107.5000 245.7500 331.2500 Du        
   2432 ****       107.5000 245.7500 331.5000 Du        
   2433 ****       107.5000 245.7500 331.7500 Du        
   2434 ****       107.5000 249.5000 327.7500 Du        
   2435 ****       107.5000 249.7500 326.7500 Du        
   2436 ****       107.5000 249.7500 327.0000 Du        
   2437 ****       107.5000 250.5000 326.0000 Du        
   2438 ****       107.5000 252.2500 323.2500 Du        
   2439 ****       107.5000 252.5000 323.0000 Du        
   2440 ****       107.5000 252.5000 323.2500 Du        
   2441 ****       107.7500 242.0000 330.7500 Du        
   2442 ****       107.7500 242.0000 331.0000 Du        
   2443 ****       107.7500 242.2500 330.5000 Du        
   2444 ****       107.7500 242.2500 330.7500 Du        
   2445 ****       107.7500 242.2500 331.0000 Du        
   2446 ****       107.7500 242.2500 331.2500 Du        
   2447 ****       107.7500 242.5000 330.5000 Du        
   2448 ****       107.7500 242.5000 330.7500 Du        
   2449 ****       107.7500 242.5000 331.0000 Du        
   2450 ****       107.7500 242.5000 331.2500 Du        
   2451 ****       107.7500 242.7500 330.2500 Du        
   2452 ****       107.7500 242.7500 330.5000 Du        
   2453 ****       107.7500 242.7500 330.7500 Du        
   2454 ****       107.7500 242.7500 331.0000 Du        
   2455 ****       107.7500 242.7500 331.2500 Du        
   2456 ****       107.7500 243.0000 330.7500 Du        
   2457 ****       107.7500 243.0000 331.0000 Du        
   2458 ****       107.7500 243.0000 331.2500 Du        
   2459 ****       107.7500 243.2500 330.7500 Du        
   2460 ****       107.7500 243.2500 331.0000 Du        
   2461 ****       107.7500 244.7500 331.5000 Du        
   2462 ****       107.7500 245.0000 331.5000 Du        
   2463 ****       107.7500 245.0000 331.7500 Du        
   2464 ****       107.7500 245.0000 332.0000 Du        
   2465 ****       107.7500 245.2500 331.5000 Du        
   2466 ****       107.7500 245.2500 331.7500 Du        
   2467 ****       107.7500 245.2500 332.0000 Du        
   2468 ****       107.7500 245.2500 332.2500 Du        
   2469 ****       107.7500 245.5000 331.2500 Du        
   2470 ****       107.7500 245.5000 331.5000 Du        
   2471 ****       107.7500 245.5000 331.7500 Du        
   2472 ****       107.7500 245.5000 332.0000 Du        
   2473 ****       107.7500 245.7500 331.2500 Du        
   2474 ****       107.7500 245.7500 331.5000 Du        
   2475 ****       107.7500 245.7500 331.7500 Du        
   2476 ****       107.7500 249.0000 328.0000 Du        
   2477 ****       107.7500 249.2500 327.7500 Du        
   2478 ****       107.7500 249.2500 328.0000 Du        
   2479 ****       107.7500 249.5000 327.5000 Du        
   2480 ****       107.7500 249.5000 327.7500 Du        
   2481 ****       107.7500 249.5000 328.0000 Du        
   2482 ****       107.7500 249.7500 327.0000 Du        
   2483 ****       107.7500 249.7500 327.2500 Du        
   2484 ****       108.0000 242.0000 331.0000 Du        
   2485 ****       108.0000 242.2500 330.5000 Du        
   2486 ****       108.0000 242.2500 330.7500 Du        
   2487 ****       108.0000 242.2500 331.0000 Du        
   2488 ****       108.0000 242.5000 330.5000 Du        
   2489 ****       108.0000 242.5000 330.7500 Du        
   2490 ****       108.0000 242.5000 331.0000 Du        
   2491 ****       108.0000 242.7500 330.2500 Du        
   2492 ****       108.0000 242.7500 330.5000 Du        
   2493 ****       108.0000 242.7500 330.7500 Du        
   2494 ****       108.0000 242.7500 331.0000 Du        
   2495 ****       108.0000 243.0000 330.0000 Du        
   2496 ****       108.0000 243.0000 330.2500 Du        
   2497 ****       108.0000 243.0000 330.7500 Du        
   2498 ****       108.0000 243.0000 331.0000 Du        
   2499 ****       108.0000 243.2500 331.0000 Du        
   2500 ****       108.0000 245.0000 331.5000 Du        
   2501 ****       108.0000 245.0000 331.7500 Du        
   2502 ****       108.0000 245.2500 331.5000 Du        
   2503 ****       108.0000 245.2500 331.7500 Du        
   2504 ****       108.0000 245.2500 332.0000 Du        
   2505 ****       108.0000 245.5000 331.5000 Du        
   2506 ****       108.0000 245.5000 331.7500 Du        
   2507 ****       108.0000 245.5000 332.0000 Du        
   2508 ****       108.0000 245.7500 331.2500 Du        
   2509 ****       108.0000 245.7500 331.5000 Du        
   2510 ****       108.0000 245.7500 331.7500 Du        
   2511 ****       108.0000 249.0000 327.7500 Du        
   2512 ****       108.0000 249.0000 328.0000 Du        
   2513 ****       108.0000 249.0000 328.2500 Du        
   2514 ****       108.0000 249.2500 327.5000 Du        
   2515 ****       108.0000 249.2500 327.7500 Du        
   2516 ****       108.0000 249.2500 328.0000 Du        
   2517 ****       108.0000 249.2500 328.2500 Du        
   2518 ****       108.0000 249.5000 327.2500 Du        
   2519 ****       108.0000 249.5000 327.5000 Du        
   2520 ****       108.0000 249.5000 327.7500 Du        
   2521 ****       108.0000 249.5000 328.0000 Du        
   2522 ****       108.0000 249.5000 328.2500 Du        
   2523 ****       108.0000 249.7500 327.0000 Du        
   2524 ****       108.0000 249.7500 327.2500 Du        
   2525 ****       108.0000 249.7500 327.5000 Du        
   2526 ****       108.2500 242.2500 330.5000 Du        
   2527 ****       108.2500 242.2500 330.7500 Du        
   2528 ****       108.2500 242.2500 331.0000 Du        
   2529 ****       108.2500 242.5000 330.5000 Du        
   2530 ****       108.2500 242.5000 330.7500 Du        
   2531 ****       108.2500 242.7500 330.2500 Du        
   2532 ****       108.2500 242.7500 330.5000 Du        
   2533 ****       108.2500 242.7500 330.7500 Du        
   2534 ****       108.2500 243.0000 330.2500 Du        
   2535 ****       108.2500 243.0000 330.5000 Du        
   2536 ****       108.2500 243.0000 330.7500 Du        
   2537 ****       108.2500 243.2500 330.5000 Du        
   2538 ****       108.2500 245.2500 331.5000 Du        
   2539 ****       108.2500 245.5000 331.5000 Du        
   2540 ****       108.2500 245.5000 331.7500 Du        
   2541 ****       108.2500 245.7500 331.5000 Du        
   2542 ****       108.2500 249.0000 327.7500 Du        
   2543 ****       108.2500 249.0000 328.0000 Du        
   2544 ****       108.2500 249.0000 328.2500 Du        
   2545 ****       108.2500 249.2500 327.5000 Du        
   2546 ****       108.2500 249.2500 327.7500 Du        
   2547 ****       108.2500 249.2500 328.0000 Du        
   2548 ****       108.2500 249.2500 328.2500 Du        
   2549 ****       108.2500 249.5000 327.2500 Du        
   2550 ****       108.2500 249.5000 327.5000 Du        
   2551 ****       108.2500 249.5000 327.7500 Du        
   2552 ****       108.2500 249.5000 328.0000 Du        
   2553 ****       108.2500 249.5000 328.2500 Du        
   2554 ****       108.2500 249.7500 327.0000 Du        
   2555 ****       108.2500 249.7500 327.2500 Du        
   2556 ****       108.2500 249.7500 327.5000 Du        
   2557 ****       108.2500 249.7500 327.7500 Du        
   2558 ****       108.5000 242.2500 330.5000 Du        
   2559 ****       108.5000 242.2500 330.7500 Du        
   2560 ****       108.5000 242.5000 330.2500 Du        
   2561 ****       108.5000 242.5000 330.5000 Du        
   2562 ****       108.5000 242.5000 330.7500 Du        
   2563 ****       108.5000 242.7500 330.0000 Du        
   2564 ****       108.5000 242.7500 330.2500 Du        
   2565 ****       108.5000 242.7500 330.5000 Du        
   2566 ****       108.5000 242.7500 330.7500 Du        
   2567 ****       108.5000 243.0000 330.0000 Du        
   2568 ****       108.5000 243.0000 330.2500 Du        
   2569 ****       108.5000 243.0000 330.5000 Du        
   2570 ****       108.5000 243.0000 330.7500 Du        
   2571 ****       108.5000 245.5000 331.0000 Du        
   2572 ****       108.5000 245.5000 331.2500 Du        
   2573 ****       108.5000 245.5000 331.5000 Du        
   2574 ****       108.5000 245.7500 330.7500 Du        
   2575 ****       108.5000 245.7500 331.0000 Du        
   2576 ****       108.5000 245.7500 331.2500 Du        
   2577 ****       108.5000 245.7500 331.5000 Du        
   2578 ****       108.5000 246.0000 330.7500 Du        
   2579 ****       108.5000 246.0000 331.0000 Du        
   2580 ****       108.5000 246.0000 331.2500 Du        
   2581 ****       108.5000 246.2500 330.7500 Du        
   2582 ****       108.5000 248.7500 328.5000 Du        
   2583 ****       108.5000 249.0000 327.7500 Du        
   2584 ****       108.5000 249.0000 328.0000 Du        
   2585 ****       108.5000 249.0000 328.2500 Du        
   2586 ****       108.5000 249.0000 328.5000 Du        
   2587 ****       108.5000 249.2500 327.7500 Du        
   2588 ****       108.5000 249.2500 328.0000 Du        
   2589 ****       108.5000 249.2500 328.2500 Du        
   2590 ****       108.5000 249.2500 328.5000 Du        
   2591 ****       108.5000 249.5000 326.2500 Du        
   2592 ****       108.5000 249.5000 326.5000 Du        
   2593 ****       108.5000 249.5000 326.7500 Du        
   2594 ****       108.5000 249.5000 327.0000 Du        
   2595 ****       108.5000 249.5000 327.2500 Du        
   2596 ****       108.5000 249.5000 327.5000 Du        
   2597 ****       108.5000 249.5000 327.7500 Du        
   2598 ****       108.5000 249.5000 328.0000 Du        
   2599 ****       108.5000 249.5000 328.2500 Du        
   2600 ****       108.5000 249.5000 328.5000 Du        
   2601 ****       108.5000 249.7500 326.0000 Du        
   2602 ****       108.5000 249.7500 326.2500 Du        
   2603 ****       108.5000 249.7500 326.5000 Du        
   2604 ****       108.5000 249.7500 326.7500 Du        
   2605 ****       108.5000 249.7500 327.0000 Du        
   2606 ****       108.5000 249.7500 327.2500 Du        
   2607 ****       108.5000 249.7500 327.5000 Du        
   2608 ****       108.5000 249.7500 327.7500 Du        
   2609 ****       108.7500 242.2500 330.5000 Du        
   2610 ****       108.7500 242.2500 330.7500 Du        
   2611 ****       108.7500 242.5000 330.0000 Du        
   2612 ****       108.7500 242.5000 330.2500 Du        
   2613 ****       108.7500 242.5000 330.5000 Du        
   2614 ****       108.7500 242.5000 330.7500 Du        
   2615 ****       108.7500 242.7500 329.7500 Du        
   2616 ****       108.7500 242.7500 330.0000 Du        
   2617 ****       108.7500 242.7500 330.2500 Du        
   2618 ****       108.7500 242.7500 330.5000 Du        
   2619 ****       108.7500 242.7500 330.7500 Du        
   2620 ****       108.7500 243.0000 329.7500 Du        
   2621 ****       108.7500 243.0000 330.0000 Du        
   2622 ****       108.7500 243.0000 330.2500 Du        
   2623 ****       108.7500 243.0000 330.5000 Du        
   2624 ****       108.7500 243.0000 330.7500 Du        
   2625 ****       108.7500 243.2500 329.7500 Du        
   2626 ****       108.7500 243.2500 330.0000 Du        
   2627 ****       108.7500 243.2500 330.2500 Du        
   2628 ****       108.7500 243.2500 330.5000 Du        
   2629 ****       108.7500 245.2500 324.2500 Du        
   2630 ****       108.7500 245.5000 324.2500 Du        
   2631 ****       108.7500 245.5000 331.0000 Du        
   2632 ****       108.7500 245.5000 331.2500 Du        
   2633 ****       108.7500 245.5000 331.5000 Du        
   2634 ****       108.7500 245.7500 324.2500 Du        
   2635 ****       108.7500 245.7500 330.5000 Du        
   2636 ****       108.7500 245.7500 330.7500 Du        
   2637 ****       108.7500 245.7500 331.0000 Du        
   2638 ****       108.7500 245.7500 331.2500 Du        
   2639 ****       108.7500 245.7500 331.5000 Du        
   2640 ****       108.7500 246.0000 330.5000 Du        
   2641 ****       108.7500 246.0000 330.7500 Du        
   2642 ****       108.7500 246.0000 331.0000 Du        
   2643 ****       108.7500 246.0000 331.2500 Du        
   2644 ****       108.7500 246.2500 330.5000 Du        
   2645 ****       108.7500 246.2500 330.7500 Du        
   2646 ****       108.7500 246.2500 331.0000 Du        
   2647 ****       108.7500 246.5000 330.5000 Du        
   2648 ****       108.7500 246.5000 330.7500 Du        
   2649 ****       108.7500 246.7500 330.0000 Du        
   2650 ****       108.7500 248.7500 327.7500 Du        
   2651 ****       108.7500 248.7500 328.0000 Du        
   2652 ****       108.7500 248.7500 328.2500 Du        
   2653 ****       108.7500 248.7500 328.5000 Du        
   2654 ****       108.7500 249.0000 327.7500 Du        
   2655 ****       108.7500 249.0000 328.0000 Du        
   2656 ****       108.7500 249.0000 328.2500 Du        
   2657 ****       108.7500 249.0000 328.5000 Du        
   2658 ****       108.7500 249.2500 326.7500 Du        
   2659 ****       108.7500 249.2500 327.5000 Du        
   2660 ****       108.7500 249.2500 327.7500 Du        
   2661 ****       108.7500 249.2500 328.0000 Du        
   2662 ****       108.7500 249.2500 328.2500 Du        
   2663 ****       108.7500 249.2500 328.5000 Du        
   2664 ****       108.7500 249.5000 326.0000 Du        
   2665 ****       108.7500 249.5000 326.7500 Du        
   2666 ****       108.7500 249.5000 327.0000 Du        
   2667 ****       108.7500 249.5000 327.2500 Du        
   2668 ****       108.7500 249.5000 327.5000 Du        
   2669 ****       108.7500 249.5000 327.7500 Du        
   2670 ****       108.7500 249.5000 328.0000 Du        
   2671 ****       108.7500 249.5000 328.2500 Du        
   2672 ****       108.7500 249.5000 328.5000 Du        
   2673 ****       108.7500 249.7500 325.7500 Du        
   2674 ****       108.7500 249.7500 326.0000 Du        
   2675 ****       108.7500 249.7500 327.7500 Du        
   2676 ****       108.7500 249.7500 328.0000 Du        
   2677 ****       108.7500 249.7500 328.2500 Du        
   2678 ****       108.7500 249.7500 328.5000 Du        
   2679 ****       109.0000 242.2500 330.2500 Du        
   2680 ****       109.0000 242.2500 330.5000 Du        
   2681 ****       109.0000 242.2500 330.7500 Du        
   2682 ****       109.0000 242.5000 330.0000 Du        
   2683 ****       109.0000 242.5000 330.2500 Du        
   2684 ****       109.0000 242.5000 330.5000 Du        
   2685 ****       109.0000 242.7500 329.7500 Du        
   2686 ****       109.0000 242.7500 330.0000 Du        
   2687 ****       109.0000 242.7500 330.2500 Du        
   2688 ****       109.0000 242.7500 330.5000 Du        
   2689 ****       109.0000 243.0000 329.5000 Du        
   2690 ****       109.0000 243.0000 329.7500 Du        
   2691 ****       109.0000 243.0000 330.0000 Du        
   2692 ****       109.0000 243.0000 330.2500 Du        
   2693 ****       109.0000 243.0000 330.5000 Du        
   2694 ****       109.0000 243.2500 329.5000 Du        
   2695 ****       109.0000 243.2500 329.7500 Du        
   2696 ****       109.0000 243.2500 330.0000 Du        
   2697 ****       109.0000 243.2500 330.2500 Du        
   2698 ****       109.0000 243.2500 330.5000 Du        
   2699 ****       109.0000 245.0000 324.0000 Du        
   2700 ****       109.0000 245.0000 324.2500 Du        
   2701 ****       109.0000 245.2500 324.0000 Du        
   2702 ****       109.0000 245.2500 324.2500 Du        
   2703 ****       109.0000 245.2500 324.5000 Du        
   2704 ****       109.0000 245.5000 324.0000 Du        
   2705 ****       109.0000 245.5000 324.2500 Du        
   2706 ****       109.0000 245.7500 324.0000 Du        
   2707 ****       109.0000 245.7500 324.2500 Du        
   2708 ****       109.0000 245.7500 330.7500 Du        
   2709 ****       109.0000 245.7500 331.0000 Du        
   2710 ****       109.0000 246.0000 324.0000 Du        
   2711 ****       109.0000 246.0000 324.2500 Du        
   2712 ****       109.0000 246.0000 330.5000 Du        
   2713 ****       109.0000 246.0000 330.7500 Du        
   2714 ****       109.0000 246.0000 331.0000 Du        
   2715 ****       109.0000 246.2500 324.0000 Du        
   2716 ****       109.0000 246.2500 324.2500 Du        
   2717 ****       109.0000 246.2500 330.5000 Du        
   2718 ****       109.0000 246.2500 330.7500 Du        
   2719 ****       109.0000 246.2500 331.0000 Du        
   2720 ****       109.0000 246.5000 330.0000 Du        
   2721 ****       109.0000 246.5000 330.2500 Du        
   2722 ****       109.0000 246.5000 330.5000 Du        
   2723 ****       109.0000 246.5000 330.7500 Du        
   2724 ****       109.0000 246.7500 330.0000 Du        
   2725 ****       109.0000 246.7500 330.2500 Du        
   2726 ****       109.0000 246.7500 330.5000 Du        
   2727 ****       109.0000 248.7500 327.7500 Du        
   2728 ****       109.0000 248.7500 328.0000 Du        
   2729 ****       109.0000 248.7500 328.2500 Du        
   2730 ****       109.0000 248.7500 328.5000 Du        
   2731 ****       109.0000 249.0000 326.7500 Du        
   2732 ****       109.0000 249.0000 327.5000 Du        
   2733 ****       109.0000 249.0000 327.7500 Du        
   2734 ****       109.0000 249.0000 328.0000 Du        
   2735 ****       109.0000 249.0000 328.2500 Du        
   2736 ****       109.0000 249.0000 328.5000 Du        
   2737 ****       109.0000 249.2500 326.7500 Du        
   2738 ****       109.0000 249.2500 327.0000 Du        
   2739 ****       109.0000 249.2500 327.2500 Du        
   2740 ****       109.0000 249.2500 327.5000 Du        
   2741 ****       109.0000 249.2500 327.7500 Du        
   2742 ****       109.0000 249.2500 328.0000 Du        
   2743 ****       109.0000 249.2500 328.2500 Du        
   2744 ****       109.0000 249.2500 328.5000 Du        
   2745 ****       109.0000 249.5000 326.5000 Du        
   2746 ****       109.0000 249.5000 326.7500 Du        
   2747 ****       109.0000 249.5000 327.0000 Du        
   2748 ****       109.0000 249.5000 327.2500 Du        
   2749 ****       109.0000 249.5000 327.7500 Du        
   2750 ****       109.0000 249.5000 328.0000 Du        
   2751 ****       109.0000 249.5000 328.2500 Du        
   2752 ****       109.0000 249.5000 328.5000 Du        
   2753 ****       109.0000 249.7500 328.0000 Du        
   2754 ****       109.0000 249.7500 328.2500 Du        
   2755 ****       109.0000 249.7500 328.5000 Du        
   2756 ****       109.2500 242.2500 330.2500 Du        
   2757 ****       109.2500 242.2500 330.5000 Du        
   2758 ****       109.2500 242.2500 330.7500 Du        
   2759 ****       109.2500 242.5000 330.0000 Du        
   2760 ****       109.2500 242.5000 330.2500 Du        
   2761 ****       109.2500 242.5000 330.5000 Du        
   2762 ****       109.2500 242.7500 329.5000 Du        
   2763 ****       109.2500 242.7500 329.7500 Du        
   2764 ****       109.2500 242.7500 330.0000 Du        
   2765 ****       109.2500 242.7500 330.2500 Du        
   2766 ****       109.2500 242.7500 330.5000 Du        
   2767 ****       109.2500 243.0000 329.5000 Du        
   2768 ****       109.2500 243.0000 329.7500 Du        
   2769 ****       109.2500 243.0000 330.0000 Du        
   2770 ****       109.2500 243.0000 330.2500 Du        
   2771 ****       109.2500 243.0000 330.5000 Du        
   2772 ****       109.2500 243.2500 329.2500 Du        
   2773 ****       109.2500 243.2500 329.5000 Du        
   2774 ****       109.2500 243.2500 329.7500 Du        
   2775 ****       109.2500 243.2500 330.0000 Du        
   2776 ****       109.2500 243.2500 330.2500 Du        
   2777 ****       109.2500 243.2500 330.5000 Du        
   2778 ****       109.2500 244.7500 324.0000 Du        
   2779 ****       109.2500 244.7500 324.2500 Du        
   2780 ****       109.2500 245.0000 323.7500 Du        
   2781 ****       109.2500 245.0000 324.0000 Du        
   2782 ****       109.2500 245.0000 324.2500 Du        
   2783 ****       109.2500 245.0000 324.5000 Du        
   2784 ****       109.2500 245.2500 323.7500 Du        
   2785 ****       109.2500 245.2500 324.0000 Du        
   2786 ****       109.2500 245.2500 324.2500 Du        
   2787 ****       109.2500 245.2500 324.5000 Du        
   2788 ****       109.2500 245.5000 323.7500 Du        
   2789 ****       109.2500 245.5000 324.0000 Du        
   2790 ****       109.2500 245.5000 324.2500 Du        
   2791 ****       109.2500 245.5000 324.5000 Du        
   2792 ****       109.2500 245.7500 323.7500 Du        
   2793 ****       109.2500 245.7500 324.0000 Du        
   2794 ****       109.2500 245.7500 324.2500 Du        
   2795 ****       109.2500 245.7500 324.5000 Du        
   2796 ****       109.2500 246.0000 323.7500 Du        
   2797 ****       109.2500 246.0000 324.0000 Du        
   2798 ****       109.2500 246.0000 324.2500 Du        
   2799 ****       109.2500 246.2500 323.7500 Du        
   2800 ****       109.2500 246.2500 324.0000 Du        
   2801 ****       109.2500 246.2500 324.2500 Du        
   2802 ****       109.2500 246.2500 330.5000 Du        
   2803 ****       109.2500 246.5000 323.7500 Du        
   2804 ****       109.2500 246.5000 324.0000 Du        
   2805 ****       109.2500 246.5000 324.2500 Du        
   2806 ****       109.2500 246.5000 330.0000 Du        
   2807 ****       109.2500 246.5000 330.2500 Du        
   2808 ****       109.2500 246.5000 330.5000 Du        
   2809 ****       109.2500 246.7500 324.0000 Du        
   2810 ****       109.2500 246.7500 324.2500 Du        
   2811 ****       109.2500 246.7500 330.0000 Du        
   2812 ****       109.2500 246.7500 330.2500 Du        
   2813 ****       109.2500 249.0000 327.7500 Du        
   2814 ****       109.2500 249.0000 328.0000 Du        
   2815 ****       109.2500 249.0000 328.2500 Du        
   2816 ****       109.2500 249.0000 328.5000 Du        
   2817 ****       109.2500 249.2500 327.7500 Du        
   2818 ****       109.2500 249.2500 328.0000 Du        
   2819 ****       109.2500 249.2500 328.2500 Du        
   2820 ****       109.2500 249.2500 328.5000 Du        
   2821 ****       109.2500 249.5000 328.0000 Du        
   2822 ****       109.2500 249.5000 328.2500 Du        
   2823 ****       109.2500 249.5000 328.5000 Du        
   2824 ****       109.2500 249.7500 325.2500 Du        
   2825 ****       109.2500 249.7500 328.2500 Du        
   2826 ****       109.2500 249.7500 328.5000 Du        
   2827 ****       109.2500 250.0000 325.0000 Du        
   2828 ****       109.5000 242.2500 330.0000 Du        
   2829 ****       109.5000 242.2500 330.2500 Du        
   2830 ****       109.5000 242.2500 330.5000 Du        
   2831 ****       109.5000 242.2500 330.7500 Du        
   2832 ****       109.5000 242.5000 329.7500 Du        
   2833 ****       109.5000 242.5000 330.0000 Du        
   2834 ****       109.5000 242.5000 330.2500 Du        
   2835 ****       109.5000 242.5000 330.5000 Du        
   2836 ****       109.5000 242.7500 329.2500 Du        
   2837 ****       109.5000 242.7500 329.5000 Du        
   2838 ****       109.5000 242.7500 329.7500 Du        
   2839 ****       109.5000 242.7500 330.0000 Du        
   2840 ****       109.5000 242.7500 330.2500 Du        
   2841 ****       109.5000 242.7500 330.5000 Du        
   2842 ****       109.5000 243.0000 329.0000 Du        
   2843 ****       109.5000 243.0000 329.2500 Du        
   2844 ****       109.5000 243.0000 329.5000 Du        
   2845 ****       109.5000 243.0000 329.7500 Du        
   2846 ****       109.5000 243.0000 330.0000 Du        
   2847 ****       109.5000 243.0000 330.2500 Du        
   2848 ****       109.5000 243.0000 330.5000 Du        
   2849 ****       109.5000 243.2500 329.2500 Du        
   2850 ****       109.5000 243.2500 329.5000 Du        
   2851 ****       109.5000 243.2500 329.7500 Du        
   2852 ****       109.5000 243.2500 330.0000 Du        
   2853 ****       109.5000 243.2500 330.2500 Du        
   2854 ****       109.5000 243.2500 330.5000 Du        
   2855 ****       109.5000 243.5000 329.7500 Du        
   2856 ****       109.5000 243.5000 330.0000 Du        
   2857 ****       109.5000 243.5000 330.2500 Du        
   2858 ****       109.5000 243.7500 330.0000 Du        
   2859 ****       109.5000 243.7500 330.2500 Du        
   2860 ****       109.5000 244.0000 330.0000 Du        
   2861 ****       109.5000 244.0000 330.2500 Du        
   2862 ****       109.5000 244.7500 324.0000 Du        
   2863 ****       109.5000 244.7500 324.2500 Du        
   2864 ****       109.5000 244.7500 324.5000 Du        
   2865 ****       109.5000 245.0000 323.7500 Du        
   2866 ****       109.5000 245.0000 324.0000 Du        
   2867 ****       109.5000 245.0000 324.2500 Du        
   2868 ****       109.5000 245.0000 324.5000 Du        
   2869 ****       109.5000 245.0000 324.7500 Du        
   2870 ****       109.5000 245.2500 323.5000 Du        
   2871 ****       109.5000 245.2500 323.7500 Du        
   2872 ****       109.5000 245.2500 324.0000 Du        
   2873 ****       109.5000 245.2500 324.2500 Du        
   2874 ****       109.5000 245.2500 324.5000 Du        
   2875 ****       109.5000 245.2500 324.7500 Du        
   2876 ****       109.5000 245.5000 323.5000 Du        
   2877 ****       109.5000 245.5000 323.7500 Du        
   2878 ****       109.5000 245.5000 324.0000 Du        
   2879 ****       109.5000 245.5000 324.2500 Du        
   2880 ****       109.5000 245.5000 324.5000 Du        
   2881 ****       109.5000 245.5000 324.7500 Du        
   2882 ****       109.5000 245.7500 323.2500 Du        
   2883 ****       109.5000 245.7500 323.5000 Du        
   2884 ****       109.5000 245.7500 323.7500 Du        
   2885 ****       109.5000 245.7500 324.0000 Du        
   2886 ****       109.5000 245.7500 324.2500 Du        
   2887 ****       109.5000 245.7500 324.5000 Du        
   2888 ****       109.5000 245.7500 324.7500 Du        
   2889 ****       109.5000 246.0000 323.2500 Du        
   2890 ****       109.5000 246.0000 323.5000 Du        
   2891 ****       109.5000 246.0000 323.7500 Du        
   2892 ****       109.5000 246.0000 324.0000 Du        
   2893 ****       109.5000 246.0000 324.2500 Du        
   2894 ****       109.5000 246.0000 324.5000 Du        
   2895 ****       109.5000 246.2500 323.2500 Du        
   2896 ****       109.5000 246.2500 323.5000 Du        
   2897 ****       109.5000 246.2500 323.7500 Du        
   2898 ****       109.5000 246.2500 324.0000 Du        
   2899 ****       109.5000 246.2500 324.2500 Du        
   2900 ****       109.5000 246.2500 324.5000 Du        
   2901 ****       109.5000 246.5000 323.2500 Du        
   2902 ****       109.5000 246.5000 323.5000 Du        
   2903 ****       109.5000 246.5000 323.7500 Du        
   2904 ****       109.5000 246.5000 324.0000 Du        
   2905 ****       109.5000 246.5000 324.2500 Du        
   2906 ****       109.5000 246.7500 323.2500 Du        
   2907 ****       109.5000 246.7500 323.5000 Du        
   2908 ****       109.5000 246.7500 323.7500 Du        
   2909 ****       109.5000 246.7500 324.0000 Du        
   2910 ****       109.5000 246.7500 324.2500 Du        
   2911 ****       109.5000 247.0000 323.2500 Du        
   2912 ****       109.5000 247.0000 323.5000 Du        
   2913 ****       109.5000 247.0000 323.7500 Du        
   2914 ****       109.5000 247.0000 324.0000 Du        
   2915 ****       109.5000 247.0000 324.2500 Du        
   2916 ****       109.5000 247.2500 323.7500 Du        
   2917 ****       109.5000 247.2500 324.0000 Du        
   2918 ****       109.5000 247.2500 324.2500 Du        
   2919 ****       109.5000 249.0000 325.2500 Du        
   2920 ****       109.5000 249.0000 325.7500 Du        
   2921 ****       109.5000 249.2500 325.0000 Du        
   2922 ****       109.5000 249.2500 325.2500 Du        
   2923 ****       109.5000 249.2500 325.7500 Du        
   2924 ****       109.5000 249.5000 325.0000 Du        
   2925 ****       109.5000 249.5000 325.2500 Du        
   2926 ****       109.5000 249.7500 324.7500 Du        
   2927 ****       109.5000 249.7500 325.0000 Du        
   2928 ****       109.5000 249.7500 325.2500 Du        
   2929 ****       109.5000 250.0000 324.7500 Du        
   2930 ****       109.5000 250.0000 325.0000 Du        
   2931 ****       109.5000 250.2500 324.7500 Du        
   2932 ****       109.7500 242.2500 330.0000 Du        
   2933 ****       109.7500 242.2500 330.2500 Du        
   2934 ****       109.7500 242.2500 330.5000 Du        
   2935 ****       109.7500 242.5000 329.5000 Du        
   2936 ****       109.7500 242.5000 329.7500 Du        
   2937 ****       109.7500 242.5000 330.0000 Du        
   2938 ****       109.7500 242.5000 330.2500 Du        
   2939 ****       109.7500 242.5000 330.5000 Du        
   2940 ****       109.7500 242.7500 329.0000 Du        
   2941 ****       109.7500 242.7500 329.2500 Du        
   2942 ****       109.7500 242.7500 329.5000 Du        
   2943 ****       109.7500 242.7500 329.7500 Du        
   2944 ****       109.7500 242.7500 330.0000 Du        
   2945 ****       109.7500 242.7500 330.2500 Du        
   2946 ****       109.7500 242.7500 330.5000 Du        
   2947 ****       109.7500 243.0000 329.0000 Du        
   2948 ****       109.7500 243.0000 329.2500 Du        
   2949 ****       109.7500 243.0000 329.5000 Du        
   2950 ****       109.7500 243.0000 329.7500 Du        
   2951 ****       109.7500 243.0000 330.0000 Du        
   2952 ****       109.7500 243.0000 330.2500 Du        
   2953 ****       109.7500 243.0000 330.5000 Du        
   2954 ****       109.7500 243.2500 329.0000 Du        
   2955 ****       109.7500 243.2500 329.2500 Du        
   2956 ****       109.7500 243.2500 329.5000 Du        
   2957 ****       109.7500 243.2500 329.7500 Du        
   2958 ****       109.7500 243.2500 330.0000 Du        
   2959 ****       109.7500 243.2500 330.2500 Du        
   2960 ****       109.7500 243.2500 330.5000 Du        
   2961 ****       109.7500 243.5000 329.7500 Du        
   2962 ****       109.7500 243.5000 330.0000 Du        
   2963 ****       109.7500 243.5000 330.2500 Du        
   2964 ****       109.7500 243.7500 329.7500 Du        
   2965 ****       109.7500 243.7500 330.0000 Du        
   2966 ****       109.7500 243.7500 330.2500 Du        
   2967 ****       109.7500 244.0000 329.7500 Du        
   2968 ****       109.7500 244.0000 330.0000 Du        
   2969 ****       109.7500 244.0000 330.2500 Du        
   2970 ****       109.7500 244.2500 330.0000 Du        
   2971 ****       109.7500 244.5000 324.2500 Du        
   2972 ****       109.7500 244.5000 330.0000 Du        
   2973 ****       109.7500 244.5000 330.2500 Du        
   2974 ****       109.7500 244.7500 324.0000 Du        
   2975 ****       109.7500 244.7500 324.2500 Du        
   2976 ****       109.7500 244.7500 324.5000 Du        
   2977 ****       109.7500 244.7500 324.7500 Du        
   2978 ****       109.7500 244.7500 330.0000 Du        
   2979 ****       109.7500 244.7500 330.2500 Du        
   2980 ****       109.7500 245.0000 323.7500 Du        
   2981 ****       109.7500 245.0000 324.0000 Du        
   2982 ****       109.7500 245.0000 324.2500 Du        
   2983 ****       109.7500 245.0000 324.5000 Du        
   2984 ****       109.7500 245.0000 324.7500 Du        
   2985 ****       109.7500 245.2500 323.5000 Du        
   2986 ****       109.7500 245.2500 323.7500 Du        
   2987 ****       109.7500 245.2500 324.0000 Du        
   2988 ****       109.7500 245.2500 324.2500 Du        
   2989 ****       109.7500 245.2500 324.5000 Du        
   2990 ****       109.7500 245.2500 324.7500 Du        
   2991 ****       109.7500 245.5000 323.5000 Du        
   2992 ****       109.7500 245.5000 323.7500 Du        
   2993 ****       109.7500 245.5000 324.0000 Du        
   2994 ****       109.7500 245.5000 324.2500 Du        
   2995 ****       109.7500 245.5000 324.5000 Du        
   2996 ****       109.7500 245.5000 324.7500 Du        
   2997 ****       109.7500 245.7500 323.2500 Du        
   2998 ****       109.7500 245.7500 323.5000 Du        
   2999 ****       109.7500 245.7500 323.7500 Du        
   3000 ****       109.7500 245.7500 324.0000 Du        
   3001 ****       109.7500 245.7500 324.2500 Du        
   3002 ****       109.7500 245.7500 324.5000 Du        
   3003 ****       109.7500 245.7500 324.7500 Du        
   3004 ****       109.7500 246.0000 323.0000 Du        
   3005 ****       109.7500 246.0000 323.2500 Du        
   3006 ****       109.7500 246.0000 323.5000 Du        
   3007 ****       109.7500 246.0000 323.7500 Du        
   3008 ****       109.7500 246.0000 324.0000 Du        
   3009 ****       109.7500 246.0000 324.2500 Du        
   3010 ****       109.7500 246.0000 324.5000 Du        
   3011 ****       109.7500 246.0000 324.7500 Du        
   3012 ****       109.7500 246.2500 323.0000 Du        
   3013 ****       109.7500 246.2500 323.2500 Du        
   3014 ****       109.7500 246.2500 323.5000 Du        
   3015 ****       109.7500 246.2500 323.7500 Du        
   3016 ****       109.7500 246.2500 324.0000 Du        
   3017 ****       109.7500 246.2500 324.2500 Du        
   3018 ****       109.7500 246.2500 324.5000 Du        
   3019 ****       109.7500 246.5000 323.0000 Du        
   3020 ****       109.7500 246.5000 323.2500 Du        
   3021 ****       109.7500 246.5000 323.5000 Du        
   3022 ****       109.7500 246.5000 323.7500 Du        
   3023 ****       109.7500 246.5000 324.0000 Du        
   3024 ****       109.7500 246.5000 324.2500 Du        
   3025 ****       109.7500 246.7500 322.7500 Du        
   3026 ****       109.7500 246.7500 323.0000 Du        
   3027 ****       109.7500 246.7500 323.2500 Du        
   3028 ****       109.7500 246.7500 323.5000 Du        
   3029 ****       109.7500 246.7500 323.7500 Du        
   3030 ****       109.7500 246.7500 324.0000 Du        
   3031 ****       109.7500 246.7500 324.2500 Du        
   3032 ****       109.7500 247.0000 323.0000 Du        
   3033 ****       109.7500 247.0000 323.2500 Du        
   3034 ****       109.7500 247.0000 323.5000 Du        
   3035 ****       109.7500 247.0000 323.7500 Du        
   3036 ****       109.7500 247.0000 324.0000 Du        
   3037 ****       109.7500 247.0000 324.2500 Du        
   3038 ****       109.7500 247.2500 323.0000 Du        
   3039 ****       109.7500 247.2500 323.2500 Du        
   3040 ****       109.7500 247.2500 323.5000 Du        
   3041 ****       109.7500 247.2500 323.7500 Du        
   3042 ****       109.7500 247.2500 324.0000 Du        
   3043 ****       109.7500 247.2500 324.2500 Du        
   3044 ****       109.7500 247.5000 323.7500 Du        
   3045 ****       109.7500 247.5000 324.0000 Du        
   3046 ****       109.7500 247.5000 324.2500 Du        
   3047 ****       109.7500 247.5000 324.5000 Du        
   3048 ****       109.7500 247.7500 324.0000 Du        
   3049 ****       109.7500 247.7500 324.2500 Du        
   3050 ****       109.7500 247.7500 324.5000 Du        
   3051 ****       109.7500 247.7500 324.7500 Du        
   3052 ****       109.7500 248.0000 324.2500 Du        
   3053 ****       109.7500 248.0000 324.7500 Du        
   3054 ****       109.7500 248.5000 325.2500 Du        
   3055 ****       109.7500 248.7500 325.0000 Du        
   3056 ****       109.7500 248.7500 325.2500 Du        
   3057 ****       109.7500 249.0000 324.7500 Du        
   3058 ****       109.7500 249.0000 325.0000 Du        
   3059 ****       109.7500 249.0000 325.2500 Du        
   3060 ****       109.7500 249.0000 325.5000 Du        
   3061 ****       109.7500 249.0000 325.7500 Du        
   3062 ****       109.7500 249.2500 324.7500 Du        
   3063 ****       109.7500 249.2500 325.0000 Du        
   3064 ****       109.7500 249.2500 325.2500 Du        
   3065 ****       109.7500 249.5000 324.5000 Du        
   3066 ****       109.7500 249.5000 324.7500 Du        
   3067 ****       109.7500 249.5000 325.0000 Du        
   3068 ****       109.7500 249.5000 325.2500 Du        
   3069 ****       109.7500 249.7500 324.5000 Du        
   3070 ****       109.7500 249.7500 324.7500 Du        
   3071 ****       109.7500 249.7500 325.0000 Du        
   3072 ****       109.7500 249.7500 325.2500 Du        
   3073 ****       109.7500 250.0000 324.5000 Du        
   3074 ****       109.7500 250.0000 324.7500 Du        
   3075 ****       109.7500 250.0000 325.0000 Du        
   3076 ****       109.7500 250.2500 324.5000 Du        
   3077 ****       109.7500 250.2500 324.7500 Du        
   3078 ****       110.0000 242.0000 330.2500 Du        
   3079 ****       110.0000 242.2500 329.7500 Du        
   3080 ****       110.0000 242.2500 330.0000 Du        
   3081 ****       110.0000 242.2500 330.2500 Du        
   3082 ****       110.0000 242.2500 330.5000 Du        
   3083 ****       110.0000 242.5000 329.2500 Du        
   3084 ****       110.0000 242.5000 329.5000 Du        
   3085 ****       110.0000 242.5000 329.7500 Du        
   3086 ****       110.0000 242.5000 330.0000 Du        
   3087 ****       110.0000 242.5000 330.2500 Du        
   3088 ****       110.0000 242.5000 330.5000 Du        
   3089 ****       110.0000 242.7500 329.0000 Du        
   3090 ****       110.0000 242.7500 329.2500 Du        
   3091 ****       110.0000 242.7500 329.5000 Du        
   3092 ****       110.0000 242.7500 329.7500 Du        
   3093 ****       110.0000 242.7500 330.0000 Du        
   3094 ****       110.0000 242.7500 330.2500 Du        
   3095 ****       110.0000 242.7500 330.5000 Du        
   3096 ****       110.0000 243.0000 328.7500 Du        
   3097 ****       110.0000 243.0000 329.0000 Du        
   3098 ****       110.0000 243.0000 329.2500 Du        
   3099 ****       110.0000 243.0000 329.5000 Du        
   3100 ****       110.0000 243.0000 329.7500 Du        
   3101 ****       110.0000 243.0000 330.0000 Du        
   3102 ****       110.0000 243.0000 330.2500 Du        
   3103 ****       110.0000 243.0000 330.5000 Du        
   3104 ****       110.0000 243.2500 328.7500 Du        
   3105 ****       110.0000 243.2500 329.0000 Du        
   3106 ****       110.0000 243.2500 329.2500 Du        
   3107 ****       110.0000 243.2500 329.5000 Du        
   3108 ****       110.0000 243.2500 329.7500 Du        
   3109 ****       110.0000 243.2500 330.0000 Du        
   3110 ****       110.0000 243.2500 330.2500 Du        
   3111 ****       110.0000 243.2500 330.5000 Du        
   3112 ****       110.0000 243.5000 329.5000 Du        
   3113 ****       110.0000 243.5000 329.7500 Du        
   3114 ****       110.0000 243.5000 330.0000 Du        
   3115 ****       110.0000 243.5000 330.2500 Du        
   3116 ****       110.0000 243.7500 329.5000 Du        
   3117 ****       110.0000 243.7500 329.7500 Du        
   3118 ****       110.0000 243.7500 330.0000 Du        
   3119 ****       110.0000 243.7500 330.2500 Du        
   3120 ****       110.0000 244.0000 329.7500 Du        
   3121 ****       110.0000 244.0000 330.0000 Du        
   3122 ****       110.0000 244.0000 330.2500 Du        
   3123 ****       110.0000 244.2500 330.0000 Du        
   3124 ****       110.0000 244.2500 330.2500 Du        
   3125 ****       110.0000 244.5000 324.2500 Du        
   3126 ****       110.0000 244.5000 324.5000 Du        
   3127 ****       110.0000 244.5000 329.7500 Du        
   3128 ****       110.0000 244.5000 330.0000 Du        
   3129 ****       110.0000 244.5000 330.2500 Du        
   3130 ****       110.0000 244.7500 324.0000 Du        
   3131 ****       110.0000 244.7500 324.2500 Du        
   3132 ****       110.0000 244.7500 324.5000 Du        
   3133 ****       110.0000 244.7500 324.7500 Du        
   3134 ****       110.0000 244.7500 329.7500 Du        
   3135 ****       110.0000 244.7500 330.0000 Du        
   3136 ****       110.0000 244.7500 330.2500 Du        
   3137 ****       110.0000 245.0000 323.7500 Du        
   3138 ****       110.0000 245.0000 324.0000 Du        
   3139 ****       110.0000 245.0000 324.2500 Du        
   3140 ****       110.0000 245.0000 324.5000 Du        
   3141 ****       110.0000 245.0000 324.7500 Du        
   3142 ****       110.0000 245.0000 330.0000 Du        
   3143 ****       110.0000 245.2500 323.7500 Du        
   3144 ****       110.0000 245.2500 324.0000 Du        
   3145 ****       110.0000 245.2500 324.2500 Du        
   3146 ****       110.0000 245.2500 324.5000 Du        
   3147 ****       110.0000 245.2500 324.7500 Du        
   3148 ****       110.0000 245.5000 323.5000 Du        
   3149 ****       110.0000 245.5000 323.7500 Du        
   3150 ****       110.0000 245.5000 324.0000 Du        
   3151 ****       110.0000 245.5000 324.2500 Du        
   3152 ****       110.0000 245.5000 324.5000 Du        
   3153 ****       110.0000 245.5000 324.7500 Du        
   3154 ****       110.0000 245.7500 323.0000 Du        
   3155 ****       110.0000 245.7500 323.2500 Du        
   3156 ****       110.0000 245.7500 323.5000 Du        
   3157 ****       110.0000 245.7500 323.7500 Du        
   3158 ****       110.0000 245.7500 324.0000 Du        
   3159 ****       110.0000 245.7500 324.2500 Du        
   3160 ****       110.0000 245.7500 324.5000 Du        
   3161 ****       110.0000 245.7500 324.7500 Du        
   3162 ****       110.0000 246.0000 322.7500 Du        
   3163 ****       110.0000 246.0000 323.0000 Du        
   3164 ****       110.0000 246.0000 323.2500 Du        
   3165 ****       110.0000 246.0000 323.5000 Du        
   3166 ****       110.0000 246.0000 323.7500 Du        
   3167 ****       110.0000 246.0000 324.0000 Du        
   3168 ****       110.0000 246.0000 324.2500 Du        
   3169 ****       110.0000 246.0000 324.5000 Du        
   3170 ****       110.0000 246.0000 324.7500 Du        
   3171 ****       110.0000 246.2500 322.7500 Du        
   3172 ****       110.0000 246.2500 323.0000 Du        
   3173 ****       110.0000 246.2500 323.2500 Du        
   3174 ****       110.0000 246.2500 323.5000 Du        
   3175 ****       110.0000 246.2500 323.7500 Du        
   3176 ****       110.0000 246.2500 324.0000 Du        
   3177 ****       110.0000 246.2500 324.2500 Du        
   3178 ****       110.0000 246.2500 324.5000 Du        
   3179 ****       110.0000 246.5000 322.7500 Du        
   3180 ****       110.0000 246.5000 323.0000 Du        
   3181 ****       110.0000 246.5000 323.2500 Du        
   3182 ****       110.0000 246.5000 323.5000 Du        
   3183 ****       110.0000 246.5000 323.7500 Du        
   3184 ****       110.0000 246.5000 324.0000 Du        
   3185 ****       110.0000 246.5000 324.2500 Du        
   3186 ****       110.0000 246.7500 322.7500 Du        
   3187 ****       110.0000 246.7500 323.0000 Du        
   3188 ****       110.0000 246.7500 323.2500 Du        
   3189 ****       110.0000 246.7500 323.5000 Du        
   3190 ****       110.0000 246.7500 323.7500 Du        
   3191 ****       110.0000 246.7500 324.0000 Du        
   3192 ****       110.0000 246.7500 324.2500 Du        
   3193 ****       110.0000 246.7500 324.5000 Du        
   3194 ****       110.0000 247.0000 322.7500 Du        
   3195 ****       110.0000 247.0000 323.0000 Du        
   3196 ****       110.0000 247.0000 323.2500 Du        
   3197 ****       110.0000 247.0000 323.5000 Du        
   3198 ****       110.0000 247.0000 323.7500 Du        
   3199 ****       110.0000 247.0000 324.0000 Du        
   3200 ****       110.0000 247.0000 324.2500 Du        
   3201 ****       110.0000 247.0000 324.5000 Du        
   3202 ****       110.0000 247.2500 322.7500 Du        
   3203 ****       110.0000 247.2500 323.0000 Du        
   3204 ****       110.0000 247.2500 323.2500 Du        
   3205 ****       110.0000 247.2500 323.5000 Du        
   3206 ****       110.0000 247.2500 323.7500 Du        
   3207 ****       110.0000 247.2500 324.0000 Du        
   3208 ****       110.0000 247.2500 324.2500 Du        
   3209 ****       110.0000 247.2500 324.5000 Du        
   3210 ****       110.0000 247.2500 324.7500 Du        
   3211 ****       110.0000 247.5000 323.0000 Du        
   3212 ****       110.0000 247.5000 323.2500 Du        
   3213 ****       110.0000 247.5000 323.5000 Du        
   3214 ****       110.0000 247.5000 323.7500 Du        
   3215 ****       110.0000 247.5000 324.0000 Du        
   3216 ****       110.0000 247.5000 324.2500 Du        
   3217 ****       110.0000 247.5000 324.5000 Du        
   3218 ****       110.0000 247.5000 324.7500 Du        
   3219 ****       110.0000 247.7500 323.5000 Du        
   3220 ****       110.0000 247.7500 323.7500 Du        
   3221 ****       110.0000 247.7500 324.0000 Du        
   3222 ****       110.0000 247.7500 324.2500 Du        
   3223 ****       110.0000 247.7500 324.5000 Du        
   3224 ****       110.0000 247.7500 324.7500 Du        
   3225 ****       110.0000 248.0000 323.7500 Du        
   3226 ****       110.0000 248.0000 324.0000 Du        
   3227 ****       110.0000 248.0000 324.2500 Du        
   3228 ****       110.0000 248.0000 324.5000 Du        
   3229 ****       110.0000 248.0000 324.7500 Du        
   3230 ****       110.0000 248.2500 324.0000 Du        
   3231 ****       110.0000 248.2500 324.2500 Du        
   3232 ****       110.0000 248.2500 324.5000 Du        
   3233 ****       110.0000 248.2500 324.7500 Du        
   3234 ****       110.0000 248.2500 325.0000 Du        
   3235 ****       110.0000 248.5000 324.0000 Du        
   3236 ****       110.0000 248.5000 324.2500 Du        
   3237 ****       110.0000 248.5000 324.7500 Du        
   3238 ****       110.0000 248.5000 325.0000 Du        
   3239 ****       110.0000 248.5000 325.2500 Du        
   3240 ****       110.0000 248.7500 324.2500 Du        
   3241 ****       110.0000 248.7500 324.5000 Du        
   3242 ****       110.0000 248.7500 324.7500 Du        
   3243 ****       110.0000 248.7500 325.0000 Du        
   3244 ****       110.0000 248.7500 325.2500 Du        
   3245 ****       110.0000 249.0000 324.2500 Du        
   3246 ****       110.0000 249.0000 324.5000 Du        
   3247 ****       110.0000 249.0000 324.7500 Du        
   3248 ****       110.0000 249.0000 325.0000 Du        
   3249 ****       110.0000 249.0000 325.2500 Du        
   3250 ****       110.0000 249.2500 324.2500 Du        
   3251 ****       110.0000 249.2500 324.5000 Du        
   3252 ****       110.0000 249.2500 324.7500 Du        
   3253 ****       110.0000 249.2500 325.0000 Du        
   3254 ****       110.0000 249.2500 325.2500 Du        
   3255 ****       110.0000 249.5000 324.2500 Du        
   3256 ****       110.0000 249.5000 324.5000 Du        
   3257 ****       110.0000 249.5000 324.7500 Du        
   3258 ****       110.0000 249.5000 325.0000 Du        
   3259 ****       110.0000 249.5000 325.2500 Du        
   3260 ****       110.0000 249.7500 324.2500 Du        
   3261 ****       110.0000 249.7500 324.5000 Du        
   3262 ****       110.0000 249.7500 324.7500 Du        
   3263 ****       110.0000 249.7500 325.0000 Du        
   3264 ****       110.0000 250.0000 324.2500 Du        
   3265 ****       110.0000 250.0000 324.5000 Du        
   3266 ****       110.0000 250.0000 324.7500 Du        
   3267 ****       110.0000 250.0000 325.0000 Du        
   3268 ****       110.0000 250.2500 324.5000 Du        
   3269 ****       110.0000 250.2500 324.7500 Du        
   3270 ****       110.2500 242.0000 330.0000 Du        
   3271 ****       110.2500 242.0000 330.2500 Du        
   3272 ****       110.2500 242.2500 329.5000 Du        
   3273 ****       110.2500 242.2500 329.7500 Du        
   3274 ****       110.2500 242.2500 330.0000 Du        
   3275 ****       110.2500 242.2500 330.2500 Du        
   3276 ****       110.2500 242.5000 329.0000 Du        
   3277 ****       110.2500 242.5000 329.2500 Du        
   3278 ****       110.2500 242.5000 329.5000 Du        
   3279 ****       110.2500 242.5000 329.7500 Du        
   3280 ****       110.2500 242.5000 330.0000 Du        
   3281 ****       110.2500 242.5000 330.2500 Du        
   3282 ****       110.2500 242.5000 330.5000 Du        
   3283 ****       110.2500 242.7500 328.7500 Du        
   3284 ****       110.2500 242.7500 329.0000 Du        
   3285 ****       110.2500 242.7500 329.2500 Du        
   3286 ****       110.2500 242.7500 329.5000 Du        
   3287 ****       110.2500 242.7500 329.7500 Du        
   3288 ****       110.2500 242.7500 330.0000 Du        
   3289 ****       110.2500 242.7500 330.2500 Du        
   3290 ****       110.2500 242.7500 330.5000 Du        
   3291 ****       110.2500 243.0000 328.5000 Du        
   3292 ****       110.2500 243.0000 328.7500 Du        
   3293 ****       110.2500 243.0000 329.0000 Du        
   3294 ****       110.2500 243.0000 329.2500 Du        
   3295 ****       110.2500 243.0000 329.5000 Du        
   3296 ****       110.2500 243.0000 329.7500 Du        
   3297 ****       110.2500 243.0000 330.0000 Du        
   3298 ****       110.2500 243.0000 330.2500 Du        
   3299 ****       110.2500 243.0000 330.5000 Du        
   3300 ****       110.2500 243.2500 328.7500 Du        
   3301 ****       110.2500 243.2500 329.0000 Du        
   3302 ****       110.2500 243.2500 329.2500 Du        
   3303 ****       110.2500 243.2500 329.5000 Du        
   3304 ****       110.2500 243.2500 329.7500 Du        
   3305 ****       110.2500 243.2500 330.0000 Du        
   3306 ****       110.2500 243.2500 330.2500 Du        
   3307 ****       110.2500 243.2500 330.5000 Du        
   3308 ****       110.2500 243.5000 329.5000 Du        
   3309 ****       110.2500 243.5000 329.7500 Du        
   3310 ****       110.2500 243.5000 330.0000 Du        
   3311 ****       110.2500 243.5000 330.2500 Du        
   3312 ****       110.2500 243.7500 329.5000 Du        
   3313 ****       110.2500 243.7500 329.7500 Du        
   3314 ****       110.2500 243.7500 330.0000 Du        
   3315 ****       110.2500 243.7500 330.2500 Du        
   3316 ****       110.2500 244.0000 329.5000 Du        
   3317 ****       110.2500 244.0000 329.7500 Du        
   3318 ****       110.2500 244.0000 330.0000 Du        
   3319 ****       110.2500 244.0000 330.2500 Du        
   3320 ****       110.2500 244.0000 330.5000 Du        
   3321 ****       110.2500 244.2500 329.5000 Du        
   3322 ****       110.2500 244.2500 329.7500 Du        
   3323 ****       110.2500 244.2500 330.0000 Du        
   3324 ****       110.2500 244.2500 330.2500 Du        
   3325 ****       110.2500 244.5000 324.2500 Du        
   3326 ****       110.2500 244.5000 324.5000 Du        
   3327 ****       110.2500 244.5000 324.7500 Du        
   3328 ****       110.2500 244.5000 329.7500 Du        
   3329 ****       110.2500 244.5000 330.0000 Du        
   3330 ****       110.2500 244.5000 330.2500 Du        
   3331 ****       110.2500 244.7500 324.0000 Du        
   3332 ****       110.2500 244.7500 324.2500 Du        
   3333 ****       110.2500 244.7500 324.5000 Du        
   3334 ****       110.2500 244.7500 324.7500 Du        
   3335 ****       110.2500 244.7500 329.7500 Du        
   3336 ****       110.2500 244.7500 330.0000 Du        
   3337 ****       110.2500 245.0000 323.7500 Du        
   3338 ****       110.2500 245.0000 324.0000 Du        
   3339 ****       110.2500 245.0000 324.2500 Du        
   3340 ****       110.2500 245.0000 324.5000 Du        
   3341 ****       110.2500 245.0000 324.7500 Du        
   3342 ****       110.2500 245.0000 329.7500 Du        
   3343 ****       110.2500 245.0000 330.0000 Du        
   3344 ****       110.2500 245.2500 323.7500 Du        
   3345 ****       110.2500 245.2500 324.0000 Du        
   3346 ****       110.2500 245.2500 324.2500 Du        
   3347 ****       110.2500 245.2500 324.5000 Du        
   3348 ****       110.2500 245.2500 324.7500 Du        
   3349 ****       110.2500 245.5000 323.5000 Du        
   3350 ****       110.2500 245.5000 323.7500 Du        
   3351 ****       110.2500 245.5000 324.0000 Du        
   3352 ****       110.2500 245.5000 324.2500 Du        
   3353 ****       110.2500 245.5000 324.5000 Du        
   3354 ****       110.2500 245.5000 324.7500 Du        
   3355 ****       110.2500 245.7500 323.2500 Du        
   3356 ****       110.2500 245.7500 323.5000 Du        
   3357 ****       110.2500 245.7500 323.7500 Du        
   3358 ****       110.2500 245.7500 324.0000 Du        
   3359 ****       110.2500 245.7500 324.2500 Du        
   3360 ****       110.2500 245.7500 324.5000 Du        
   3361 ****       110.2500 245.7500 324.7500 Du        
   3362 ****       110.2500 246.0000 322.7500 Du        
   3363 ****       110.2500 246.0000 323.0000 Du        
   3364 ****       110.2500 246.0000 323.2500 Du        
   3365 ****       110.2500 246.0000 323.5000 Du        
   3366 ****       110.2500 246.0000 323.7500 Du        
   3367 ****       110.2500 246.0000 324.0000 Du        
   3368 ****       110.2500 246.0000 324.2500 Du        
   3369 ****       110.2500 246.0000 324.5000 Du        
   3370 ****       110.2500 246.0000 324.7500 Du        
   3371 ****       110.2500 246.2500 322.7500 Du        
   3372 ****       110.2500 246.2500 323.0000 Du        
   3373 ****       110.2500 246.2500 323.2500 Du        
   3374 ****       110.2500 246.2500 323.5000 Du        
   3375 ****       110.2500 246.2500 323.7500 Du        
   3376 ****       110.2500 246.2500 324.0000 Du        
   3377 ****       110.2500 246.2500 324.2500 Du        
   3378 ****       110.2500 246.2500 324.5000 Du        
   3379 ****       110.2500 246.5000 322.7500 Du        
   3380 ****       110.2500 246.5000 323.0000 Du        
   3381 ****       110.2500 246.5000 323.2500 Du        
   3382 ****       110.2500 246.5000 323.5000 Du        
   3383 ****       110.2500 246.5000 323.7500 Du        
   3384 ****       110.2500 246.5000 324.0000 Du        
   3385 ****       110.2500 246.5000 324.2500 Du        
   3386 ****       110.2500 246.5000 324.5000 Du        
   3387 ****       110.2500 246.7500 322.7500 Du        
   3388 ****       110.2500 246.7500 323.0000 Du        
   3389 ****       110.2500 246.7500 323.2500 Du        
   3390 ****       110.2500 246.7500 323.5000 Du        
   3391 ****       110.2500 246.7500 323.7500 Du        
   3392 ****       110.2500 246.7500 324.0000 Du        
   3393 ****       110.2500 246.7500 324.2500 Du        
   3394 ****       110.2500 246.7500 324.5000 Du        
   3395 ****       110.2500 247.0000 322.7500 Du        
   3396 ****       110.2500 247.0000 323.0000 Du        
   3397 ****       110.2500 247.0000 323.2500 Du        
   3398 ****       110.2500 247.0000 323.5000 Du        
   3399 ****       110.2500 247.0000 323.7500 Du        
   3400 ****       110.2500 247.0000 324.0000 Du        
   3401 ****       110.2500 247.0000 324.2500 Du        
   3402 ****       110.2500 247.0000 324.5000 Du        
   3403 ****       110.2500 247.2500 323.0000 Du        
   3404 ****       110.2500 247.2500 323.2500 Du        
   3405 ****       110.2500 247.2500 323.5000 Du        
   3406 ****       110.2500 247.2500 323.7500 Du        
   3407 ****       110.2500 247.2500 324.0000 Du        
   3408 ****       110.2500 247.2500 324.2500 Du        
   3409 ****       110.2500 247.2500 324.5000 Du        
   3410 ****       110.2500 247.5000 323.2500 Du        
   3411 ****       110.2500 247.5000 323.5000 Du        
   3412 ****       110.2500 247.5000 323.7500 Du        
   3413 ****       110.2500 247.5000 324.0000 Du        
   3414 ****       110.2500 247.5000 324.2500 Du        
   3415 ****       110.2500 247.5000 324.5000 Du        
   3416 ****       110.2500 247.5000 324.7500 Du        
   3417 ****       110.2500 247.7500 323.5000 Du        
   3418 ****       110.2500 247.7500 323.7500 Du        
   3419 ****       110.2500 247.7500 324.0000 Du        
   3420 ****       110.2500 247.7500 324.2500 Du        
   3421 ****       110.2500 247.7500 324.5000 Du        
   3422 ****       110.2500 247.7500 324.7500 Du        
   3423 ****       110.2500 247.7500 325.0000 Du        
   3424 ****       110.2500 248.0000 323.7500 Du        
   3425 ****       110.2500 248.0000 324.0000 Du        
   3426 ****       110.2500 248.0000 324.2500 Du        
   3427 ****       110.2500 248.0000 324.5000 Du        
   3428 ****       110.2500 248.0000 324.7500 Du        
   3429 ****       110.2500 248.0000 325.0000 Du        
   3430 ****       110.2500 248.2500 323.7500 Du        
   3431 ****       110.2500 248.2500 324.0000 Du        
   3432 ****       110.2500 248.2500 324.2500 Du        
   3433 ****       110.2500 248.2500 324.5000 Du        
   3434 ****       110.2500 248.2500 324.7500 Du        
   3435 ****       110.2500 248.2500 325.0000 Du        
   3436 ****       110.2500 248.5000 324.0000 Du        
   3437 ****       110.2500 248.5000 324.2500 Du        
   3438 ****       110.2500 248.5000 324.5000 Du        
   3439 ****       110.2500 248.5000 324.7500 Du        
   3440 ****       110.2500 248.5000 325.0000 Du        
   3441 ****       110.2500 248.5000 325.2500 Du        
   3442 ****       110.2500 248.7500 324.0000 Du        
   3443 ****       110.2500 248.7500 324.2500 Du        
   3444 ****       110.2500 248.7500 324.5000 Du        
   3445 ****       110.2500 248.7500 324.7500 Du        
   3446 ****       110.2500 248.7500 325.0000 Du        
   3447 ****       110.2500 248.7500 325.2500 Du        
   3448 ****       110.2500 249.0000 324.0000 Du        
   3449 ****       110.2500 249.0000 324.2500 Du        
   3450 ****       110.2500 249.0000 324.5000 Du        
   3451 ****       110.2500 249.0000 324.7500 Du        
   3452 ****       110.2500 249.0000 325.0000 Du        
   3453 ****       110.2500 249.0000 325.2500 Du        
   3454 ****       110.2500 249.2500 324.0000 Du        
   3455 ****       110.2500 249.2500 324.2500 Du        
   3456 ****       110.2500 249.2500 324.5000 Du        
   3457 ****       110.2500 249.2500 324.7500 Du        
   3458 ****       110.2500 249.2500 325.0000 Du        
   3459 ****       110.2500 249.2500 325.2500 Du        
   3460 ****       110.2500 249.5000 324.0000 Du        
   3461 ****       110.2500 249.5000 324.2500 Du        
   3462 ****       110.2500 249.5000 324.5000 Du        
   3463 ****       110.2500 249.5000 324.7500 Du        
   3464 ****       110.2500 249.5000 325.0000 Du        
   3465 ****       110.2500 249.7500 324.2500 Du        
   3466 ****       110.2500 249.7500 324.5000 Du        
   3467 ****       110.2500 249.7500 324.7500 Du        
   3468 ****       110.2500 249.7500 325.0000 Du        
   3469 ****       110.2500 250.0000 324.2500 Du        
   3470 ****       110.2500 250.0000 324.5000 Du        
   3471 ****       110.2500 250.0000 324.7500 Du        
   3472 ****       110.2500 250.2500 324.5000 Du        
   3473 ****       110.5000 242.0000 329.7500 Du        
   3474 ****       110.5000 242.0000 330.0000 Du        
   3475 ****       110.5000 242.2500 329.2500 Du        
   3476 ****       110.5000 242.2500 329.5000 Du        
   3477 ****       110.5000 242.2500 329.7500 Du        
   3478 ****       110.5000 242.2500 330.0000 Du        
   3479 ****       110.5000 242.2500 330.2500 Du        
   3480 ****       110.5000 242.5000 329.0000 Du        
   3481 ****       110.5000 242.5000 329.2500 Du        
   3482 ****       110.5000 242.5000 329.5000 Du        
   3483 ****       110.5000 242.5000 329.7500 Du        
   3484 ****       110.5000 242.5000 330.0000 Du        
   3485 ****       110.5000 242.5000 330.2500 Du        
   3486 ****       110.5000 242.7500 328.5000 Du        
   3487 ****       110.5000 242.7500 328.7500 Du        
   3488 ****       110.5000 242.7500 329.0000 Du        
   3489 ****       110.5000 242.7500 329.2500 Du        
   3490 ****       110.5000 242.7500 329.5000 Du        
   3491 ****       110.5000 242.7500 329.7500 Du        
   3492 ****       110.5000 242.7500 330.0000 Du        
   3493 ****       110.5000 242.7500 330.2500 Du        
   3494 ****       110.5000 242.7500 330.5000 Du        
   3495 ****       110.5000 243.0000 328.5000 Du        
   3496 ****       110.5000 243.0000 328.7500 Du        
   3497 ****       110.5000 243.0000 329.0000 Du        
   3498 ****       110.5000 243.0000 329.2500 Du        
   3499 ****       110.5000 243.0000 329.5000 Du        
   3500 ****       110.5000 243.0000 329.7500 Du        
   3501 ****       110.5000 243.0000 330.0000 Du        
   3502 ****       110.5000 243.0000 330.2500 Du        
   3503 ****       110.5000 243.0000 330.5000 Du        
   3504 ****       110.5000 243.2500 328.7500 Du        
   3505 ****       110.5000 243.2500 329.0000 Du        
   3506 ****       110.5000 243.2500 329.2500 Du        
   3507 ****       110.5000 243.2500 329.5000 Du        
   3508 ****       110.5000 243.2500 329.7500 Du        
   3509 ****       110.5000 243.2500 330.0000 Du        
   3510 ****       110.5000 243.2500 330.2500 Du        
   3511 ****       110.5000 243.2500 330.5000 Du        
   3512 ****       110.5000 243.5000 329.5000 Du        
   3513 ****       110.5000 243.5000 329.7500 Du        
   3514 ****       110.5000 243.5000 330.0000 Du        
   3515 ****       110.5000 243.5000 330.2500 Du        
   3516 ****       110.5000 243.7500 329.2500 Du        
   3517 ****       110.5000 243.7500 329.7500 Du        
   3518 ****       110.5000 243.7500 330.0000 Du        
   3519 ****       110.5000 243.7500 330.2500 Du        
   3520 ****       110.5000 243.7500 330.5000 Du        
   3521 ****       110.5000 244.0000 329.5000 Du        
   3522 ****       110.5000 244.0000 329.7500 Du        
   3523 ****       110.5000 244.0000 330.0000 Du        
   3524 ****       110.5000 244.0000 330.2500 Du        
   3525 ****       110.5000 244.2500 324.7500 Du        
   3526 ****       110.5000 244.2500 329.5000 Du        
   3527 ****       110.5000 244.2500 329.7500 Du        
   3528 ****       110.5000 244.2500 330.0000 Du        
   3529 ****       110.5000 244.2500 330.2500 Du        
   3530 ****       110.5000 244.5000 324.2500 Du        
   3531 ****       110.5000 244.5000 329.7500 Du        
   3532 ****       110.5000 244.5000 330.0000 Du        
   3533 ****       110.5000 244.5000 330.2500 Du        
   3534 ****       110.5000 244.7500 324.0000 Du        
   3535 ****       110.5000 244.7500 324.2500 Du        
   3536 ****       110.5000 244.7500 324.5000 Du        
   3537 ****       110.5000 244.7500 329.7500 Du        
   3538 ****       110.5000 244.7500 330.0000 Du        
   3539 ****       110.5000 245.0000 324.0000 Du        
   3540 ****       110.5000 245.0000 324.2500 Du        
   3541 ****       110.5000 245.0000 324.5000 Du        
   3542 ****       110.5000 245.0000 324.7500 Du        
   3543 ****       110.5000 245.0000 329.5000 Du        
   3544 ****       110.5000 245.0000 329.7500 Du        
   3545 ****       110.5000 245.2500 323.7500 Du        
   3546 ****       110.5000 245.2500 324.0000 Du        
   3547 ****       110.5000 245.2500 324.2500 Du        
   3548 ****       110.5000 245.2500 324.5000 Du        
   3549 ****       110.5000 245.2500 324.7500 Du        
   3550 ****       110.5000 245.5000 323.5000 Du        
   3551 ****       110.5000 245.5000 323.7500 Du        
   3552 ****       110.5000 245.5000 324.0000 Du        
   3553 ****       110.5000 245.5000 324.2500 Du        
   3554 ****       110.5000 245.5000 324.5000 Du        
   3555 ****       110.5000 245.7500 323.2500 Du        
   3556 ****       110.5000 245.7500 323.5000 Du        
   3557 ****       110.5000 245.7500 323.7500 Du        
   3558 ****       110.5000 245.7500 324.0000 Du        
   3559 ****       110.5000 245.7500 324.2500 Du        
   3560 ****       110.5000 245.7500 324.5000 Du        
   3561 ****       110.5000 246.0000 323.0000 Du        
   3562 ****       110.5000 246.0000 323.2500 Du        
   3563 ****       110.5000 246.0000 323.5000 Du        
   3564 ****       110.5000 246.0000 323.7500 Du        
   3565 ****       110.5000 246.0000 324.0000 Du        
   3566 ****       110.5000 246.0000 324.2500 Du        
   3567 ****       110.5000 246.0000 324.5000 Du        
   3568 ****       110.5000 246.2500 322.7500 Du        
   3569 ****       110.5000 246.2500 323.0000 Du        
   3570 ****       110.5000 246.2500 323.2500 Du        
   3571 ****       110.5000 246.2500 323.5000 Du        
   3572 ****       110.5000 246.2500 323.7500 Du        
   3573 ****       110.5000 246.2500 324.0000 Du        
   3574 ****       110.5000 246.2500 324.2500 Du        
   3575 ****       110.5000 246.2500 324.5000 Du        
   3576 ****       110.5000 246.5000 322.7500 Du        
   3577 ****       110.5000 246.5000 323.0000 Du        
   3578 ****       110.5000 246.5000 323.2500 Du        
   3579 ****       110.5000 246.5000 323.5000 Du        
   3580 ****       110.5000 246.5000 323.7500 Du        
   3581 ****       110.5000 246.5000 324.0000 Du        
   3582 ****       110.5000 246.5000 324.2500 Du        
   3583 ****       110.5000 246.7500 322.7500 Du        
   3584 ****       110.5000 246.7500 323.0000 Du        
   3585 ****       110.5000 246.7500 323.2500 Du        
   3586 ****       110.5000 246.7500 323.5000 Du        
   3587 ****       110.5000 246.7500 323.7500 Du        
   3588 ****       110.5000 246.7500 324.0000 Du        
   3589 ****       110.5000 246.7500 324.2500 Du        
   3590 ****       110.5000 247.0000 322.7500 Du        
   3591 ****       110.5000 247.0000 323.0000 Du        
   3592 ****       110.5000 247.0000 323.2500 Du        
   3593 ****       110.5000 247.0000 323.5000 Du        
   3594 ****       110.5000 247.0000 323.7500 Du        
   3595 ****       110.5000 247.0000 324.0000 Du        
   3596 ****       110.5000 247.0000 324.2500 Du        
   3597 ****       110.5000 247.0000 324.5000 Du        
   3598 ****       110.5000 247.2500 323.0000 Du        
   3599 ****       110.5000 247.2500 323.2500 Du        
   3600 ****       110.5000 247.2500 323.5000 Du        
   3601 ****       110.5000 247.2500 323.7500 Du        
   3602 ****       110.5000 247.2500 324.0000 Du        
   3603 ****       110.5000 247.2500 324.2500 Du        
   3604 ****       110.5000 247.2500 324.5000 Du        
   3605 ****       110.5000 247.5000 323.2500 Du        
   3606 ****       110.5000 247.5000 323.5000 Du        
   3607 ****       110.5000 247.5000 323.7500 Du        
   3608 ****       110.5000 247.5000 324.0000 Du        
   3609 ****       110.5000 247.5000 324.2500 Du        
   3610 ****       110.5000 247.5000 324.5000 Du        
   3611 ****       110.5000 247.5000 324.7500 Du        
   3612 ****       110.5000 247.7500 323.7500 Du        
   3613 ****       110.5000 247.7500 324.0000 Du        
   3614 ****       110.5000 247.7500 324.2500 Du        
   3615 ****       110.5000 247.7500 324.5000 Du        
   3616 ****       110.5000 247.7500 324.7500 Du        
   3617 ****       110.5000 247.7500 325.0000 Du        
   3618 ****       110.5000 247.7500 325.2500 Du        
   3619 ****       110.5000 248.0000 323.7500 Du        
   3620 ****       110.5000 248.0000 324.0000 Du        
   3621 ****       110.5000 248.0000 324.2500 Du        
   3622 ****       110.5000 248.0000 324.5000 Du        
   3623 ****       110.5000 248.0000 324.7500 Du        
   3624 ****       110.5000 248.0000 325.0000 Du        
   3625 ****       110.5000 248.0000 325.2500 Du        
   3626 ****       110.5000 248.2500 324.0000 Du        
   3627 ****       110.5000 248.2500 324.2500 Du        
   3628 ****       110.5000 248.2500 324.5000 Du        
   3629 ****       110.5000 248.2500 324.7500 Du        
   3630 ****       110.5000 248.2500 325.0000 Du        
   3631 ****       110.5000 248.2500 325.2500 Du        
   3632 ****       110.5000 248.5000 324.0000 Du        
   3633 ****       110.5000 248.5000 324.2500 Du        
   3634 ****       110.5000 248.5000 324.5000 Du        
   3635 ****       110.5000 248.5000 324.7500 Du        
   3636 ****       110.5000 248.5000 325.0000 Du        
   3637 ****       110.5000 248.5000 325.2500 Du        
   3638 ****       110.5000 248.7500 324.0000 Du        
   3639 ****       110.5000 248.7500 324.2500 Du        
   3640 ****       110.5000 248.7500 324.5000 Du        
   3641 ****       110.5000 248.7500 324.7500 Du        
   3642 ****       110.5000 248.7500 325.0000 Du        
   3643 ****       110.5000 248.7500 325.2500 Du        
   3644 ****       110.5000 249.0000 324.0000 Du        
   3645 ****       110.5000 249.0000 324.2500 Du        
   3646 ****       110.5000 249.0000 324.5000 Du        
   3647 ****       110.5000 249.0000 324.7500 Du        
   3648 ****       110.5000 249.0000 325.0000 Du        
   3649 ****       110.5000 249.0000 325.2500 Du        
   3650 ****       110.5000 249.2500 324.0000 Du        
   3651 ****       110.5000 249.2500 324.2500 Du        
   3652 ****       110.5000 249.2500 324.5000 Du        
   3653 ****       110.5000 249.2500 324.7500 Du        
   3654 ****       110.5000 249.2500 325.0000 Du        
   3655 ****       110.5000 249.5000 324.0000 Du        
   3656 ****       110.5000 249.5000 324.2500 Du        
   3657 ****       110.5000 249.5000 324.5000 Du        
   3658 ****       110.5000 249.5000 324.7500 Du        
   3659 ****       110.5000 249.5000 325.0000 Du        
   3660 ****       110.5000 249.7500 324.0000 Du        
   3661 ****       110.5000 249.7500 324.2500 Du        
   3662 ****       110.5000 249.7500 324.5000 Du        
   3663 ****       110.5000 249.7500 324.7500 Du        
   3664 ****       110.5000 249.7500 325.0000 Du        
   3665 ****       110.5000 250.0000 324.2500 Du        
   3666 ****       110.5000 250.0000 324.5000 Du        
   3667 ****       110.5000 250.0000 324.7500 Du        
   3668 ****       110.7500 242.0000 329.5000 Du        
   3669 ****       110.7500 242.0000 329.7500 Du        
   3670 ****       110.7500 242.2500 329.0000 Du        
   3671 ****       110.7500 242.2500 329.2500 Du        
   3672 ****       110.7500 242.2500 329.5000 Du        
   3673 ****       110.7500 242.2500 329.7500 Du        
   3674 ****       110.7500 242.2500 330.0000 Du        
   3675 ****       110.7500 242.5000 328.7500 Du        
   3676 ****       110.7500 242.5000 329.0000 Du        
   3677 ****       110.7500 242.5000 329.2500 Du        
   3678 ****       110.7500 242.5000 329.5000 Du        
   3679 ****       110.7500 242.5000 329.7500 Du        
   3680 ****       110.7500 242.5000 330.0000 Du        
   3681 ****       110.7500 242.5000 330.2500 Du        
   3682 ****       110.7500 242.7500 328.2500 Du        
   3683 ****       110.7500 242.7500 328.5000 Du        
   3684 ****       110.7500 242.7500 328.7500 Du        
   3685 ****       110.7500 242.7500 329.0000 Du        
   3686 ****       110.7500 242.7500 329.2500 Du        
   3687 ****       110.7500 242.7500 329.5000 Du        
   3688 ****       110.7500 242.7500 329.7500 Du        
   3689 ****       110.7500 242.7500 330.0000 Du        
   3690 ****       110.7500 242.7500 330.2500 Du        
   3691 ****       110.7500 243.0000 328.2500 Du        
   3692 ****       110.7500 243.0000 328.5000 Du        
   3693 ****       110.7500 243.0000 328.7500 Du        
   3694 ****       110.7500 243.0000 329.0000 Du        
   3695 ****       110.7500 243.0000 329.2500 Du        
   3696 ****       110.7500 243.0000 329.5000 Du        
   3697 ****       110.7500 243.0000 329.7500 Du        
   3698 ****       110.7500 243.0000 330.0000 Du        
   3699 ****       110.7500 243.0000 330.2500 Du        
   3700 ****       110.7500 243.0000 330.5000 Du        
   3701 ****       110.7500 243.2500 328.5000 Du        
   3702 ****       110.7500 243.2500 328.7500 Du        
   3703 ****       110.7500 243.2500 329.0000 Du        
   3704 ****       110.7500 243.2500 329.2500 Du        
   3705 ****       110.7500 243.2500 329.5000 Du        
   3706 ****       110.7500 243.2500 329.7500 Du        
   3707 ****       110.7500 243.2500 330.0000 Du        
   3708 ****       110.7500 243.2500 330.2500 Du        
   3709 ****       110.7500 243.2500 330.5000 Du        
   3710 ****       110.7500 243.5000 329.2500 Du        
   3711 ****       110.7500 243.5000 329.5000 Du        
   3712 ****       110.7500 243.5000 329.7500 Du        
   3713 ****       110.7500 243.5000 330.0000 Du        
   3714 ****       110.7500 243.5000 330.2500 Du        
   3715 ****       110.7500 243.7500 329.2500 Du        
   3716 ****       110.7500 243.7500 329.5000 Du        
   3717 ****       110.7500 243.7500 329.7500 Du        
   3718 ****       110.7500 243.7500 330.0000 Du        
   3719 ****       110.7500 243.7500 330.2500 Du        
   3720 ****       110.7500 243.7500 330.5000 Du        
   3721 ****       110.7500 244.0000 324.7500 Du        
   3722 ****       110.7500 244.0000 325.0000 Du        
   3723 ****       110.7500 244.0000 329.2500 Du        
   3724 ****       110.7500 244.0000 329.5000 Du        
   3725 ****       110.7500 244.0000 329.7500 Du        
   3726 ****       110.7500 244.0000 330.0000 Du        
   3727 ****       110.7500 244.0000 330.2500 Du        
   3728 ****       110.7500 244.2500 324.2500 Du        
   3729 ****       110.7500 244.2500 324.7500 Du        
   3730 ****       110.7500 244.2500 325.0000 Du        
   3731 ****       110.7500 244.2500 329.5000 Du        
   3732 ****       110.7500 244.2500 329.7500 Du        
   3733 ****       110.7500 244.2500 330.0000 Du        
   3734 ****       110.7500 244.2500 330.2500 Du        
   3735 ****       110.7500 244.5000 324.2500 Du        
   3736 ****       110.7500 244.5000 324.5000 Du        
   3737 ****       110.7500 244.5000 329.5000 Du        
   3738 ****       110.7500 244.5000 329.7500 Du        
   3739 ****       110.7500 244.5000 330.0000 Du        
   3740 ****       110.7500 244.5000 330.2500 Du        
   3741 ****       110.7500 244.7500 324.2500 Du        
   3742 ****       110.7500 244.7500 324.5000 Du        
   3743 ****       110.7500 244.7500 324.7500 Du        
   3744 ****       110.7500 244.7500 329.5000 Du        
   3745 ****       110.7500 244.7500 329.7500 Du        
   3746 ****       110.7500 244.7500 330.0000 Du        
   3747 ****       110.7500 245.0000 324.0000 Du        
   3748 ****       110.7500 245.0000 324.2500 Du        
   3749 ****       110.7500 245.0000 324.5000 Du        
   3750 ****       110.7500 245.0000 324.7500 Du        
   3751 ****       110.7500 245.0000 329.5000 Du        
   3752 ****       110.7500 245.0000 329.7500 Du        
   3753 ****       110.7500 245.2500 323.7500 Du        
   3754 ****       110.7500 245.2500 324.0000 Du        
   3755 ****       110.7500 245.2500 324.2500 Du        
   3756 ****       110.7500 245.2500 324.5000 Du        
   3757 ****       110.7500 245.2500 324.7500 Du        
   3758 ****       110.7500 245.5000 323.5000 Du        
   3759 ****       110.7500 245.5000 323.7500 Du        
   3760 ****       110.7500 245.5000 324.0000 Du        
   3761 ****       110.7500 245.5000 324.2500 Du        
   3762 ****       110.7500 245.5000 324.5000 Du        
   3763 ****       110.7500 245.7500 323.2500 Du        
   3764 ****       110.7500 245.7500 323.5000 Du        
   3765 ****       110.7500 245.7500 323.7500 Du        
   3766 ****       110.7500 245.7500 324.0000 Du        
   3767 ****       110.7500 245.7500 324.2500 Du        
   3768 ****       110.7500 245.7500 324.5000 Du        
   3769 ****       110.7500 246.0000 323.0000 Du        
   3770 ****       110.7500 246.0000 323.2500 Du        
   3771 ****       110.7500 246.0000 323.5000 Du        
   3772 ****       110.7500 246.0000 323.7500 Du        
   3773 ****       110.7500 246.0000 324.0000 Du        
   3774 ****       110.7500 246.0000 324.2500 Du        
   3775 ****       110.7500 246.0000 324.5000 Du        
   3776 ****       110.7500 246.0000 324.7500 Du        
   3777 ****       110.7500 246.2500 322.7500 Du        
   3778 ****       110.7500 246.2500 323.0000 Du        
   3779 ****       110.7500 246.2500 323.2500 Du        
   3780 ****       110.7500 246.2500 323.5000 Du        
   3781 ****       110.7500 246.2500 323.7500 Du        
   3782 ****       110.7500 246.2500 324.0000 Du        
   3783 ****       110.7500 246.2500 324.2500 Du        
   3784 ****       110.7500 246.2500 324.5000 Du        
   3785 ****       110.7500 246.2500 324.7500 Du        
   3786 ****       110.7500 246.5000 323.0000 Du        
   3787 ****       110.7500 246.5000 323.2500 Du        
   3788 ****       110.7500 246.5000 323.5000 Du        
   3789 ****       110.7500 246.5000 323.7500 Du        
   3790 ****       110.7500 246.5000 324.0000 Du        
   3791 ****       110.7500 246.5000 324.2500 Du        
   3792 ****       110.7500 246.7500 323.0000 Du        
   3793 ****       110.7500 246.7500 323.2500 Du        
   3794 ****       110.7500 246.7500 323.5000 Du        
   3795 ****       110.7500 246.7500 323.7500 Du        
   3796 ****       110.7500 246.7500 324.0000 Du        
   3797 ****       110.7500 246.7500 324.2500 Du        
   3798 ****       110.7500 247.0000 323.2500 Du        
   3799 ****       110.7500 247.0000 323.5000 Du        
   3800 ****       110.7500 247.0000 323.7500 Du        
   3801 ****       110.7500 247.0000 324.0000 Du        
   3802 ****       110.7500 247.0000 324.2500 Du        
   3803 ****       110.7500 247.0000 324.5000 Du        
   3804 ****       110.7500 247.0000 324.7500 Du        
   3805 ****       110.7500 247.2500 323.5000 Du        
   3806 ****       110.7500 247.2500 323.7500 Du        
   3807 ****       110.7500 247.2500 324.0000 Du        
   3808 ****       110.7500 247.2500 324.2500 Du        
   3809 ****       110.7500 247.2500 324.7500 Du        
   3810 ****       110.7500 247.5000 323.7500 Du        
   3811 ****       110.7500 247.5000 324.0000 Du        
   3812 ****       110.7500 247.5000 324.2500 Du        
   3813 ****       110.7500 247.5000 324.5000 Du        
   3814 ****       110.7500 247.5000 324.7500 Du        
   3815 ****       110.7500 247.5000 325.0000 Du        
   3816 ****       110.7500 247.5000 325.2500 Du        
   3817 ****       110.7500 247.7500 323.7500 Du        
   3818 ****       110.7500 247.7500 324.0000 Du        
   3819 ****       110.7500 247.7500 324.2500 Du        
   3820 ****       110.7500 247.7500 324.5000 Du        
   3821 ****       110.7500 247.7500 324.7500 Du        
   3822 ****       110.7500 247.7500 325.0000 Du        
   3823 ****       110.7500 247.7500 325.2500 Du        
   3824 ****       110.7500 248.0000 324.0000 Du        
   3825 ****       110.7500 248.0000 324.2500 Du        
   3826 ****       110.7500 248.0000 324.5000 Du        
   3827 ****       110.7500 248.0000 324.7500 Du        
   3828 ****       110.7500 248.0000 325.0000 Du        
   3829 ****       110.7500 248.0000 325.2500 Du        
   3830 ****       110.7500 248.2500 324.0000 Du        
   3831 ****       110.7500 248.2500 324.2500 Du        
   3832 ****       110.7500 248.2500 324.5000 Du        
   3833 ****       110.7500 248.2500 324.7500 Du        
   3834 ****       110.7500 248.2500 325.0000 Du        
   3835 ****       110.7500 248.2500 325.2500 Du        
   3836 ****       110.7500 248.5000 324.0000 Du        
   3837 ****       110.7500 248.5000 324.2500 Du        
   3838 ****       110.7500 248.5000 324.5000 Du        
   3839 ****       110.7500 248.5000 324.7500 Du        
   3840 ****       110.7500 248.5000 325.0000 Du        
   3841 ****       110.7500 248.5000 325.2500 Du        
   3842 ****       110.7500 248.7500 324.0000 Du        
   3843 ****       110.7500 248.7500 324.2500 Du        
   3844 ****       110.7500 248.7500 324.5000 Du        
   3845 ****       110.7500 248.7500 324.7500 Du        
   3846 ****       110.7500 248.7500 325.0000 Du        
   3847 ****       110.7500 249.0000 324.0000 Du        
   3848 ****       110.7500 249.0000 324.2500 Du        
   3849 ****       110.7500 249.0000 324.5000 Du        
   3850 ****       110.7500 249.0000 324.7500 Du        
   3851 ****       110.7500 249.0000 325.0000 Du        
   3852 ****       110.7500 249.2500 324.0000 Du        
   3853 ****       110.7500 249.2500 324.2500 Du        
   3854 ****       110.7500 249.2500 324.5000 Du        
   3855 ****       110.7500 249.2500 324.7500 Du        
   3856 ****       110.7500 249.2500 325.0000 Du        
   3857 ****       110.7500 249.5000 324.0000 Du        
   3858 ****       110.7500 249.5000 324.2500 Du        
   3859 ****       110.7500 249.5000 324.5000 Du        
   3860 ****       110.7500 249.5000 324.7500 Du        
   3861 ****       110.7500 249.7500 324.0000 Du        
   3862 ****       110.7500 249.7500 324.2500 Du        
   3863 ****       110.7500 249.7500 324.5000 Du        
   3864 ****       110.7500 249.7500 324.7500 Du        
   3865 ****       110.7500 250.0000 324.2500 Du        
   3866 ****       110.7500 250.0000 324.5000 Du        
   3867 ****       110.7500 250.0000 324.7500 Du        
   3868 ****       111.0000 242.0000 329.2500 Du        
   3869 ****       111.0000 242.0000 329.5000 Du        
   3870 ****       111.0000 242.0000 329.7500 Du        
   3871 ****       111.0000 242.2500 328.5000 Du        
   3872 ****       111.0000 242.2500 328.7500 Du        
   3873 ****       111.0000 242.2500 329.0000 Du        
   3874 ****       111.0000 242.2500 329.2500 Du        
   3875 ****       111.0000 242.2500 329.5000 Du        
   3876 ****       111.0000 242.2500 329.7500 Du        
   3877 ****       111.0000 242.2500 330.0000 Du        
   3878 ****       111.0000 242.5000 328.5000 Du        
   3879 ****       111.0000 242.5000 328.7500 Du        
   3880 ****       111.0000 242.5000 329.0000 Du        
   3881 ****       111.0000 242.5000 329.2500 Du        
   3882 ****       111.0000 242.5000 329.5000 Du        
   3883 ****       111.0000 242.5000 329.7500 Du        
   3884 ****       111.0000 242.5000 330.0000 Du        
   3885 ****       111.0000 242.7500 328.0000 Du        
   3886 ****       111.0000 242.7500 328.2500 Du        
   3887 ****       111.0000 242.7500 328.5000 Du        
   3888 ****       111.0000 242.7500 328.7500 Du        
   3889 ****       111.0000 242.7500 329.0000 Du        
   3890 ****       111.0000 242.7500 329.2500 Du        
   3891 ****       111.0000 242.7500 329.5000 Du        
   3892 ****       111.0000 242.7500 329.7500 Du        
   3893 ****       111.0000 242.7500 330.0000 Du        
   3894 ****       111.0000 242.7500 330.2500 Du        
   3895 ****       111.0000 243.0000 328.2500 Du        
   3896 ****       111.0000 243.0000 328.5000 Du        
   3897 ****       111.0000 243.0000 328.7500 Du        
   3898 ****       111.0000 243.0000 329.0000 Du        
   3899 ****       111.0000 243.0000 329.2500 Du        
   3900 ****       111.0000 243.0000 329.5000 Du        
   3901 ****       111.0000 243.0000 329.7500 Du        
   3902 ****       111.0000 243.0000 330.0000 Du        
   3903 ****       111.0000 243.0000 330.2500 Du        
   3904 ****       111.0000 243.0000 330.5000 Du        
   3905 ****       111.0000 243.2500 328.5000 Du        
   3906 ****       111.0000 243.2500 328.7500 Du        
   3907 ****       111.0000 243.2500 329.0000 Du        
   3908 ****       111.0000 243.2500 329.2500 Du        
   3909 ****       111.0000 243.2500 329.5000 Du        
   3910 ****       111.0000 243.2500 329.7500 Du        
   3911 ****       111.0000 243.2500 330.0000 Du        
   3912 ****       111.0000 243.2500 330.2500 Du        
   3913 ****       111.0000 243.2500 330.5000 Du        
   3914 ****       111.0000 243.5000 329.0000 Du        
   3915 ****       111.0000 243.5000 329.2500 Du        
   3916 ****       111.0000 243.5000 329.5000 Du        
   3917 ****       111.0000 243.5000 329.7500 Du        
   3918 ****       111.0000 243.5000 330.0000 Du        
   3919 ****       111.0000 243.5000 330.2500 Du        
   3920 ****       111.0000 243.5000 330.5000 Du        
   3921 ****       111.0000 243.7500 324.7500 Du        
   3922 ****       111.0000 243.7500 329.0000 Du        
   3923 ****       111.0000 243.7500 329.2500 Du        
   3924 ****       111.0000 243.7500 329.5000 Du        
   3925 ****       111.0000 243.7500 329.7500 Du        
   3926 ****       111.0000 243.7500 330.0000 Du        
   3927 ****       111.0000 243.7500 330.2500 Du        
   3928 ****       111.0000 244.0000 324.7500 Du        
   3929 ****       111.0000 244.0000 325.0000 Du        
   3930 ****       111.0000 244.0000 329.0000 Du        
   3931 ****       111.0000 244.0000 329.2500 Du        
   3932 ****       111.0000 244.0000 329.5000 Du        
   3933 ****       111.0000 244.0000 329.7500 Du        
   3934 ****       111.0000 244.0000 330.0000 Du        
   3935 ****       111.0000 244.0000 330.2500 Du        
   3936 ****       111.0000 244.2500 324.7500 Du        
   3937 ****       111.0000 244.2500 325.0000 Du        
   3938 ****       111.0000 244.2500 329.2500 Du        
   3939 ****       111.0000 244.2500 329.5000 Du        
   3940 ****       111.0000 244.2500 329.7500 Du        
   3941 ****       111.0000 244.2500 330.0000 Du        
   3942 ****       111.0000 244.2500 330.2500 Du        
   3943 ****       111.0000 244.5000 324.2500 Du        
   3944 ****       111.0000 244.5000 324.5000 Du        
   3945 ****       111.0000 244.5000 324.7500 Du        
   3946 ****       111.0000 244.5000 329.5000 Du        
   3947 ****       111.0000 244.5000 329.7500 Du        
   3948 ****       111.0000 244.5000 330.0000 Du        
   3949 ****       111.0000 244.7500 324.2500 Du        
   3950 ****       111.0000 244.7500 324.5000 Du        
   3951 ****       111.0000 244.7500 324.7500 Du        
   3952 ****       111.0000 244.7500 329.7500 Du        
   3953 ****       111.0000 244.7500 330.0000 Du        
   3954 ****       111.0000 245.0000 324.0000 Du        
   3955 ****       111.0000 245.0000 324.2500 Du        
   3956 ****       111.0000 245.0000 324.5000 Du        
   3957 ****       111.0000 245.0000 324.7500 Du        
   3958 ****       111.0000 245.2500 323.7500 Du        
   3959 ****       111.0000 245.2500 324.0000 Du        
   3960 ****       111.0000 245.2500 324.2500 Du        
   3961 ****       111.0000 245.2500 324.5000 Du        
   3962 ****       111.0000 245.5000 323.7500 Du        
   3963 ****       111.0000 245.5000 324.0000 Du        
   3964 ****       111.0000 245.5000 324.2500 Du        
   3965 ****       111.0000 245.5000 324.5000 Du        
   3966 ****       111.0000 245.7500 323.5000 Du        
   3967 ****       111.0000 245.7500 323.7500 Du        
   3968 ****       111.0000 245.7500 324.0000 Du        
   3969 ****       111.0000 245.7500 324.2500 Du        
   3970 ****       111.0000 245.7500 324.5000 Du        
   3971 ****       111.0000 246.0000 323.2500 Du        
   3972 ****       111.0000 246.0000 323.5000 Du        
   3973 ****       111.0000 246.0000 323.7500 Du        
   3974 ****       111.0000 246.0000 324.0000 Du        
   3975 ****       111.0000 246.0000 324.2500 Du        
   3976 ****       111.0000 246.0000 324.5000 Du        
   3977 ****       111.0000 246.0000 324.7500 Du        
   3978 ****       111.0000 246.0000 325.0000 Du        
   3979 ****       111.0000 246.2500 323.2500 Du        
   3980 ****       111.0000 246.2500 323.5000 Du        
   3981 ****       111.0000 246.2500 323.7500 Du        
   3982 ****       111.0000 246.2500 324.0000 Du        
   3983 ****       111.0000 246.2500 324.2500 Du        
   3984 ****       111.0000 246.2500 324.5000 Du        
   3985 ****       111.0000 246.2500 324.7500 Du        
   3986 ****       111.0000 246.2500 325.0000 Du        
   3987 ****       111.0000 246.5000 323.5000 Du        
   3988 ****       111.0000 246.5000 323.7500 Du        
   3989 ****       111.0000 246.5000 324.0000 Du        
   3990 ****       111.0000 246.5000 324.2500 Du        
   3991 ****       111.0000 246.7500 323.5000 Du        
   3992 ****       111.0000 246.7500 323.7500 Du        
   3993 ****       111.0000 246.7500 324.0000 Du        
   3994 ****       111.0000 246.7500 324.2500 Du        
   3995 ****       111.0000 246.7500 324.5000 Du        
   3996 ****       111.0000 247.0000 323.7500 Du        
   3997 ****       111.0000 247.0000 324.0000 Du        
   3998 ****       111.0000 247.0000 324.2500 Du        
   3999 ****       111.0000 247.0000 324.5000 Du        
   4000 ****       111.0000 247.2500 323.7500 Du        
   4001 ****       111.0000 247.2500 324.0000 Du        
   4002 ****       111.0000 247.2500 324.2500 Du        
   4003 ****       111.0000 247.2500 324.5000 Du        
   4004 ****       111.0000 247.2500 324.7500 Du        
   4005 ****       111.0000 247.5000 324.0000 Du        
   4006 ****       111.0000 247.5000 324.2500 Du        
   4007 ****       111.0000 247.5000 324.5000 Du        
   4008 ****       111.0000 247.5000 324.7500 Du        
   4009 ****       111.0000 247.5000 325.0000 Du        
   4010 ****       111.0000 247.5000 325.2500 Du        
   4011 ****       111.0000 247.7500 324.0000 Du        
   4012 ****       111.0000 247.7500 324.2500 Du        
   4013 ****       111.0000 247.7500 324.5000 Du        
   4014 ****       111.0000 247.7500 324.7500 Du        
   4015 ****       111.0000 247.7500 325.0000 Du        
   4016 ****       111.0000 247.7500 325.2500 Du        
   4017 ****       111.0000 248.0000 324.0000 Du        
   4018 ****       111.0000 248.0000 324.2500 Du        
   4019 ****       111.0000 248.0000 324.5000 Du        
   4020 ****       111.0000 248.0000 324.7500 Du        
   4021 ****       111.0000 248.0000 325.0000 Du        
   4022 ****       111.0000 248.0000 325.2500 Du        
   4023 ****       111.0000 248.2500 324.0000 Du        
   4024 ****       111.0000 248.2500 324.2500 Du        
   4025 ****       111.0000 248.2500 324.5000 Du        
   4026 ****       111.0000 248.2500 324.7500 Du        
   4027 ****       111.0000 248.2500 325.0000 Du        
   4028 ****       111.0000 248.2500 325.2500 Du        
   4029 ****       111.0000 248.5000 324.0000 Du        
   4030 ****       111.0000 248.5000 324.2500 Du        
   4031 ****       111.0000 248.5000 324.5000 Du        
   4032 ****       111.0000 248.5000 324.7500 Du        
   4033 ****       111.0000 248.5000 325.0000 Du        
   4034 ****       111.0000 248.5000 325.2500 Du        
   4035 ****       111.0000 248.7500 324.0000 Du        
   4036 ****       111.0000 248.7500 324.2500 Du        
   4037 ****       111.0000 248.7500 324.5000 Du        
   4038 ****       111.0000 248.7500 324.7500 Du        
   4039 ****       111.0000 248.7500 325.0000 Du        
   4040 ****       111.0000 249.0000 324.0000 Du        
   4041 ****       111.0000 249.0000 324.2500 Du        
   4042 ****       111.0000 249.0000 324.5000 Du        
   4043 ****       111.0000 249.0000 324.7500 Du        
   4044 ****       111.0000 249.0000 325.0000 Du        
   4045 ****       111.0000 249.2500 324.0000 Du        
   4046 ****       111.0000 249.2500 324.2500 Du        
   4047 ****       111.0000 249.2500 324.5000 Du        
   4048 ****       111.0000 249.2500 324.7500 Du        
   4049 ****       111.0000 249.5000 324.2500 Du        
   4050 ****       111.0000 249.5000 324.5000 Du        
   4051 ****       111.0000 249.5000 324.7500 Du        
   4052 ****       111.0000 249.7500 324.2500 Du        
   4053 ****       111.0000 249.7500 324.5000 Du        
   4054 ****       111.0000 249.7500 324.7500 Du        
   4055 ****       111.2500 242.0000 328.7500 Du        
   4056 ****       111.2500 242.0000 329.0000 Du        
   4057 ****       111.2500 242.0000 329.2500 Du        
   4058 ****       111.2500 242.0000 329.5000 Du        
   4059 ****       111.2500 242.2500 328.2500 Du        
   4060 ****       111.2500 242.2500 328.5000 Du        
   4061 ****       111.2500 242.2500 328.7500 Du        
   4062 ****       111.2500 242.2500 329.0000 Du        
   4063 ****       111.2500 242.2500 329.2500 Du        
   4064 ****       111.2500 242.2500 329.5000 Du        
   4065 ****       111.2500 242.2500 329.7500 Du        
   4066 ****       111.2500 242.5000 328.0000 Du        
   4067 ****       111.2500 242.5000 328.2500 Du        
   4068 ****       111.2500 242.5000 328.5000 Du        
   4069 ****       111.2500 242.5000 328.7500 Du        
   4070 ****       111.2500 242.5000 329.0000 Du        
   4071 ****       111.2500 242.5000 329.2500 Du        
   4072 ****       111.2500 242.5000 329.5000 Du        
   4073 ****       111.2500 242.5000 329.7500 Du        
   4074 ****       111.2500 242.5000 330.0000 Du        
   4075 ****       111.2500 242.7500 328.0000 Du        
   4076 ****       111.2500 242.7500 328.2500 Du        
   4077 ****       111.2500 242.7500 328.5000 Du        
   4078 ****       111.2500 242.7500 328.7500 Du        
   4079 ****       111.2500 242.7500 329.0000 Du        
   4080 ****       111.2500 242.7500 329.2500 Du        
   4081 ****       111.2500 242.7500 329.5000 Du        
   4082 ****       111.2500 242.7500 329.7500 Du        
   4083 ****       111.2500 242.7500 330.0000 Du        
   4084 ****       111.2500 242.7500 330.2500 Du        
   4085 ****       111.2500 243.0000 328.0000 Du        
   4086 ****       111.2500 243.0000 328.2500 Du        
   4087 ****       111.2500 243.0000 328.5000 Du        
   4088 ****       111.2500 243.0000 328.7500 Du        
   4089 ****       111.2500 243.0000 329.0000 Du        
   4090 ****       111.2500 243.0000 329.2500 Du        
   4091 ****       111.2500 243.0000 329.5000 Du        
   4092 ****       111.2500 243.0000 329.7500 Du        
   4093 ****       111.2500 243.0000 330.0000 Du        
   4094 ****       111.2500 243.0000 330.2500 Du        
   4095 ****       111.2500 243.2500 325.0000 Du        
   4096 ****       111.2500 243.2500 325.2500 Du        
   4097 ****       111.2500 243.2500 328.5000 Du        
   4098 ****       111.2500 243.2500 328.7500 Du        
   4099 ****       111.2500 243.2500 329.0000 Du        
   4100 ****       111.2500 243.2500 329.2500 Du        
   4101 ****       111.2500 243.2500 329.5000 Du        
   4102 ****       111.2500 243.2500 329.7500 Du        
   4103 ****       111.2500 243.2500 330.0000 Du        
   4104 ****       111.2500 243.2500 330.2500 Du        
   4105 ****       111.2500 243.5000 328.7500 Du        
   4106 ****       111.2500 243.5000 329.0000 Du        
   4107 ****       111.2500 243.5000 329.2500 Du        
   4108 ****       111.2500 243.5000 329.5000 Du        
   4109 ****       111.2500 243.5000 329.7500 Du        
   4110 ****       111.2500 243.5000 330.0000 Du        
   4111 ****       111.2500 243.5000 330.2500 Du        
   4112 ****       111.2500 243.7500 324.7500 Du        
   4113 ****       111.2500 243.7500 329.0000 Du        
   4114 ****       111.2500 243.7500 329.2500 Du        
   4115 ****       111.2500 243.7500 329.5000 Du        
   4116 ****       111.2500 243.7500 329.7500 Du        
   4117 ****       111.2500 243.7500 330.0000 Du        
   4118 ****       111.2500 243.7500 330.2500 Du        
   4119 ****       111.2500 244.0000 324.7500 Du        
   4120 ****       111.2500 244.0000 325.0000 Du        
   4121 ****       111.2500 244.0000 329.0000 Du        
   4122 ****       111.2500 244.0000 329.2500 Du        
   4123 ****       111.2500 244.0000 329.5000 Du        
   4124 ****       111.2500 244.0000 329.7500 Du        
   4125 ****       111.2500 244.0000 330.0000 Du        
   4126 ****       111.2500 244.0000 330.2500 Du        
   4127 ****       111.2500 244.2500 324.7500 Du        
   4128 ****       111.2500 244.2500 329.5000 Du        
   4129 ****       111.2500 244.2500 329.7500 Du        
   4130 ****       111.2500 244.2500 330.0000 Du        
   4131 ****       111.2500 244.2500 330.2500 Du        
   4132 ****       111.2500 244.5000 324.2500 Du        
   4133 ****       111.2500 244.5000 324.5000 Du        
   4134 ****       111.2500 244.5000 324.7500 Du        
   4135 ****       111.2500 244.5000 329.7500 Du        
   4136 ****       111.2500 244.5000 330.0000 Du        
   4137 ****       111.2500 244.7500 324.2500 Du        
   4138 ****       111.2500 244.7500 324.5000 Du        
   4139 ****       111.2500 244.7500 324.7500 Du        
   4140 ****       111.2500 245.0000 324.0000 Du        
   4141 ****       111.2500 245.0000 324.2500 Du        
   4142 ****       111.2500 245.0000 324.5000 Du        
   4143 ****       111.2500 245.2500 324.0000 Du        
   4144 ****       111.2500 245.2500 324.2500 Du        
   4145 ****       111.2500 245.5000 323.7500 Du        
   4146 ****       111.2500 245.5000 324.0000 Du        
   4147 ****       111.2500 245.5000 324.2500 Du        
   4148 ****       111.2500 245.7500 323.7500 Du        
   4149 ****       111.2500 245.7500 324.0000 Du        
   4150 ****       111.2500 245.7500 324.2500 Du        
   4151 ****       111.2500 245.7500 324.5000 Du        
   4152 ****       111.2500 246.0000 323.7500 Du        
   4153 ****       111.2500 246.0000 324.0000 Du        
   4154 ****       111.2500 246.0000 324.2500 Du        
   4155 ****       111.2500 246.0000 324.5000 Du        
   4156 ****       111.2500 246.0000 324.7500 Du        
   4157 ****       111.2500 246.2500 324.0000 Du        
   4158 ****       111.2500 246.2500 324.2500 Du        
   4159 ****       111.2500 246.2500 324.5000 Du        
   4160 ****       111.2500 246.2500 324.7500 Du        
   4161 ****       111.2500 246.5000 324.0000 Du        
   4162 ****       111.2500 246.5000 324.2500 Du        
   4163 ****       111.2500 246.7500 324.0000 Du        
   4164 ****       111.2500 246.7500 324.2500 Du        
   4165 ****       111.2500 246.7500 324.7500 Du        
   4166 ****       111.2500 247.0000 324.0000 Du        
   4167 ****       111.2500 247.0000 324.2500 Du        
   4168 ****       111.2500 247.2500 324.7500 Du        
   4169 ****       111.2500 247.2500 325.0000 Du        
   4170 ****       111.2500 247.5000 324.2500 Du        
   4171 ****       111.2500 247.5000 324.5000 Du        
   4172 ****       111.2500 247.5000 324.7500 Du        
   4173 ****       111.2500 247.5000 325.0000 Du        
   4174 ****       111.2500 247.5000 325.2500 Du        
   4175 ****       111.2500 247.7500 324.2500 Du        
   4176 ****       111.2500 247.7500 324.5000 Du        
   4177 ****       111.2500 247.7500 324.7500 Du        
   4178 ****       111.2500 247.7500 325.0000 Du        
   4179 ****       111.2500 247.7500 325.2500 Du        
   4180 ****       111.2500 248.0000 324.2500 Du        
   4181 ****       111.2500 248.0000 324.5000 Du        
   4182 ****       111.2500 248.0000 324.7500 Du        
   4183 ****       111.2500 248.0000 325.0000 Du        
   4184 ****       111.2500 248.0000 325.2500 Du        
   4185 ****       111.2500 248.2500 324.2500 Du        
   4186 ****       111.2500 248.2500 324.5000 Du        
   4187 ****       111.2500 248.2500 324.7500 Du        
   4188 ****       111.2500 248.2500 325.0000 Du        
   4189 ****       111.2500 248.2500 325.2500 Du        
   4190 ****       111.2500 248.5000 324.2500 Du        
   4191 ****       111.2500 248.5000 324.5000 Du        
   4192 ****       111.2500 248.5000 324.7500 Du        
   4193 ****       111.2500 248.5000 325.0000 Du        
   4194 ****       111.2500 248.7500 324.2500 Du        
   4195 ****       111.2500 248.7500 324.5000 Du        
   4196 ****       111.2500 248.7500 324.7500 Du        
   4197 ****       111.2500 248.7500 325.0000 Du        
   4198 ****       111.2500 249.0000 324.2500 Du        
   4199 ****       111.2500 249.0000 324.5000 Du        
   4200 ****       111.2500 249.0000 324.7500 Du        
   4201 ****       111.2500 249.2500 324.2500 Du        
   4202 ****       111.2500 249.2500 324.5000 Du        
   4203 ****       111.2500 249.2500 324.7500 Du        
   4204 ****       111.2500 249.5000 324.2500 Du        
   4205 ****       111.2500 249.5000 324.5000 Du        
   4206 ****       111.2500 249.7500 324.2500 Du        
   4207 ****       111.2500 249.7500 324.5000 Du        
   4208 ****       111.5000 241.7500 329.0000 Du        
   4209 ****       111.5000 241.7500 329.2500 Du        
   4210 ****       111.5000 242.0000 326.0000 Du        
   4211 ****       111.5000 242.0000 326.2500 Du        
   4212 ****       111.5000 242.0000 328.5000 Du        
   4213 ****       111.5000 242.0000 328.7500 Du        
   4214 ****       111.5000 242.0000 329.0000 Du        
   4215 ****       111.5000 242.0000 329.2500 Du        
   4216 ****       111.5000 242.0000 329.5000 Du        
   4217 ****       111.5000 242.2500 325.2500 Du        
   4218 ****       111.5000 242.2500 325.7500 Du        
   4219 ****       111.5000 242.2500 326.0000 Du        
   4220 ****       111.5000 242.2500 326.2500 Du        
   4221 ****       111.5000 242.2500 326.5000 Du        
   4222 ****       111.5000 242.2500 326.7500 Du        
   4223 ****       111.5000 242.2500 327.0000 Du        
   4224 ****       111.5000 242.2500 327.5000 Du        
   4225 ****       111.5000 242.2500 327.7500 Du        
   4226 ****       111.5000 242.2500 328.0000 Du        
   4227 ****       111.5000 242.2500 328.2500 Du        
   4228 ****       111.5000 242.2500 328.5000 Du        
   4229 ****       111.5000 242.2500 328.7500 Du        
   4230 ****       111.5000 242.2500 329.0000 Du        
   4231 ****       111.5000 242.2500 329.2500 Du        
   4232 ****       111.5000 242.2500 329.5000 Du        
   4233 ****       111.5000 242.2500 329.7500 Du        
   4234 ****       111.5000 242.5000 325.2500 Du        
   4235 ****       111.5000 242.5000 327.7500 Du        
   4236 ****       111.5000 242.5000 328.0000 Du        
   4237 ****       111.5000 242.5000 328.2500 Du        
   4238 ****       111.5000 242.5000 328.5000 Du        
   4239 ****       111.5000 242.5000 328.7500 Du        
   4240 ****       111.5000 242.5000 329.0000 Du        
   4241 ****       111.5000 242.5000 329.2500 Du        
   4242 ****       111.5000 242.5000 329.5000 Du        
   4243 ****       111.5000 242.5000 329.7500 Du        
   4244 ****       111.5000 242.5000 330.0000 Du        
   4245 ****       111.5000 242.7500 325.2500 Du        
   4246 ****       111.5000 242.7500 327.7500 Du        
   4247 ****       111.5000 242.7500 328.0000 Du        
   4248 ****       111.5000 242.7500 328.2500 Du        
   4249 ****       111.5000 242.7500 328.5000 Du        
   4250 ****       111.5000 242.7500 328.7500 Du        
   4251 ****       111.5000 242.7500 329.0000 Du        
   4252 ****       111.5000 242.7500 329.2500 Du        
   4253 ****       111.5000 242.7500 329.5000 Du        
   4254 ****       111.5000 242.7500 329.7500 Du        
   4255 ****       111.5000 242.7500 330.0000 Du        
   4256 ****       111.5000 242.7500 330.2500 Du        
   4257 ****       111.5000 243.0000 325.0000 Du        
   4258 ****       111.5000 243.0000 325.2500 Du        
   4259 ****       111.5000 243.0000 325.5000 Du        
   4260 ****       111.5000 243.0000 325.7500 Du        
   4261 ****       111.5000 243.0000 328.0000 Du        
   4262 ****       111.5000 243.0000 328.2500 Du        
   4263 ****       111.5000 243.0000 328.5000 Du        
   4264 ****       111.5000 243.0000 328.7500 Du        
   4265 ****       111.5000 243.0000 329.0000 Du        
   4266 ****       111.5000 243.0000 329.2500 Du        
   4267 ****       111.5000 243.0000 329.5000 Du        
   4268 ****       111.5000 243.0000 329.7500 Du        
   4269 ****       111.5000 243.0000 330.0000 Du        
   4270 ****       111.5000 243.0000 330.2500 Du        
   4271 ****       111.5000 243.2500 325.0000 Du        
   4272 ****       111.5000 243.2500 325.2500 Du        
   4273 ****       111.5000 243.2500 328.2500 Du        
   4274 ****       111.5000 243.2500 328.5000 Du        
   4275 ****       111.5000 243.2500 328.7500 Du        
   4276 ****       111.5000 243.2500 329.0000 Du        
   4277 ****       111.5000 243.2500 329.2500 Du        
   4278 ****       111.5000 243.2500 329.5000 Du        
   4279 ****       111.5000 243.2500 329.7500 Du        
   4280 ****       111.5000 243.2500 330.0000 Du        
   4281 ****       111.5000 243.2500 330.2500 Du        
   4282 ****       111.5000 243.5000 328.7500 Du        
   4283 ****       111.5000 243.5000 329.0000 Du        
   4284 ****       111.5000 243.5000 329.2500 Du        
   4285 ****       111.5000 243.5000 329.5000 Du        
   4286 ****       111.5000 243.5000 329.7500 Du        
   4287 ****       111.5000 243.5000 330.0000 Du        
   4288 ****       111.5000 243.5000 330.2500 Du        
   4289 ****       111.5000 243.7500 328.7500 Du        
   4290 ****       111.5000 243.7500 329.0000 Du        
   4291 ****       111.5000 243.7500 329.2500 Du        
   4292 ****       111.5000 243.7500 329.5000 Du        
   4293 ****       111.5000 243.7500 329.7500 Du        
   4294 ****       111.5000 243.7500 330.0000 Du        
   4295 ****       111.5000 243.7500 330.2500 Du        
   4296 ****       111.5000 244.0000 329.2500 Du        
   4297 ****       111.5000 244.0000 329.5000 Du        
   4298 ****       111.5000 244.0000 329.7500 Du        
   4299 ****       111.5000 244.0000 330.0000 Du        
   4300 ****       111.5000 244.0000 330.2500 Du        
   4301 ****       111.5000 244.2500 329.5000 Du        
   4302 ****       111.5000 244.2500 329.7500 Du        
   4303 ****       111.5000 244.2500 330.0000 Du        
   4304 ****       111.5000 244.2500 330.2500 Du        
   4305 ****       111.5000 244.7500 324.2500 Du        
   4306 ****       111.5000 245.0000 324.2500 Du        
   4307 ****       111.5000 245.2500 324.0000 Du        
   4308 ****       111.5000 245.2500 324.2500 Du        
   4309 ****       111.5000 245.5000 324.0000 Du        
   4310 ****       111.5000 245.5000 324.2500 Du        
   4311 ****       111.5000 245.7500 324.0000 Du        
   4312 ****       111.5000 245.7500 324.2500 Du        
   4313 ****       111.5000 246.0000 324.2500 Du        
   4314 ****       111.5000 247.5000 324.7500 Du        
   4315 ****       111.5000 247.5000 325.0000 Du        
   4316 ****       111.5000 247.5000 325.2500 Du        
   4317 ****       111.5000 247.7500 324.7500 Du        
   4318 ****       111.5000 247.7500 325.0000 Du        
   4319 ****       111.5000 247.7500 325.2500 Du        
   4320 ****       111.5000 248.0000 324.5000 Du        
   4321 ****       111.5000 248.0000 324.7500 Du        
   4322 ****       111.5000 248.0000 325.0000 Du        
   4323 ****       111.5000 248.0000 325.2500 Du        
   4324 ****       111.5000 248.2500 324.5000 Du        
   4325 ****       111.5000 248.2500 324.7500 Du        
   4326 ****       111.5000 248.2500 325.0000 Du        
   4327 ****       111.5000 248.5000 324.5000 Du        
   4328 ****       111.5000 248.5000 324.7500 Du        
   4329 ****       111.5000 248.5000 325.0000 Du        
   4330 ****       111.5000 248.7500 324.2500 Du        
   4331 ****       111.5000 248.7500 324.5000 Du        
   4332 ****       111.5000 248.7500 324.7500 Du        
   4333 ****       111.5000 249.0000 324.2500 Du        
   4334 ****       111.5000 249.0000 324.5000 Du        
   4335 ****       111.5000 249.0000 324.7500 Du        
   4336 ****       111.5000 249.2500 324.5000 Du        
   4337 ****       111.7500 241.2500 325.0000 Du        
   4338 ****       111.7500 241.2500 325.2500 Du        
   4339 ****       111.7500 241.2500 325.5000 Du        
   4340 ****       111.7500 241.5000 325.2500 Du        
   4341 ****       111.7500 241.5000 325.5000 Du        
   4342 ****       111.7500 241.7500 325.0000 Du        
   4343 ****       111.7500 241.7500 325.2500 Du        
   4344 ****       111.7500 241.7500 325.5000 Du        
   4345 ****       111.7500 241.7500 325.7500 Du        
   4346 ****       111.7500 241.7500 326.0000 Du        
   4347 ****       111.7500 241.7500 326.2500 Du        
   4348 ****       111.7500 241.7500 328.5000 Du        
   4349 ****       111.7500 241.7500 328.7500 Du        
   4350 ****       111.7500 241.7500 329.0000 Du        
   4351 ****       111.7500 241.7500 329.2500 Du        
   4352 ****       111.7500 242.0000 325.0000 Du        
   4353 ****       111.7500 242.0000 325.2500 Du        
   4354 ****       111.7500 242.0000 325.5000 Du        
   4355 ****       111.7500 242.0000 325.7500 Du        
   4356 ****       111.7500 242.0000 326.0000 Du        
   4357 ****       111.7500 242.0000 326.2500 Du        
   4358 ****       111.7500 242.0000 326.5000 Du        
   4359 ****       111.7500 242.0000 326.7500 Du        
   4360 ****       111.7500 242.0000 327.0000 Du        
   4361 ****       111.7500 242.0000 327.2500 Du        
   4362 ****       111.7500 242.0000 327.7500 Du        
   4363 ****       111.7500 242.0000 328.0000 Du        
   4364 ****       111.7500 242.0000 328.2500 Du        
   4365 ****       111.7500 242.0000 328.5000 Du        
   4366 ****       111.7500 242.0000 328.7500 Du        
   4367 ****       111.7500 242.0000 329.0000 Du        
   4368 ****       111.7500 242.0000 329.2500 Du        
   4369 ****       111.7500 242.0000 329.5000 Du        
   4370 ****       111.7500 242.2500 325.0000 Du        
   4371 ****       111.7500 242.2500 325.2500 Du        
   4372 ****       111.7500 242.2500 325.5000 Du        
   4373 ****       111.7500 242.2500 325.7500 Du        
   4374 ****       111.7500 242.2500 326.0000 Du        
   4375 ****       111.7500 242.2500 326.2500 Du        
   4376 ****       111.7500 242.2500 326.5000 Du        
   4377 ****       111.7500 242.2500 326.7500 Du        
   4378 ****       111.7500 242.2500 327.0000 Du        
   4379 ****       111.7500 242.2500 327.2500 Du        
   4380 ****       111.7500 242.2500 327.5000 Du        
   4381 ****       111.7500 242.2500 327.7500 Du        
   4382 ****       111.7500 242.2500 328.0000 Du        
   4383 ****       111.7500 242.2500 328.2500 Du        
   4384 ****       111.7500 242.2500 328.5000 Du        
   4385 ****       111.7500 242.2500 328.7500 Du        
   4386 ****       111.7500 242.2500 329.0000 Du        
   4387 ****       111.7500 242.2500 329.2500 Du        
   4388 ****       111.7500 242.2500 329.5000 Du        
   4389 ****       111.7500 242.2500 329.7500 Du        
   4390 ****       111.7500 242.5000 325.0000 Du        
   4391 ****       111.7500 242.5000 325.2500 Du        
   4392 ****       111.7500 242.5000 325.5000 Du        
   4393 ****       111.7500 242.5000 325.7500 Du        
   4394 ****       111.7500 242.5000 326.0000 Du        
   4395 ****       111.7500 242.5000 326.2500 Du        
   4396 ****       111.7500 242.5000 326.5000 Du        
   4397 ****       111.7500 242.5000 326.7500 Du        
   4398 ****       111.7500 242.5000 327.0000 Du        
   4399 ****       111.7500 242.5000 327.2500 Du        
   4400 ****       111.7500 242.5000 327.5000 Du        
   4401 ****       111.7500 242.5000 327.7500 Du        
   4402 ****       111.7500 242.5000 328.0000 Du        
   4403 ****       111.7500 242.5000 328.2500 Du        
   4404 ****       111.7500 242.5000 328.5000 Du        
   4405 ****       111.7500 242.5000 328.7500 Du        
   4406 ****       111.7500 242.5000 329.0000 Du        
   4407 ****       111.7500 242.5000 329.2500 Du        
   4408 ****       111.7500 242.5000 329.5000 Du        
   4409 ****       111.7500 242.5000 329.7500 Du        
   4410 ****       111.7500 242.7500 325.0000 Du        
   4411 ****       111.7500 242.7500 325.2500 Du        
   4412 ****       111.7500 242.7500 325.5000 Du        
   4413 ****       111.7500 242.7500 325.7500 Du        
   4414 ****       111.7500 242.7500 326.0000 Du        
   4415 ****       111.7500 242.7500 326.2500 Du        
   4416 ****       111.7500 242.7500 326.5000 Du        
   4417 ****       111.7500 242.7500 326.7500 Du        
   4418 ****       111.7500 242.7500 327.0000 Du        
   4419 ****       111.7500 242.7500 327.2500 Du        
   4420 ****       111.7500 242.7500 327.5000 Du        
   4421 ****       111.7500 242.7500 327.7500 Du        
   4422 ****       111.7500 242.7500 328.0000 Du        
   4423 ****       111.7500 242.7500 328.2500 Du        
   4424 ****       111.7500 242.7500 328.5000 Du        
   4425 ****       111.7500 242.7500 328.7500 Du        
   4426 ****       111.7500 242.7500 329.0000 Du        
   4427 ****       111.7500 242.7500 329.2500 Du        
   4428 ****       111.7500 242.7500 329.5000 Du        
   4429 ****       111.7500 242.7500 329.7500 Du        
   4430 ****       111.7500 242.7500 330.0000 Du        
   4431 ****       111.7500 242.7500 330.2500 Du        
   4432 ****       111.7500 243.0000 325.0000 Du        
   4433 ****       111.7500 243.0000 325.2500 Du        
   4434 ****       111.7500 243.0000 325.5000 Du        
   4435 ****       111.7500 243.0000 325.7500 Du        
   4436 ****       111.7500 243.0000 326.0000 Du        
   4437 ****       111.7500 243.0000 326.2500 Du        
   4438 ****       111.7500 243.0000 326.5000 Du        
   4439 ****       111.7500 243.0000 327.7500 Du        
   4440 ****       111.7500 243.0000 328.0000 Du        
   4441 ****       111.7500 243.0000 328.2500 Du        
   4442 ****       111.7500 243.0000 328.5000 Du        
   4443 ****       111.7500 243.0000 328.7500 Du        
   4444 ****       111.7500 243.0000 329.0000 Du        
   4445 ****       111.7500 243.0000 329.2500 Du        
   4446 ****       111.7500 243.0000 329.5000 Du        
   4447 ****       111.7500 243.0000 329.7500 Du        
   4448 ****       111.7500 243.0000 330.0000 Du        
   4449 ****       111.7500 243.0000 330.2500 Du        
   4450 ****       111.7500 243.2500 324.7500 Du        
   4451 ****       111.7500 243.2500 325.0000 Du        
   4452 ****       111.7500 243.2500 325.2500 Du        
   4453 ****       111.7500 243.2500 325.5000 Du        
   4454 ****       111.7500 243.2500 325.7500 Du        
   4455 ****       111.7500 243.2500 326.0000 Du        
   4456 ****       111.7500 243.2500 328.0000 Du        
   4457 ****       111.7500 243.2500 328.2500 Du        
   4458 ****       111.7500 243.2500 328.5000 Du        
   4459 ****       111.7500 243.2500 328.7500 Du        
   4460 ****       111.7500 243.2500 329.0000 Du        
   4461 ****       111.7500 243.2500 329.2500 Du        
   4462 ****       111.7500 243.2500 329.5000 Du        
   4463 ****       111.7500 243.2500 329.7500 Du        
   4464 ****       111.7500 243.2500 330.0000 Du        
   4465 ****       111.7500 243.2500 330.2500 Du        
   4466 ****       111.7500 243.5000 328.7500 Du        
   4467 ****       111.7500 243.5000 329.0000 Du        
   4468 ****       111.7500 243.5000 329.2500 Du        
   4469 ****       111.7500 243.5000 329.5000 Du        
   4470 ****       111.7500 243.5000 329.7500 Du        
   4471 ****       111.7500 243.5000 330.0000 Du        
   4472 ****       111.7500 243.5000 330.2500 Du        
   4473 ****       111.7500 243.7500 329.0000 Du        
   4474 ****       111.7500 243.7500 329.2500 Du        
   4475 ****       111.7500 243.7500 329.5000 Du        
   4476 ****       111.7500 243.7500 329.7500 Du        
   4477 ****       111.7500 243.7500 330.0000 Du        
   4478 ****       111.7500 243.7500 330.2500 Du        
   4479 ****       111.7500 244.0000 329.2500 Du        
   4480 ****       111.7500 244.0000 329.5000 Du        
   4481 ****       111.7500 244.0000 329.7500 Du        
   4482 ****       111.7500 244.0000 330.0000 Du        
   4483 ****       111.7500 244.0000 330.2500 Du        
   4484 ****       111.7500 244.2500 329.7500 Du        
   4485 ****       111.7500 244.2500 330.0000 Du        
   4486 ****       111.7500 244.7500 324.2500 Du        
   4487 ****       111.7500 245.0000 324.2500 Du        
   4488 ****       111.7500 245.2500 324.2500 Du        
   4489 ****       111.7500 245.5000 324.2500 Du        
   4490 ****       111.7500 247.2500 325.0000 Du        
   4491 ****       111.7500 247.2500 325.2500 Du        
   4492 ****       111.7500 247.5000 324.7500 Du        
   4493 ****       111.7500 247.5000 325.0000 Du        
   4494 ****       111.7500 247.5000 325.2500 Du        
   4495 ****       111.7500 247.7500 324.7500 Du        
   4496 ****       111.7500 247.7500 325.0000 Du        
   4497 ****       111.7500 247.7500 325.2500 Du        
   4498 ****       111.7500 248.0000 324.7500 Du        
   4499 ****       111.7500 248.0000 325.0000 Du        
   4500 ****       111.7500 248.0000 325.2500 Du        
   4501 ****       111.7500 248.2500 324.5000 Du        
   4502 ****       111.7500 248.2500 324.7500 Du        
   4503 ****       111.7500 248.2500 325.0000 Du        
   4504 ****       111.7500 248.5000 324.5000 Du        
   4505 ****       111.7500 248.5000 324.7500 Du        
   4506 ****       111.7500 248.5000 325.0000 Du        
   4507 ****       111.7500 248.7500 324.5000 Du        
   4508 ****       111.7500 248.7500 324.7500 Du        
   4509 ****       111.7500 249.0000 324.5000 Du        
   4510 ****       112.0000 240.7500 324.7500 Du        
   4511 ****       112.0000 240.7500 325.0000 Du        
   4512 ****       112.0000 241.0000 324.7500 Du        
   4513 ****       112.0000 241.0000 325.0000 Du        
   4514 ****       112.0000 241.0000 325.2500 Du        
   4515 ****       112.0000 241.2500 325.0000 Du        
   4516 ****       112.0000 241.2500 325.2500 Du        
   4517 ****       112.0000 241.2500 325.5000 Du        
   4518 ****       112.0000 241.2500 325.7500 Du        
   4519 ****       112.0000 241.5000 325.0000 Du        
   4520 ****       112.0000 241.5000 325.2500 Du        
   4521 ****       112.0000 241.5000 325.5000 Du        
   4522 ****       112.0000 241.5000 325.7500 Du        
   4523 ****       112.0000 241.5000 326.0000 Du        
   4524 ****       112.0000 241.5000 328.7500 Du        
   4525 ****       112.0000 241.7500 325.0000 Du        
   4526 ****       112.0000 241.7500 325.2500 Du        
   4527 ****       112.0000 241.7500 325.5000 Du        
   4528 ****       112.0000 241.7500 325.7500 Du        
   4529 ****       112.0000 241.7500 326.0000 Du        
   4530 ****       112.0000 241.7500 326.2500 Du        
   4531 ****       112.0000 241.7500 326.5000 Du        
   4532 ****       112.0000 241.7500 326.7500 Du        
   4533 ****       112.0000 241.7500 327.0000 Du        
   4534 ****       112.0000 241.7500 328.0000 Du        
   4535 ****       112.0000 241.7500 328.2500 Du        
   4536 ****       112.0000 241.7500 328.5000 Du        
   4537 ****       112.0000 241.7500 328.7500 Du        
   4538 ****       112.0000 241.7500 329.0000 Du        
   4539 ****       112.0000 242.0000 325.0000 Du        
   4540 ****       112.0000 242.0000 325.2500 Du        
   4541 ****       112.0000 242.0000 325.5000 Du        
   4542 ****       112.0000 242.0000 325.7500 Du        
   4543 ****       112.0000 242.0000 326.0000 Du        
   4544 ****       112.0000 242.0000 326.2500 Du        
   4545 ****       112.0000 242.0000 326.5000 Du        
   4546 ****       112.0000 242.0000 326.7500 Du        
   4547 ****       112.0000 242.0000 327.0000 Du        
   4548 ****       112.0000 242.0000 327.2500 Du        
   4549 ****       112.0000 242.0000 327.5000 Du        
   4550 ****       112.0000 242.0000 327.7500 Du        
   4551 ****       112.0000 242.0000 328.0000 Du        
   4552 ****       112.0000 242.0000 328.2500 Du        
   4553 ****       112.0000 242.0000 328.5000 Du        
   4554 ****       112.0000 242.0000 328.7500 Du        
   4555 ****       112.0000 242.0000 329.0000 Du        
   4556 ****       112.0000 242.0000 329.2500 Du        
   4557 ****       112.0000 242.2500 325.0000 Du        
   4558 ****       112.0000 242.2500 325.2500 Du        
   4559 ****       112.0000 242.2500 325.5000 Du        
   4560 ****       112.0000 242.2500 325.7500 Du        
   4561 ****       112.0000 242.2500 326.0000 Du        
   4562 ****       112.0000 242.2500 326.2500 Du        
   4563 ****       112.0000 242.2500 326.5000 Du        
   4564 ****       112.0000 242.2500 326.7500 Du        
   4565 ****       112.0000 242.2500 327.0000 Du        
   4566 ****       112.0000 242.2500 327.2500 Du        
   4567 ****       112.0000 242.2500 327.5000 Du        
   4568 ****       112.0000 242.2500 327.7500 Du        
   4569 ****       112.0000 242.2500 328.0000 Du        
   4570 ****       112.0000 242.2500 328.2500 Du        
   4571 ****       112.0000 242.2500 328.5000 Du        
   4572 ****       112.0000 242.2500 328.7500 Du        
   4573 ****       112.0000 242.2500 329.0000 Du        
   4574 ****       112.0000 242.2500 329.2500 Du        
   4575 ****       112.0000 242.2500 329.5000 Du        
   4576 ****       112.0000 242.5000 325.0000 Du        
   4577 ****       112.0000 242.5000 325.2500 Du        
   4578 ****       112.0000 242.5000 325.5000 Du        
   4579 ****       112.0000 242.5000 325.7500 Du        
   4580 ****       112.0000 242.5000 326.0000 Du        
   4581 ****       112.0000 242.5000 326.2500 Du        
   4582 ****       112.0000 242.5000 326.5000 Du        
   4583 ****       112.0000 242.5000 326.7500 Du        
   4584 ****       112.0000 242.5000 327.0000 Du        
   4585 ****       112.0000 242.5000 327.2500 Du        
   4586 ****       112.0000 242.5000 327.5000 Du        
   4587 ****       112.0000 242.5000 327.7500 Du        
   4588 ****       112.0000 242.5000 328.0000 Du        
   4589 ****       112.0000 242.5000 328.2500 Du        
   4590 ****       112.0000 242.5000 328.5000 Du        
   4591 ****       112.0000 242.5000 328.7500 Du        
   4592 ****       112.0000 242.5000 329.0000 Du        
   4593 ****       112.0000 242.5000 329.2500 Du        
   4594 ****       112.0000 242.5000 329.5000 Du        
   4595 ****       112.0000 242.5000 329.7500 Du        
   4596 ****       112.0000 242.7500 325.0000 Du        
   4597 ****       112.0000 242.7500 325.2500 Du        
   4598 ****       112.0000 242.7500 325.5000 Du        
   4599 ****       112.0000 242.7500 325.7500 Du        
   4600 ****       112.0000 242.7500 326.0000 Du        
   4601 ****       112.0000 242.7500 326.2500 Du        
   4602 ****       112.0000 242.7500 326.5000 Du        
   4603 ****       112.0000 242.7500 326.7500 Du        
   4604 ****       112.0000 242.7500 327.0000 Du        
   4605 ****       112.0000 242.7500 327.2500 Du        
   4606 ****       112.0000 242.7500 327.5000 Du        
   4607 ****       112.0000 242.7500 327.7500 Du        
   4608 ****       112.0000 242.7500 328.0000 Du        
   4609 ****       112.0000 242.7500 328.2500 Du        
   4610 ****       112.0000 242.7500 328.5000 Du        
   4611 ****       112.0000 242.7500 328.7500 Du        
   4612 ****       112.0000 242.7500 329.0000 Du        
   4613 ****       112.0000 242.7500 329.2500 Du        
   4614 ****       112.0000 242.7500 329.5000 Du        
   4615 ****       112.0000 242.7500 329.7500 Du        
   4616 ****       112.0000 242.7500 330.0000 Du        
   4617 ****       112.0000 243.0000 325.0000 Du        
   4618 ****       112.0000 243.0000 325.2500 Du        
   4619 ****       112.0000 243.0000 325.5000 Du        
   4620 ****       112.0000 243.0000 325.7500 Du        
   4621 ****       112.0000 243.0000 326.0000 Du        
   4622 ****       112.0000 243.0000 326.2500 Du        
   4623 ****       112.0000 243.0000 326.5000 Du        
   4624 ****       112.0000 243.0000 326.7500 Du        
   4625 ****       112.0000 243.0000 327.0000 Du        
   4626 ****       112.0000 243.0000 327.2500 Du        
   4627 ****       112.0000 243.0000 327.7500 Du        
   4628 ****       112.0000 243.0000 328.0000 Du        
   4629 ****       112.0000 243.0000 328.2500 Du        
   4630 ****       112.0000 243.0000 328.5000 Du        
   4631 ****       112.0000 243.0000 328.7500 Du        
   4632 ****       112.0000 243.0000 329.0000 Du        
   4633 ****       112.0000 243.0000 329.2500 Du        
   4634 ****       112.0000 243.0000 329.5000 Du        
   4635 ****       112.0000 243.0000 329.7500 Du        
   4636 ****       112.0000 243.0000 330.0000 Du        
   4637 ****       112.0000 243.0000 330.2500 Du        
   4638 ****       112.0000 243.2500 324.7500 Du        
   4639 ****       112.0000 243.2500 325.0000 Du        
   4640 ****       112.0000 243.2500 325.2500 Du        
   4641 ****       112.0000 243.2500 325.5000 Du        
   4642 ****       112.0000 243.2500 325.7500 Du        
   4643 ****       112.0000 243.2500 326.0000 Du        
   4644 ****       112.0000 243.2500 326.2500 Du        
   4645 ****       112.0000 243.2500 328.0000 Du        
   4646 ****       112.0000 243.2500 328.2500 Du        
   4647 ****       112.0000 243.2500 328.5000 Du        
   4648 ****       112.0000 243.2500 328.7500 Du        
   4649 ****       112.0000 243.2500 329.0000 Du        
   4650 ****       112.0000 243.2500 329.2500 Du        
   4651 ****       112.0000 243.2500 329.5000 Du        
   4652 ****       112.0000 243.2500 329.7500 Du        
   4653 ****       112.0000 243.2500 330.0000 Du        
   4654 ****       112.0000 243.2500 330.2500 Du        
   4655 ****       112.0000 243.5000 328.5000 Du        
   4656 ****       112.0000 243.5000 328.7500 Du        
   4657 ****       112.0000 243.5000 329.0000 Du        
   4658 ****       112.0000 243.5000 329.2500 Du        
   4659 ****       112.0000 243.5000 329.5000 Du        
   4660 ****       112.0000 243.5000 329.7500 Du        
   4661 ****       112.0000 243.5000 330.0000 Du        
   4662 ****       112.0000 243.5000 330.2500 Du        
   4663 ****       112.0000 243.7500 329.0000 Du        
   4664 ****       112.0000 243.7500 329.2500 Du        
   4665 ****       112.0000 243.7500 329.5000 Du        
   4666 ****       112.0000 243.7500 329.7500 Du        
   4667 ****       112.0000 243.7500 330.0000 Du        
   4668 ****       112.0000 243.7500 330.2500 Du        
   4669 ****       112.0000 244.0000 329.7500 Du        
   4670 ****       112.0000 244.0000 330.0000 Du        
   4671 ****       112.0000 244.0000 330.2500 Du        
   4672 ****       112.0000 244.7500 324.2500 Du        
   4673 ****       112.0000 245.0000 324.2500 Du        
   4674 ****       112.0000 247.0000 325.2500 Du        
   4675 ****       112.0000 247.2500 325.2500 Du        
   4676 ****       112.0000 247.5000 325.0000 Du        
   4677 ****       112.0000 247.5000 325.2500 Du        
   4678 ****       112.0000 247.7500 324.7500 Du        
   4679 ****       112.0000 247.7500 325.0000 Du        
   4680 ****       112.0000 247.7500 325.2500 Du        
   4681 ****       112.0000 248.0000 324.7500 Du        
   4682 ****       112.0000 248.0000 325.0000 Du        
   4683 ****       112.0000 248.0000 325.2500 Du        
   4684 ****       112.0000 248.2500 324.7500 Du        
   4685 ****       112.0000 248.2500 325.0000 Du        
   4686 ****       112.0000 248.5000 324.7500 Du        
   4687 ****       112.0000 248.7500 324.7500 Du        
   4688 ****       112.2500 240.5000 324.7500 Du        
   4689 ****       112.2500 240.7500 324.7500 Du        
   4690 ****       112.2500 240.7500 325.0000 Du        
   4691 ****       112.2500 240.7500 325.2500 Du        
   4692 ****       112.2500 241.0000 324.7500 Du        
   4693 ****       112.2500 241.0000 325.0000 Du        
   4694 ****       112.2500 241.0000 325.2500 Du        
   4695 ****       112.2500 241.0000 325.5000 Du        
   4696 ****       112.2500 241.2500 324.7500 Du        
   4697 ****       112.2500 241.2500 325.0000 Du        
   4698 ****       112.2500 241.2500 325.2500 Du        
   4699 ****       112.2500 241.2500 325.5000 Du        
   4700 ****       112.2500 241.2500 325.7500 Du        
   4701 ****       112.2500 241.5000 325.0000 Du        
   4702 ****       112.2500 241.5000 325.2500 Du        
   4703 ****       112.2500 241.5000 325.5000 Du        
   4704 ****       112.2500 241.5000 325.7500 Du        
   4705 ****       112.2500 241.5000 326.0000 Du        
   4706 ****       112.2500 241.5000 326.2500 Du        
   4707 ****       112.2500 241.5000 328.2500 Du        
   4708 ****       112.2500 241.5000 328.5000 Du        
   4709 ****       112.2500 241.5000 328.7500 Du        
   4710 ****       112.2500 241.7500 325.0000 Du        
   4711 ****       112.2500 241.7500 325.2500 Du        
   4712 ****       112.2500 241.7500 325.5000 Du        
   4713 ****       112.2500 241.7500 325.7500 Du        
   4714 ****       112.2500 241.7500 326.0000 Du        
   4715 ****       112.2500 241.7500 326.2500 Du        
   4716 ****       112.2500 241.7500 326.5000 Du        
   4717 ****       112.2500 241.7500 326.7500 Du        
   4718 ****       112.2500 241.7500 327.0000 Du        
   4719 ****       112.2500 241.7500 327.2500 Du        
   4720 ****       112.2500 241.7500 327.5000 Du        
   4721 ****       112.2500 241.7500 327.7500 Du        
   4722 ****       112.2500 241.7500 328.0000 Du        
   4723 ****       112.2500 241.7500 328.2500 Du        
   4724 ****       112.2500 241.7500 328.5000 Du        
   4725 ****       112.2500 241.7500 328.7500 Du        
   4726 ****       112.2500 241.7500 329.0000 Du        
   4727 ****       112.2500 242.0000 325.0000 Du        
   4728 ****       112.2500 242.0000 325.2500 Du        
   4729 ****       112.2500 242.0000 325.5000 Du        
   4730 ****       112.2500 242.0000 325.7500 Du        
   4731 ****       112.2500 242.0000 326.0000 Du        
   4732 ****       112.2500 242.0000 326.2500 Du        
   4733 ****       112.2500 242.0000 326.5000 Du        
   4734 ****       112.2500 242.0000 326.7500 Du        
   4735 ****       112.2500 242.0000 327.0000 Du        
   4736 ****       112.2500 242.0000 327.2500 Du        
   4737 ****       112.2500 242.0000 327.5000 Du        
   4738 ****       112.2500 242.0000 327.7500 Du        
   4739 ****       112.2500 242.0000 328.0000 Du        
   4740 ****       112.2500 242.0000 328.2500 Du        
   4741 ****       112.2500 242.0000 328.5000 Du        
   4742 ****       112.2500 242.0000 328.7500 Du        
   4743 ****       112.2500 242.0000 329.0000 Du        
   4744 ****       112.2500 242.0000 329.2500 Du        
   4745 ****       112.2500 242.2500 325.0000 Du        
   4746 ****       112.2500 242.2500 325.2500 Du        
   4747 ****       112.2500 242.2500 325.5000 Du        
   4748 ****       112.2500 242.2500 325.7500 Du        
   4749 ****       112.2500 242.2500 326.0000 Du        
   4750 ****       112.2500 242.2500 326.2500 Du        
   4751 ****       112.2500 242.2500 326.5000 Du        
   4752 ****       112.2500 242.2500 326.7500 Du        
   4753 ****       112.2500 242.2500 327.0000 Du        
   4754 ****       112.2500 242.2500 327.2500 Du        
   4755 ****       112.2500 242.2500 327.5000 Du        
   4756 ****       112.2500 242.2500 327.7500 Du        
   4757 ****       112.2500 242.2500 328.0000 Du        
   4758 ****       112.2500 242.2500 328.2500 Du        
   4759 ****       112.2500 242.2500 328.5000 Du        
   4760 ****       112.2500 242.2500 328.7500 Du        
   4761 ****       112.2500 242.2500 329.0000 Du        
   4762 ****       112.2500 242.2500 329.2500 Du        
   4763 ****       112.2500 242.2500 329.5000 Du        
   4764 ****       112.2500 242.5000 325.0000 Du        
   4765 ****       112.2500 242.5000 325.2500 Du        
   4766 ****       112.2500 242.5000 325.5000 Du        
   4767 ****       112.2500 242.5000 325.7500 Du        
   4768 ****       112.2500 242.5000 326.0000 Du        
   4769 ****       112.2500 242.5000 326.2500 Du        
   4770 ****       112.2500 242.5000 326.5000 Du        
   4771 ****       112.2500 242.5000 326.7500 Du        
   4772 ****       112.2500 242.5000 327.0000 Du        
   4773 ****       112.2500 242.5000 327.2500 Du        
   4774 ****       112.2500 242.5000 327.5000 Du        
   4775 ****       112.2500 242.5000 327.7500 Du        
   4776 ****       112.2500 242.5000 328.0000 Du        
   4777 ****       112.2500 242.5000 328.2500 Du        
   4778 ****       112.2500 242.5000 328.5000 Du        
   4779 ****       112.2500 242.5000 328.7500 Du        
   4780 ****       112.2500 242.5000 329.0000 Du        
   4781 ****       112.2500 242.5000 329.2500 Du        
   4782 ****       112.2500 242.5000 329.5000 Du        
   4783 ****       112.2500 242.5000 329.7500 Du        
   4784 ****       112.2500 242.7500 325.0000 Du        
   4785 ****       112.2500 242.7500 325.2500 Du        
   4786 ****       112.2500 242.7500 325.5000 Du        
   4787 ****       112.2500 242.7500 325.7500 Du        
   4788 ****       112.2500 242.7500 326.0000 Du        
   4789 ****       112.2500 242.7500 326.2500 Du        
   4790 ****       112.2500 242.7500 326.5000 Du        
   4791 ****       112.2500 242.7500 326.7500 Du        
   4792 ****       112.2500 242.7500 327.0000 Du        
   4793 ****       112.2500 242.7500 327.2500 Du        
   4794 ****       112.2500 242.7500 327.5000 Du        
   4795 ****       112.2500 242.7500 327.7500 Du        
   4796 ****       112.2500 242.7500 328.0000 Du        
   4797 ****       112.2500 242.7500 328.2500 Du        
   4798 ****       112.2500 242.7500 328.5000 Du        
   4799 ****       112.2500 242.7500 328.7500 Du        
   4800 ****       112.2500 242.7500 329.0000 Du        
   4801 ****       112.2500 242.7500 329.2500 Du        
   4802 ****       112.2500 242.7500 329.5000 Du        
   4803 ****       112.2500 242.7500 329.7500 Du        
   4804 ****       112.2500 242.7500 330.0000 Du        
   4805 ****       112.2500 243.0000 325.0000 Du        
   4806 ****       112.2500 243.0000 325.2500 Du        
   4807 ****       112.2500 243.0000 325.5000 Du        
   4808 ****       112.2500 243.0000 325.7500 Du        
   4809 ****       112.2500 243.0000 326.0000 Du        
   4810 ****       112.2500 243.0000 326.2500 Du        
   4811 ****       112.2500 243.0000 326.5000 Du        
   4812 ****       112.2500 243.0000 326.7500 Du        
   4813 ****       112.2500 243.0000 327.0000 Du        
   4814 ****       112.2500 243.0000 327.2500 Du        
   4815 ****       112.2500 243.0000 327.5000 Du        
   4816 ****       112.2500 243.0000 327.7500 Du        
   4817 ****       112.2500 243.0000 328.0000 Du        
   4818 ****       112.2500 243.0000 328.2500 Du        
   4819 ****       112.2500 243.0000 328.5000 Du        
   4820 ****       112.2500 243.0000 328.7500 Du        
   4821 ****       112.2500 243.0000 329.0000 Du        
   4822 ****       112.2500 243.0000 329.2500 Du        
   4823 ****       112.2500 243.0000 329.5000 Du        
   4824 ****       112.2500 243.0000 329.7500 Du        
   4825 ****       112.2500 243.0000 330.0000 Du        
   4826 ****       112.2500 243.0000 330.2500 Du        
   4827 ****       112.2500 243.2500 325.0000 Du        
   4828 ****       112.2500 243.2500 325.2500 Du        
   4829 ****       112.2500 243.2500 325.5000 Du        
   4830 ****       112.2500 243.2500 325.7500 Du        
   4831 ****       112.2500 243.2500 326.0000 Du        
   4832 ****       112.2500 243.2500 326.5000 Du        
   4833 ****       112.2500 243.2500 327.7500 Du        
   4834 ****       112.2500 243.2500 328.0000 Du        
   4835 ****       112.2500 243.2500 328.2500 Du        
   4836 ****       112.2500 243.2500 328.5000 Du        
   4837 ****       112.2500 243.2500 328.7500 Du        
   4838 ****       112.2500 243.2500 329.0000 Du        
   4839 ****       112.2500 243.2500 329.2500 Du        
   4840 ****       112.2500 243.2500 329.5000 Du        
   4841 ****       112.2500 243.2500 329.7500 Du        
   4842 ****       112.2500 243.2500 330.0000 Du        
   4843 ****       112.2500 243.2500 330.2500 Du        
   4844 ****       112.2500 243.5000 328.5000 Du        
   4845 ****       112.2500 243.5000 328.7500 Du        
   4846 ****       112.2500 243.5000 329.0000 Du        
   4847 ****       112.2500 243.5000 329.2500 Du        
   4848 ****       112.2500 243.5000 329.5000 Du        
   4849 ****       112.2500 243.5000 329.7500 Du        
   4850 ****       112.2500 243.5000 330.0000 Du        
   4851 ****       112.2500 243.5000 330.2500 Du        
   4852 ****       112.2500 243.7500 329.2500 Du        
   4853 ****       112.2500 243.7500 329.5000 Du        
   4854 ****       112.2500 243.7500 329.7500 Du        
   4855 ****       112.2500 243.7500 330.0000 Du        
   4856 ****       112.2500 243.7500 330.2500 Du        
   4857 ****       112.2500 244.0000 330.0000 Du        
   4858 ****       112.2500 247.5000 325.0000 Du        
   4859 ****       112.2500 247.5000 325.2500 Du        
   4860 ****       112.2500 247.5000 325.5000 Du        
   4861 ****       112.2500 247.7500 325.0000 Du        
   4862 ****       112.2500 247.7500 325.2500 Du        
   4863 ****       112.2500 248.0000 325.0000 Du        
   4864 ****       112.2500 248.2500 324.7500 Du        
   4865 ****       112.5000 240.5000 324.7500 Du        
   4866 ****       112.5000 240.5000 325.0000 Du        
   4867 ****       112.5000 240.7500 324.7500 Du        
   4868 ****       112.5000 240.7500 325.0000 Du        
   4869 ****       112.5000 240.7500 325.2500 Du        
   4870 ****       112.5000 241.0000 324.7500 Du        
   4871 ****       112.5000 241.0000 325.0000 Du        
   4872 ****       112.5000 241.0000 325.2500 Du        
   4873 ****       112.5000 241.0000 325.5000 Du        
   4874 ****       112.5000 241.0000 325.7500 Du        
   4875 ****       112.5000 241.2500 324.7500 Du        
   4876 ****       112.5000 241.2500 325.0000 Du        
   4877 ****       112.5000 241.2500 325.2500 Du        
   4878 ****       112.5000 241.2500 325.5000 Du        
   4879 ****       112.5000 241.2500 325.7500 Du        
   4880 ****       112.5000 241.2500 326.0000 Du        
   4881 ****       112.5000 241.5000 324.7500 Du        
   4882 ****       112.5000 241.5000 325.0000 Du        
   4883 ****       112.5000 241.5000 325.2500 Du        
   4884 ****       112.5000 241.5000 325.5000 Du        
   4885 ****       112.5000 241.5000 325.7500 Du        
   4886 ****       112.5000 241.5000 326.0000 Du        
   4887 ****       112.5000 241.5000 326.2500 Du        
   4888 ****       112.5000 241.5000 326.5000 Du        
   4889 ****       112.5000 241.5000 326.7500 Du        
   4890 ****       112.5000 241.5000 327.0000 Du        
   4891 ****       112.5000 241.5000 327.7500 Du        
   4892 ****       112.5000 241.5000 328.0000 Du        
   4893 ****       112.5000 241.5000 328.2500 Du        
   4894 ****       112.5000 241.5000 328.5000 Du        
   4895 ****       112.5000 241.5000 328.7500 Du        
   4896 ****       112.5000 241.7500 325.0000 Du        
   4897 ****       112.5000 241.7500 325.2500 Du        
   4898 ****       112.5000 241.7500 325.5000 Du        
   4899 ****       112.5000 241.7500 325.7500 Du        
   4900 ****       112.5000 241.7500 326.0000 Du        
   4901 ****       112.5000 241.7500 326.2500 Du        
   4902 ****       112.5000 241.7500 326.5000 Du        
   4903 ****       112.5000 241.7500 326.7500 Du        
   4904 ****       112.5000 241.7500 327.0000 Du        
   4905 ****       112.5000 241.7500 327.2500 Du        
   4906 ****       112.5000 241.7500 327.5000 Du        
   4907 ****       112.5000 241.7500 327.7500 Du        
   4908 ****       112.5000 241.7500 328.0000 Du        
   4909 ****       112.5000 241.7500 328.2500 Du        
   4910 ****       112.5000 241.7500 328.5000 Du        
   4911 ****       112.5000 241.7500 328.7500 Du        
   4912 ****       112.5000 241.7500 329.0000 Du        
   4913 ****       112.5000 242.0000 325.0000 Du        
   4914 ****       112.5000 242.0000 325.2500 Du        
   4915 ****       112.5000 242.0000 325.5000 Du        
   4916 ****       112.5000 242.0000 325.7500 Du        
   4917 ****       112.5000 242.0000 326.0000 Du        
   4918 ****       112.5000 242.0000 326.2500 Du        
   4919 ****       112.5000 242.0000 326.5000 Du        
   4920 ****       112.5000 242.0000 326.7500 Du        
   4921 ****       112.5000 242.0000 327.0000 Du        
   4922 ****       112.5000 242.0000 327.2500 Du        
   4923 ****       112.5000 242.0000 327.5000 Du        
   4924 ****       112.5000 242.0000 327.7500 Du        
   4925 ****       112.5000 242.0000 328.0000 Du        
   4926 ****       112.5000 242.0000 328.2500 Du        
   4927 ****       112.5000 242.0000 328.5000 Du        
   4928 ****       112.5000 242.0000 328.7500 Du        
   4929 ****       112.5000 242.0000 329.0000 Du        
   4930 ****       112.5000 242.0000 329.2500 Du        
   4931 ****       112.5000 242.2500 325.0000 Du        
   4932 ****       112.5000 242.2500 325.2500 Du        
   4933 ****       112.5000 242.2500 325.5000 Du        
   4934 ****       112.5000 242.2500 325.7500 Du        
   4935 ****       112.5000 242.2500 326.0000 Du        
   4936 ****       112.5000 242.2500 326.2500 Du        
   4937 ****       112.5000 242.2500 326.5000 Du        
   4938 ****       112.5000 242.2500 326.7500 Du        
   4939 ****       112.5000 242.2500 327.0000 Du        
   4940 ****       112.5000 242.2500 327.2500 Du        
   4941 ****       112.5000 242.2500 327.5000 Du        
   4942 ****       112.5000 242.2500 327.7500 Du        
   4943 ****       112.5000 242.2500 328.0000 Du        
   4944 ****       112.5000 242.2500 328.2500 Du        
   4945 ****       112.5000 242.2500 328.5000 Du        
   4946 ****       112.5000 242.2500 328.7500 Du        
   4947 ****       112.5000 242.2500 329.0000 Du        
   4948 ****       112.5000 242.2500 329.2500 Du        
   4949 ****       112.5000 242.2500 329.5000 Du        
   4950 ****       112.5000 242.5000 325.0000 Du        
   4951 ****       112.5000 242.5000 325.2500 Du        
   4952 ****       112.5000 242.5000 325.5000 Du        
   4953 ****       112.5000 242.5000 325.7500 Du        
   4954 ****       112.5000 242.5000 326.0000 Du        
   4955 ****       112.5000 242.5000 326.2500 Du        
   4956 ****       112.5000 242.5000 326.5000 Du        
   4957 ****       112.5000 242.5000 326.7500 Du        
   4958 ****       112.5000 242.5000 327.0000 Du        
   4959 ****       112.5000 242.5000 327.2500 Du        
   4960 ****       112.5000 242.5000 327.5000 Du        
   4961 ****       112.5000 242.5000 327.7500 Du        
   4962 ****       112.5000 242.5000 328.0000 Du        
   4963 ****       112.5000 242.5000 328.2500 Du        
   4964 ****       112.5000 242.5000 328.5000 Du        
   4965 ****       112.5000 242.5000 328.7500 Du        
   4966 ****       112.5000 242.5000 329.0000 Du        
   4967 ****       112.5000 242.5000 329.2500 Du        
   4968 ****       112.5000 242.5000 329.5000 Du        
   4969 ****       112.5000 242.5000 329.7500 Du        
   4970 ****       112.5000 242.7500 325.0000 Du        
   4971 ****       112.5000 242.7500 325.2500 Du        
   4972 ****       112.5000 242.7500 325.5000 Du        
   4973 ****       112.5000 242.7500 325.7500 Du        
   4974 ****       112.5000 242.7500 326.0000 Du        
   4975 ****       112.5000 242.7500 326.2500 Du        
   4976 ****       112.5000 242.7500 326.5000 Du        
   4977 ****       112.5000 242.7500 326.7500 Du        
   4978 ****       112.5000 242.7500 327.0000 Du        
   4979 ****       112.5000 242.7500 327.2500 Du        
   4980 ****       112.5000 242.7500 327.5000 Du        
   4981 ****       112.5000 242.7500 327.7500 Du        
   4982 ****       112.5000 242.7500 328.0000 Du        
   4983 ****       112.5000 242.7500 328.2500 Du        
   4984 ****       112.5000 242.7500 328.5000 Du        
   4985 ****       112.5000 242.7500 328.7500 Du        
   4986 ****       112.5000 242.7500 329.0000 Du        
   4987 ****       112.5000 242.7500 329.2500 Du        
   4988 ****       112.5000 242.7500 329.5000 Du        
   4989 ****       112.5000 242.7500 329.7500 Du        
   4990 ****       112.5000 242.7500 330.0000 Du        
   4991 ****       112.5000 243.0000 325.0000 Du        
   4992 ****       112.5000 243.0000 325.2500 Du        
   4993 ****       112.5000 243.0000 325.5000 Du        
   4994 ****       112.5000 243.0000 325.7500 Du        
   4995 ****       112.5000 243.0000 326.0000 Du        
   4996 ****       112.5000 243.0000 326.2500 Du        
   4997 ****       112.5000 243.0000 326.5000 Du        
   4998 ****       112.5000 243.0000 326.7500 Du        
   4999 ****       112.5000 243.0000 327.0000 Du        
   5000 ****       112.5000 243.0000 327.2500 Du        
   5001 ****       112.5000 243.0000 327.7500 Du        
   5002 ****       112.5000 243.0000 328.0000 Du        
   5003 ****       112.5000 243.0000 328.2500 Du        
   5004 ****       112.5000 243.0000 328.5000 Du        
   5005 ****       112.5000 243.0000 328.7500 Du        
   5006 ****       112.5000 243.0000 329.0000 Du        
   5007 ****       112.5000 243.0000 329.2500 Du        
   5008 ****       112.5000 243.0000 329.5000 Du        
   5009 ****       112.5000 243.0000 329.7500 Du        
   5010 ****       112.5000 243.0000 330.0000 Du        
   5011 ****       112.5000 243.0000 330.2500 Du        
   5012 ****       112.5000 243.2500 325.0000 Du        
   5013 ****       112.5000 243.2500 325.2500 Du        
   5014 ****       112.5000 243.2500 325.5000 Du        
   5015 ****       112.5000 243.2500 325.7500 Du        
   5016 ****       112.5000 243.2500 326.0000 Du        
   5017 ****       112.5000 243.2500 326.2500 Du        
   5018 ****       112.5000 243.2500 326.7500 Du        
   5019 ****       112.5000 243.2500 327.0000 Du        
   5020 ****       112.5000 243.2500 327.2500 Du        
   5021 ****       112.5000 243.2500 327.7500 Du        
   5022 ****       112.5000 243.2500 328.0000 Du        
   5023 ****       112.5000 243.2500 328.2500 Du        
   5024 ****       112.5000 243.2500 328.5000 Du        
   5025 ****       112.5000 243.2500 328.7500 Du        
   5026 ****       112.5000 243.2500 329.0000 Du        
   5027 ****       112.5000 243.2500 329.2500 Du        
   5028 ****       112.5000 243.2500 329.5000 Du        
   5029 ****       112.5000 243.2500 329.7500 Du        
   5030 ****       112.5000 243.2500 330.0000 Du        
   5031 ****       112.5000 243.2500 330.2500 Du        
   5032 ****       112.5000 243.5000 328.7500 Du        
   5033 ****       112.5000 243.5000 329.0000 Du        
   5034 ****       112.5000 243.5000 329.2500 Du        
   5035 ****       112.5000 243.5000 329.5000 Du        
   5036 ****       112.5000 243.5000 329.7500 Du        
   5037 ****       112.5000 243.5000 330.0000 Du        
   5038 ****       112.5000 243.5000 330.2500 Du        
   5039 ****       112.5000 243.7500 329.7500 Du        
   5040 ****       112.5000 243.7500 330.0000 Du        
   5041 ****       112.5000 247.0000 325.2500 Du        
   5042 ****       112.5000 247.2500 325.2500 Du        
   5043 ****       112.5000 247.2500 325.5000 Du        
   5044 ****       112.5000 247.5000 325.2500 Du        
   5045 ****       112.5000 247.5000 325.5000 Du        
   5046 ****       112.5000 247.7500 325.2500 Du        
   5047 ****       112.7500 240.5000 324.7500 Du        
   5048 ****       112.7500 240.5000 325.0000 Du        
   5049 ****       112.7500 240.7500 324.7500 Du        
   5050 ****       112.7500 240.7500 325.0000 Du        
   5051 ****       112.7500 240.7500 325.2500 Du        
   5052 ****       112.7500 240.7500 325.5000 Du        
   5053 ****       112.7500 241.0000 324.7500 Du        
   5054 ****       112.7500 241.0000 325.0000 Du        
   5055 ****       112.7500 241.0000 325.2500 Du        
   5056 ****       112.7500 241.0000 325.5000 Du        
   5057 ****       112.7500 241.0000 325.7500 Du        
   5058 ****       112.7500 241.2500 324.7500 Du        
   5059 ****       112.7500 241.2500 325.0000 Du        
   5060 ****       112.7500 241.2500 325.2500 Du        
   5061 ****       112.7500 241.2500 325.5000 Du        
   5062 ****       112.7500 241.2500 325.7500 Du        
   5063 ****       112.7500 241.2500 326.0000 Du        
   5064 ****       112.7500 241.2500 326.2500 Du        
   5065 ****       112.7500 241.2500 328.0000 Du        
   5066 ****       112.7500 241.2500 328.2500 Du        
   5067 ****       112.7500 241.2500 328.5000 Du        
   5068 ****       112.7500 241.5000 324.7500 Du        
   5069 ****       112.7500 241.5000 325.0000 Du        
   5070 ****       112.7500 241.5000 325.2500 Du        
   5071 ****       112.7500 241.5000 325.5000 Du        
   5072 ****       112.7500 241.5000 325.7500 Du        
   5073 ****       112.7500 241.5000 326.0000 Du        
   5074 ****       112.7500 241.5000 326.2500 Du        
   5075 ****       112.7500 241.5000 326.5000 Du        
   5076 ****       112.7500 241.5000 326.7500 Du        
   5077 ****       112.7500 241.5000 327.0000 Du        
   5078 ****       112.7500 241.5000 327.2500 Du        
   5079 ****       112.7500 241.5000 327.5000 Du        
   5080 ****       112.7500 241.5000 327.7500 Du        
   5081 ****       112.7500 241.5000 328.0000 Du        
   5082 ****       112.7500 241.5000 328.2500 Du        
   5083 ****       112.7500 241.5000 328.5000 Du        
   5084 ****       112.7500 241.5000 328.7500 Du        
   5085 ****       112.7500 241.7500 324.7500 Du        
   5086 ****       112.7500 241.7500 325.0000 Du        
   5087 ****       112.7500 241.7500 325.2500 Du        
   5088 ****       112.7500 241.7500 325.5000 Du        
   5089 ****       112.7500 241.7500 325.7500 Du        
   5090 ****       112.7500 241.7500 326.0000 Du        
   5091 ****       112.7500 241.7500 326.2500 Du        
   5092 ****       112.7500 241.7500 326.5000 Du        
   5093 ****       112.7500 241.7500 326.7500 Du        
   5094 ****       112.7500 241.7500 327.0000 Du        
   5095 ****       112.7500 241.7500 327.2500 Du        
   5096 ****       112.7500 241.7500 327.5000 Du        
   5097 ****       112.7500 241.7500 327.7500 Du        
   5098 ****       112.7500 241.7500 328.0000 Du        
   5099 ****       112.7500 241.7500 328.2500 Du        
   5100 ****       112.7500 241.7500 328.5000 Du        
   5101 ****       112.7500 241.7500 328.7500 Du        
   5102 ****       112.7500 241.7500 329.0000 Du        
   5103 ****       112.7500 242.0000 324.7500 Du        
   5104 ****       112.7500 242.0000 325.0000 Du        
   5105 ****       112.7500 242.0000 325.2500 Du        
   5106 ****       112.7500 242.0000 325.5000 Du        
   5107 ****       112.7500 242.0000 325.7500 Du        
   5108 ****       112.7500 242.0000 326.0000 Du        
   5109 ****       112.7500 242.0000 326.2500 Du        
   5110 ****       112.7500 242.0000 326.5000 Du        
   5111 ****       112.7500 242.0000 326.7500 Du        
   5112 ****       112.7500 242.0000 327.0000 Du        
   5113 ****       112.7500 242.0000 327.2500 Du        
   5114 ****       112.7500 242.0000 327.5000 Du        
   5115 ****       112.7500 242.0000 327.7500 Du        
   5116 ****       112.7500 242.0000 328.0000 Du        
   5117 ****       112.7500 242.0000 328.2500 Du        
   5118 ****       112.7500 242.0000 328.5000 Du        
   5119 ****       112.7500 242.0000 328.7500 Du        
   5120 ****       112.7500 242.0000 329.0000 Du        
   5121 ****       112.7500 242.0000 329.2500 Du        
   5122 ****       112.7500 242.2500 324.7500 Du        
   5123 ****       112.7500 242.2500 325.0000 Du        
   5124 ****       112.7500 242.2500 325.2500 Du        
   5125 ****       112.7500 242.2500 325.5000 Du        
   5126 ****       112.7500 242.2500 325.7500 Du        
   5127 ****       112.7500 242.2500 326.0000 Du        
   5128 ****       112.7500 242.2500 326.2500 Du        
   5129 ****       112.7500 242.2500 326.5000 Du        
   5130 ****       112.7500 242.2500 326.7500 Du        
   5131 ****       112.7500 242.2500 327.0000 Du        
   5132 ****       112.7500 242.2500 327.2500 Du        
   5133 ****       112.7500 242.2500 327.5000 Du        
   5134 ****       112.7500 242.2500 327.7500 Du        
   5135 ****       112.7500 242.2500 328.0000 Du        
   5136 ****       112.7500 242.2500 328.2500 Du        
   5137 ****       112.7500 242.2500 328.5000 Du        
   5138 ****       112.7500 242.2500 328.7500 Du        
   5139 ****       112.7500 242.2500 329.0000 Du        
   5140 ****       112.7500 242.2500 329.2500 Du        
   5141 ****       112.7500 242.2500 329.5000 Du        
   5142 ****       112.7500 242.5000 325.0000 Du        
   5143 ****       112.7500 242.5000 325.2500 Du        
   5144 ****       112.7500 242.5000 325.5000 Du        
   5145 ****       112.7500 242.5000 325.7500 Du        
   5146 ****       112.7500 242.5000 326.0000 Du        
   5147 ****       112.7500 242.5000 326.2500 Du        
   5148 ****       112.7500 242.5000 326.5000 Du        
   5149 ****       112.7500 242.5000 326.7500 Du        
   5150 ****       112.7500 242.5000 327.0000 Du        
   5151 ****       112.7500 242.5000 327.2500 Du        
   5152 ****       112.7500 242.5000 327.5000 Du        
   5153 ****       112.7500 242.5000 327.7500 Du        
   5154 ****       112.7500 242.5000 328.0000 Du        
   5155 ****       112.7500 242.5000 328.2500 Du        
   5156 ****       112.7500 242.5000 328.5000 Du        
   5157 ****       112.7500 242.5000 328.7500 Du        
   5158 ****       112.7500 242.5000 329.0000 Du        
   5159 ****       112.7500 242.5000 329.2500 Du        
   5160 ****       112.7500 242.5000 329.5000 Du        
   5161 ****       112.7500 242.5000 329.7500 Du        
   5162 ****       112.7500 242.7500 325.0000 Du        
   5163 ****       112.7500 242.7500 325.2500 Du        
   5164 ****       112.7500 242.7500 325.5000 Du        
   5165 ****       112.7500 242.7500 325.7500 Du        
   5166 ****       112.7500 242.7500 326.0000 Du        
   5167 ****       112.7500 242.7500 326.2500 Du        
   5168 ****       112.7500 242.7500 326.5000 Du        
   5169 ****       112.7500 242.7500 326.7500 Du        
   5170 ****       112.7500 242.7500 327.0000 Du        
   5171 ****       112.7500 242.7500 327.2500 Du        
   5172 ****       112.7500 242.7500 327.5000 Du        
   5173 ****       112.7500 242.7500 327.7500 Du        
   5174 ****       112.7500 242.7500 328.0000 Du        
   5175 ****       112.7500 242.7500 328.2500 Du        
   5176 ****       112.7500 242.7500 328.5000 Du        
   5177 ****       112.7500 242.7500 328.7500 Du        
   5178 ****       112.7500 242.7500 329.0000 Du        
   5179 ****       112.7500 242.7500 329.2500 Du        
   5180 ****       112.7500 242.7500 329.5000 Du        
   5181 ****       112.7500 242.7500 329.7500 Du        
   5182 ****       112.7500 242.7500 330.0000 Du        
   5183 ****       112.7500 243.0000 324.7500 Du        
   5184 ****       112.7500 243.0000 325.0000 Du        
   5185 ****       112.7500 243.0000 325.2500 Du        
   5186 ****       112.7500 243.0000 325.5000 Du        
   5187 ****       112.7500 243.0000 325.7500 Du        
   5188 ****       112.7500 243.0000 326.0000 Du        
   5189 ****       112.7500 243.0000 326.2500 Du        
   5190 ****       112.7500 243.0000 326.5000 Du        
   5191 ****       112.7500 243.0000 326.7500 Du        
   5192 ****       112.7500 243.0000 327.0000 Du        
   5193 ****       112.7500 243.0000 327.2500 Du        
   5194 ****       112.7500 243.0000 327.5000 Du        
   5195 ****       112.7500 243.0000 327.7500 Du        
   5196 ****       112.7500 243.0000 328.0000 Du        
   5197 ****       112.7500 243.0000 328.2500 Du        
   5198 ****       112.7500 243.0000 328.5000 Du        
   5199 ****       112.7500 243.0000 328.7500 Du        
   5200 ****       112.7500 243.0000 329.0000 Du        
   5201 ****       112.7500 243.0000 329.2500 Du        
   5202 ****       112.7500 243.0000 329.5000 Du        
   5203 ****       112.7500 243.0000 329.7500 Du        
   5204 ****       112.7500 243.0000 330.0000 Du        
   5205 ****       112.7500 243.2500 324.7500 Du        
   5206 ****       112.7500 243.2500 325.0000 Du        
   5207 ****       112.7500 243.2500 325.2500 Du        
   5208 ****       112.7500 243.2500 325.5000 Du        
   5209 ****       112.7500 243.2500 325.7500 Du        
   5210 ****       112.7500 243.2500 326.0000 Du        
   5211 ****       112.7500 243.2500 326.2500 Du        
   5212 ****       112.7500 243.2500 326.5000 Du        
   5213 ****       112.7500 243.2500 326.7500 Du        
   5214 ****       112.7500 243.2500 327.0000 Du        
   5215 ****       112.7500 243.2500 327.2500 Du        
   5216 ****       112.7500 243.2500 327.7500 Du        
   5217 ****       112.7500 243.2500 328.0000 Du        
   5218 ****       112.7500 243.2500 328.2500 Du        
   5219 ****       112.7500 243.2500 328.5000 Du        
   5220 ****       112.7500 243.2500 328.7500 Du        
   5221 ****       112.7500 243.2500 329.0000 Du        
   5222 ****       112.7500 243.2500 329.2500 Du        
   5223 ****       112.7500 243.2500 329.5000 Du        
   5224 ****       112.7500 243.2500 329.7500 Du        
   5225 ****       112.7500 243.2500 330.0000 Du        
   5226 ****       112.7500 243.2500 330.2500 Du        
   5227 ****       112.7500 243.5000 325.0000 Du        
   5228 ****       112.7500 243.5000 325.2500 Du        
   5229 ****       112.7500 243.5000 325.5000 Du        
   5230 ****       112.7500 243.5000 325.7500 Du        
   5231 ****       112.7500 243.5000 329.2500 Du        
   5232 ****       112.7500 243.5000 329.5000 Du        
   5233 ****       112.7500 243.5000 329.7500 Du        
   5234 ****       112.7500 243.5000 330.0000 Du        
   5235 ****       112.7500 243.7500 324.7500 Du        
   5236 ****       112.7500 243.7500 325.2500 Du        
   5237 ****       112.7500 244.0000 324.7500 Du        
   5238 ****       112.7500 244.0000 325.0000 Du        
   5239 ****       112.7500 246.7500 325.2500 Du        
   5240 ****       112.7500 247.0000 325.2500 Du        
   5241 ****       112.7500 247.0000 325.7500 Du        
   5242 ****       112.7500 247.2500 325.2500 Du        
   5243 ****       112.7500 247.2500 325.5000 Du        
   5244 ****       112.7500 247.2500 325.7500 Du        
   5245 ****       112.7500 247.5000 325.2500 Du        
   5246 ****       112.7500 247.5000 325.5000 Du        
   5247 ****       112.7500 247.5000 325.7500 Du        
   5248 ****       112.7500 247.7500 325.2500 Du        
   5249 ****       113.0000 240.7500 324.7500 Du        
   5250 ****       113.0000 240.7500 325.0000 Du        
   5251 ****       113.0000 240.7500 325.2500 Du        
   5252 ****       113.0000 240.7500 325.5000 Du        
   5253 ****       113.0000 241.0000 324.7500 Du        
   5254 ****       113.0000 241.0000 325.0000 Du        
   5255 ****       113.0000 241.0000 325.2500 Du        
   5256 ****       113.0000 241.0000 325.5000 Du        
   5257 ****       113.0000 241.0000 325.7500 Du        
   5258 ****       113.0000 241.0000 326.0000 Du        
   5259 ****       113.0000 241.2500 324.7500 Du        
   5260 ****       113.0000 241.2500 325.0000 Du        
   5261 ****       113.0000 241.2500 325.2500 Du        
   5262 ****       113.0000 241.2500 325.5000 Du        
   5263 ****       113.0000 241.2500 325.7500 Du        
   5264 ****       113.0000 241.2500 326.0000 Du        
   5265 ****       113.0000 241.2500 326.2500 Du        
   5266 ****       113.0000 241.2500 326.5000 Du        
   5267 ****       113.0000 241.2500 326.7500 Du        
   5268 ****       113.0000 241.2500 327.0000 Du        
   5269 ****       113.0000 241.2500 327.2500 Du        
   5270 ****       113.0000 241.2500 327.5000 Du        
   5271 ****       113.0000 241.2500 327.7500 Du        
   5272 ****       113.0000 241.2500 328.0000 Du        
   5273 ****       113.0000 241.2500 328.2500 Du        
   5274 ****       113.0000 241.2500 328.5000 Du        
   5275 ****       113.0000 241.5000 324.7500 Du        
   5276 ****       113.0000 241.5000 325.0000 Du        
   5277 ****       113.0000 241.5000 325.2500 Du        
   5278 ****       113.0000 241.5000 325.5000 Du        
   5279 ****       113.0000 241.5000 325.7500 Du        
   5280 ****       113.0000 241.5000 326.0000 Du        
   5281 ****       113.0000 241.5000 326.2500 Du        
   5282 ****       113.0000 241.5000 326.5000 Du        
   5283 ****       113.0000 241.5000 326.7500 Du        
   5284 ****       113.0000 241.5000 327.0000 Du        
   5285 ****       113.0000 241.5000 327.2500 Du        
   5286 ****       113.0000 241.5000 327.5000 Du        
   5287 ****       113.0000 241.5000 327.7500 Du        
   5288 ****       113.0000 241.5000 328.0000 Du        
   5289 ****       113.0000 241.5000 328.2500 Du        
   5290 ****       113.0000 241.5000 328.5000 Du        
   5291 ****       113.0000 241.5000 328.7500 Du        
   5292 ****       113.0000 241.7500 324.7500 Du        
   5293 ****       113.0000 241.7500 325.0000 Du        
   5294 ****       113.0000 241.7500 325.2500 Du        
   5295 ****       113.0000 241.7500 325.5000 Du        
   5296 ****       113.0000 241.7500 325.7500 Du        
   5297 ****       113.0000 241.7500 326.0000 Du        
   5298 ****       113.0000 241.7500 326.2500 Du        
   5299 ****       113.0000 241.7500 326.5000 Du        
   5300 ****       113.0000 241.7500 326.7500 Du        
   5301 ****       113.0000 241.7500 327.0000 Du        
   5302 ****       113.0000 241.7500 327.2500 Du        
   5303 ****       113.0000 241.7500 327.5000 Du        
   5304 ****       113.0000 241.7500 327.7500 Du        
   5305 ****       113.0000 241.7500 328.0000 Du        
   5306 ****       113.0000 241.7500 328.2500 Du        
   5307 ****       113.0000 241.7500 328.5000 Du        
   5308 ****       113.0000 241.7500 328.7500 Du        
   5309 ****       113.0000 241.7500 329.0000 Du        
   5310 ****       113.0000 242.0000 324.7500 Du        
   5311 ****       113.0000 242.0000 325.0000 Du        
   5312 ****       113.0000 242.0000 325.2500 Du        
   5313 ****       113.0000 242.0000 325.5000 Du        
   5314 ****       113.0000 242.0000 325.7500 Du        
   5315 ****       113.0000 242.0000 326.0000 Du        
   5316 ****       113.0000 242.0000 326.2500 Du        
   5317 ****       113.0000 242.0000 326.5000 Du        
   5318 ****       113.0000 242.0000 326.7500 Du        
   5319 ****       113.0000 242.0000 327.0000 Du        
   5320 ****       113.0000 242.0000 327.2500 Du        
   5321 ****       113.0000 242.0000 327.5000 Du        
   5322 ****       113.0000 242.0000 327.7500 Du        
   5323 ****       113.0000 242.0000 328.0000 Du        
   5324 ****       113.0000 242.0000 328.2500 Du        
   5325 ****       113.0000 242.0000 328.5000 Du        
   5326 ****       113.0000 242.0000 328.7500 Du        
   5327 ****       113.0000 242.0000 329.0000 Du        
   5328 ****       113.0000 242.0000 329.2500 Du        
   5329 ****       113.0000 242.2500 324.7500 Du        
   5330 ****       113.0000 242.2500 325.0000 Du        
   5331 ****       113.0000 242.2500 325.2500 Du        
   5332 ****       113.0000 242.2500 325.5000 Du        
   5333 ****       113.0000 242.2500 325.7500 Du        
   5334 ****       113.0000 242.2500 326.0000 Du        
   5335 ****       113.0000 242.2500 326.2500 Du        
   5336 ****       113.0000 242.2500 326.5000 Du        
   5337 ****       113.0000 242.2500 326.7500 Du        
   5338 ****       113.0000 242.2500 327.0000 Du        
   5339 ****       113.0000 242.2500 327.2500 Du        
   5340 ****       113.0000 242.2500 327.5000 Du        
   5341 ****       113.0000 242.2500 327.7500 Du        
   5342 ****       113.0000 242.2500 328.0000 Du        
   5343 ****       113.0000 242.2500 328.2500 Du        
   5344 ****       113.0000 242.2500 328.5000 Du        
   5345 ****       113.0000 242.2500 328.7500 Du        
   5346 ****       113.0000 242.2500 329.0000 Du        
   5347 ****       113.0000 242.2500 329.2500 Du        
   5348 ****       113.0000 242.2500 329.5000 Du        
   5349 ****       113.0000 242.5000 324.7500 Du        
   5350 ****       113.0000 242.5000 325.0000 Du        
   5351 ****       113.0000 242.5000 325.2500 Du        
   5352 ****       113.0000 242.5000 325.5000 Du        
   5353 ****       113.0000 242.5000 325.7500 Du        
   5354 ****       113.0000 242.5000 326.0000 Du        
   5355 ****       113.0000 242.5000 326.2500 Du        
   5356 ****       113.0000 242.5000 326.5000 Du        
   5357 ****       113.0000 242.5000 326.7500 Du        
   5358 ****       113.0000 242.5000 327.0000 Du        
   5359 ****       113.0000 242.5000 327.2500 Du        
   5360 ****       113.0000 242.5000 327.5000 Du        
   5361 ****       113.0000 242.5000 327.7500 Du        
   5362 ****       113.0000 242.5000 328.0000 Du        
   5363 ****       113.0000 242.5000 328.2500 Du        
   5364 ****       113.0000 242.5000 328.5000 Du        
   5365 ****       113.0000 242.5000 328.7500 Du        
   5366 ****       113.0000 242.5000 329.0000 Du        
   5367 ****       113.0000 242.5000 329.2500 Du        
   5368 ****       113.0000 242.5000 329.5000 Du        
   5369 ****       113.0000 242.7500 324.7500 Du        
   5370 ****       113.0000 242.7500 325.0000 Du        
   5371 ****       113.0000 242.7500 325.2500 Du        
   5372 ****       113.0000 242.7500 325.5000 Du        
   5373 ****       113.0000 242.7500 325.7500 Du        
   5374 ****       113.0000 242.7500 326.0000 Du        
   5375 ****       113.0000 242.7500 326.2500 Du        
   5376 ****       113.0000 242.7500 326.5000 Du        
   5377 ****       113.0000 242.7500 326.7500 Du        
   5378 ****       113.0000 242.7500 327.0000 Du        
   5379 ****       113.0000 242.7500 327.2500 Du        
   5380 ****       113.0000 242.7500 327.5000 Du        
   5381 ****       113.0000 242.7500 327.7500 Du        
   5382 ****       113.0000 242.7500 328.0000 Du        
   5383 ****       113.0000 242.7500 328.2500 Du        
   5384 ****       113.0000 242.7500 328.5000 Du        
   5385 ****       113.0000 242.7500 328.7500 Du        
   5386 ****       113.0000 242.7500 329.0000 Du        
   5387 ****       113.0000 242.7500 329.2500 Du        
   5388 ****       113.0000 242.7500 329.5000 Du        
   5389 ****       113.0000 242.7500 329.7500 Du        
   5390 ****       113.0000 243.0000 324.7500 Du        
   5391 ****       113.0000 243.0000 325.0000 Du        
   5392 ****       113.0000 243.0000 325.2500 Du        
   5393 ****       113.0000 243.0000 325.5000 Du        
   5394 ****       113.0000 243.0000 325.7500 Du        
   5395 ****       113.0000 243.0000 326.0000 Du        
   5396 ****       113.0000 243.0000 326.2500 Du        
   5397 ****       113.0000 243.0000 326.5000 Du        
   5398 ****       113.0000 243.0000 326.7500 Du        
   5399 ****       113.0000 243.0000 327.0000 Du        
   5400 ****       113.0000 243.0000 327.2500 Du        
   5401 ****       113.0000 243.0000 327.5000 Du        
   5402 ****       113.0000 243.0000 327.7500 Du        
   5403 ****       113.0000 243.0000 328.0000 Du        
   5404 ****       113.0000 243.0000 328.2500 Du        
   5405 ****       113.0000 243.0000 328.5000 Du        
   5406 ****       113.0000 243.0000 328.7500 Du        
   5407 ****       113.0000 243.0000 329.0000 Du        
   5408 ****       113.0000 243.0000 329.2500 Du        
   5409 ****       113.0000 243.0000 329.5000 Du        
   5410 ****       113.0000 243.0000 329.7500 Du        
   5411 ****       113.0000 243.0000 330.0000 Du        
   5412 ****       113.0000 243.2500 324.7500 Du        
   5413 ****       113.0000 243.2500 325.0000 Du        
   5414 ****       113.0000 243.2500 325.2500 Du        
   5415 ****       113.0000 243.2500 325.5000 Du        
   5416 ****       113.0000 243.2500 325.7500 Du        
   5417 ****       113.0000 243.2500 326.0000 Du        
   5418 ****       113.0000 243.2500 326.2500 Du        
   5419 ****       113.0000 243.2500 326.5000 Du        
   5420 ****       113.0000 243.2500 326.7500 Du        
   5421 ****       113.0000 243.2500 327.0000 Du        
   5422 ****       113.0000 243.2500 327.2500 Du        
   5423 ****       113.0000 243.2500 327.7500 Du        
   5424 ****       113.0000 243.2500 328.0000 Du        
   5425 ****       113.0000 243.2500 328.2500 Du        
   5426 ****       113.0000 243.2500 328.5000 Du        
   5427 ****       113.0000 243.2500 328.7500 Du        
   5428 ****       113.0000 243.2500 329.0000 Du        
   5429 ****       113.0000 243.2500 329.2500 Du        
   5430 ****       113.0000 243.2500 329.5000 Du        
   5431 ****       113.0000 243.2500 329.7500 Du        
   5432 ****       113.0000 243.2500 330.0000 Du        
   5433 ****       113.0000 243.5000 324.7500 Du        
   5434 ****       113.0000 243.5000 325.0000 Du        
   5435 ****       113.0000 243.5000 325.2500 Du        
   5436 ****       113.0000 243.5000 325.5000 Du        
   5437 ****       113.0000 243.5000 325.7500 Du        
   5438 ****       113.0000 243.5000 326.0000 Du        
   5439 ****       113.0000 243.7500 324.7500 Du        
   5440 ****       113.0000 243.7500 325.0000 Du        
   5441 ****       113.0000 243.7500 325.2500 Du        
   5442 ****       113.0000 243.7500 325.5000 Du        
   5443 ****       113.0000 243.7500 325.7500 Du        
   5444 ****       113.0000 244.0000 324.7500 Du        
   5445 ****       113.0000 244.0000 325.0000 Du        
   5446 ****       113.0000 244.2500 324.2500 Du        
   5447 ****       113.0000 244.2500 325.0000 Du        
   5448 ****       113.0000 244.5000 324.2500 Du        
   5449 ****       113.0000 246.7500 325.2500 Du        
   5450 ****       113.0000 246.7500 325.5000 Du        
   5451 ****       113.0000 247.0000 325.2500 Du        
   5452 ****       113.0000 247.0000 325.5000 Du        
   5453 ****       113.0000 247.0000 325.7500 Du        
   5454 ****       113.0000 247.2500 325.2500 Du        
   5455 ****       113.0000 247.2500 325.5000 Du        
   5456 ****       113.0000 247.2500 325.7500 Du        
   5457 ****       113.0000 247.5000 325.5000 Du        
   5458 ****       113.2500 240.7500 325.2500 Du        
   5459 ****       113.2500 240.7500 325.5000 Du        
   5460 ****       113.2500 241.0000 325.0000 Du        
   5461 ****       113.2500 241.0000 325.2500 Du        
   5462 ****       113.2500 241.0000 325.5000 Du        
   5463 ****       113.2500 241.0000 325.7500 Du        
   5464 ****       113.2500 241.0000 326.0000 Du        
   5465 ****       113.2500 241.0000 326.2500 Du        
   5466 ****       113.2500 241.2500 325.0000 Du        
   5467 ****       113.2500 241.2500 325.2500 Du        
   5468 ****       113.2500 241.2500 325.5000 Du        
   5469 ****       113.2500 241.2500 325.7500 Du        
   5470 ****       113.2500 241.2500 326.0000 Du        
   5471 ****       113.2500 241.2500 326.2500 Du        
   5472 ****       113.2500 241.2500 326.5000 Du        
   5473 ****       113.2500 241.2500 326.7500 Du        
   5474 ****       113.2500 241.2500 327.0000 Du        
   5475 ****       113.2500 241.2500 327.2500 Du        
   5476 ****       113.2500 241.2500 327.5000 Du        
   5477 ****       113.2500 241.2500 327.7500 Du        
   5478 ****       113.2500 241.2500 328.0000 Du        
   5479 ****       113.2500 241.2500 328.2500 Du        
   5480 ****       113.2500 241.2500 328.5000 Du        
   5481 ****       113.2500 241.5000 325.0000 Du        
   5482 ****       113.2500 241.5000 325.2500 Du        
   5483 ****       113.2500 241.5000 325.5000 Du        
   5484 ****       113.2500 241.5000 325.7500 Du        
   5485 ****       113.2500 241.5000 326.0000 Du        
   5486 ****       113.2500 241.5000 326.2500 Du        
   5487 ****       113.2500 241.5000 326.5000 Du        
   5488 ****       113.2500 241.5000 326.7500 Du        
   5489 ****       113.2500 241.5000 327.0000 Du        
   5490 ****       113.2500 241.5000 327.2500 Du        
   5491 ****       113.2500 241.5000 327.5000 Du        
   5492 ****       113.2500 241.5000 327.7500 Du        
   5493 ****       113.2500 241.5000 328.0000 Du        
   5494 ****       113.2500 241.5000 328.2500 Du        
   5495 ****       113.2500 241.5000 328.5000 Du        
   5496 ****       113.2500 241.5000 328.7500 Du        
   5497 ****       113.2500 241.7500 324.7500 Du        
   5498 ****       113.2500 241.7500 325.0000 Du        
   5499 ****       113.2500 241.7500 325.2500 Du        
   5500 ****       113.2500 241.7500 325.5000 Du        
   5501 ****       113.2500 241.7500 325.7500 Du        
   5502 ****       113.2500 241.7500 326.0000 Du        
   5503 ****       113.2500 241.7500 326.2500 Du        
   5504 ****       113.2500 241.7500 326.5000 Du        
   5505 ****       113.2500 241.7500 326.7500 Du        
   5506 ****       113.2500 241.7500 327.0000 Du        
   5507 ****       113.2500 241.7500 327.2500 Du        
   5508 ****       113.2500 241.7500 327.5000 Du        
   5509 ****       113.2500 241.7500 327.7500 Du        
   5510 ****       113.2500 241.7500 328.0000 Du        
   5511 ****       113.2500 241.7500 328.2500 Du        
   5512 ****       113.2500 241.7500 328.5000 Du        
   5513 ****       113.2500 241.7500 328.7500 Du        
   5514 ****       113.2500 241.7500 329.0000 Du        
   5515 ****       113.2500 242.0000 324.7500 Du        
   5516 ****       113.2500 242.0000 325.0000 Du        
   5517 ****       113.2500 242.0000 325.2500 Du        
   5518 ****       113.2500 242.0000 325.5000 Du        
   5519 ****       113.2500 242.0000 325.7500 Du        
   5520 ****       113.2500 242.0000 326.0000 Du        
   5521 ****       113.2500 242.0000 326.2500 Du        
   5522 ****       113.2500 242.0000 326.5000 Du        
   5523 ****       113.2500 242.0000 326.7500 Du        
   5524 ****       113.2500 242.0000 327.0000 Du        
   5525 ****       113.2500 242.0000 327.2500 Du        
   5526 ****       113.2500 242.0000 327.5000 Du        
   5527 ****       113.2500 242.0000 327.7500 Du        
   5528 ****       113.2500 242.0000 328.0000 Du        
   5529 ****       113.2500 242.0000 328.2500 Du        
   5530 ****       113.2500 242.0000 328.5000 Du        
   5531 ****       113.2500 242.0000 328.7500 Du        
   5532 ****       113.2500 242.0000 329.0000 Du        
   5533 ****       113.2500 242.0000 329.2500 Du        
   5534 ****       113.2500 242.2500 324.7500 Du        
   5535 ****       113.2500 242.2500 325.0000 Du        
   5536 ****       113.2500 242.2500 325.2500 Du        
   5537 ****       113.2500 242.2500 325.5000 Du        
   5538 ****       113.2500 242.2500 325.7500 Du        
   5539 ****       113.2500 242.2500 326.0000 Du        
   5540 ****       113.2500 242.2500 326.2500 Du        
   5541 ****       113.2500 242.2500 326.5000 Du        
   5542 ****       113.2500 242.2500 326.7500 Du        
   5543 ****       113.2500 242.2500 327.0000 Du        
   5544 ****       113.2500 242.2500 327.2500 Du        
   5545 ****       113.2500 242.2500 327.5000 Du        
   5546 ****       113.2500 242.2500 327.7500 Du        
   5547 ****       113.2500 242.2500 328.0000 Du        
   5548 ****       113.2500 242.2500 328.2500 Du        
   5549 ****       113.2500 242.2500 328.5000 Du        
   5550 ****       113.2500 242.2500 328.7500 Du        
   5551 ****       113.2500 242.2500 329.0000 Du        
   5552 ****       113.2500 242.2500 329.2500 Du        
   5553 ****       113.2500 242.2500 329.5000 Du        
   5554 ****       113.2500 242.5000 324.7500 Du        
   5555 ****       113.2500 242.5000 325.0000 Du        
   5556 ****       113.2500 242.5000 325.2500 Du        
   5557 ****       113.2500 242.5000 325.5000 Du        
   5558 ****       113.2500 242.5000 325.7500 Du        
   5559 ****       113.2500 242.5000 326.0000 Du        
   5560 ****       113.2500 242.5000 326.2500 Du        
   5561 ****       113.2500 242.5000 326.5000 Du        
   5562 ****       113.2500 242.5000 326.7500 Du        
   5563 ****       113.2500 242.5000 327.0000 Du        
   5564 ****       113.2500 242.5000 327.2500 Du        
   5565 ****       113.2500 242.5000 327.5000 Du        
   5566 ****       113.2500 242.5000 327.7500 Du        
   5567 ****       113.2500 242.5000 328.0000 Du        
   5568 ****       113.2500 242.5000 328.2500 Du        
   5569 ****       113.2500 242.5000 328.5000 Du        
   5570 ****       113.2500 242.5000 328.7500 Du        
   5571 ****       113.2500 242.5000 329.0000 Du        
   5572 ****       113.2500 242.5000 329.2500 Du        
   5573 ****       113.2500 242.5000 329.5000 Du        
   5574 ****       113.2500 242.7500 324.7500 Du        
   5575 ****       113.2500 242.7500 325.0000 Du        
   5576 ****       113.2500 242.7500 325.2500 Du        
   5577 ****       113.2500 242.7500 325.5000 Du        
   5578 ****       113.2500 242.7500 325.7500 Du        
   5579 ****       113.2500 242.7500 326.0000 Du        
   5580 ****       113.2500 242.7500 326.2500 Du        
   5581 ****       113.2500 242.7500 326.5000 Du        
   5582 ****       113.2500 242.7500 326.7500 Du        
   5583 ****       113.2500 242.7500 327.0000 Du        
   5584 ****       113.2500 242.7500 327.2500 Du        
   5585 ****       113.2500 242.7500 327.5000 Du        
   5586 ****       113.2500 242.7500 327.7500 Du        
   5587 ****       113.2500 242.7500 328.0000 Du        
   5588 ****       113.2500 242.7500 328.2500 Du        
   5589 ****       113.2500 242.7500 328.5000 Du        
   5590 ****       113.2500 242.7500 328.7500 Du        
   5591 ****       113.2500 242.7500 329.0000 Du        
   5592 ****       113.2500 242.7500 329.2500 Du        
   5593 ****       113.2500 242.7500 329.5000 Du        
   5594 ****       113.2500 242.7500 329.7500 Du        
   5595 ****       113.2500 243.0000 324.7500 Du        
   5596 ****       113.2500 243.0000 325.0000 Du        
   5597 ****       113.2500 243.0000 325.2500 Du        
   5598 ****       113.2500 243.0000 325.5000 Du        
   5599 ****       113.2500 243.0000 325.7500 Du        
   5600 ****       113.2500 243.0000 326.0000 Du        
   5601 ****       113.2500 243.0000 326.2500 Du        
   5602 ****       113.2500 243.0000 326.5000 Du        
   5603 ****       113.2500 243.0000 326.7500 Du        
   5604 ****       113.2500 243.0000 327.0000 Du        
   5605 ****       113.2500 243.0000 327.2500 Du        
   5606 ****       113.2500 243.0000 327.5000 Du        
   5607 ****       113.2500 243.0000 327.7500 Du        
   5608 ****       113.2500 243.0000 328.0000 Du        
   5609 ****       113.2500 243.0000 328.2500 Du        
   5610 ****       113.2500 243.0000 328.5000 Du        
   5611 ****       113.2500 243.0000 328.7500 Du        
   5612 ****       113.2500 243.0000 329.0000 Du        
   5613 ****       113.2500 243.0000 329.2500 Du        
   5614 ****       113.2500 243.0000 329.5000 Du        
   5615 ****       113.2500 243.0000 329.7500 Du        
   5616 ****       113.2500 243.0000 330.0000 Du        
   5617 ****       113.2500 243.2500 324.7500 Du        
   5618 ****       113.2500 243.2500 325.0000 Du        
   5619 ****       113.2500 243.2500 325.2500 Du        
   5620 ****       113.2500 243.2500 325.5000 Du        
   5621 ****       113.2500 243.2500 325.7500 Du        
   5622 ****       113.2500 243.2500 326.0000 Du        
   5623 ****       113.2500 243.2500 326.2500 Du        
   5624 ****       113.2500 243.2500 326.5000 Du        
   5625 ****       113.2500 243.2500 326.7500 Du        
   5626 ****       113.2500 243.2500 327.0000 Du        
   5627 ****       113.2500 243.2500 327.2500 Du        
   5628 ****       113.2500 243.2500 327.7500 Du        
   5629 ****       113.2500 243.2500 328.5000 Du        
   5630 ****       113.2500 243.2500 328.7500 Du        
   5631 ****       113.2500 243.2500 329.0000 Du        
   5632 ****       113.2500 243.2500 329.2500 Du        
   5633 ****       113.2500 243.2500 329.5000 Du        
   5634 ****       113.2500 243.2500 329.7500 Du        
   5635 ****       113.2500 243.2500 330.0000 Du        
   5636 ****       113.2500 243.5000 324.7500 Du        
   5637 ****       113.2500 243.5000 325.0000 Du        
   5638 ****       113.2500 243.5000 325.2500 Du        
   5639 ****       113.2500 243.5000 325.5000 Du        
   5640 ****       113.2500 243.5000 325.7500 Du        
   5641 ****       113.2500 243.5000 326.0000 Du        
   5642 ****       113.2500 243.7500 324.7500 Du        
   5643 ****       113.2500 243.7500 325.0000 Du        
   5644 ****       113.2500 243.7500 325.2500 Du        
   5645 ****       113.2500 243.7500 325.5000 Du        
   5646 ****       113.2500 243.7500 325.7500 Du        
   5647 ****       113.2500 243.7500 326.0000 Du        
   5648 ****       113.2500 244.0000 324.7500 Du        
   5649 ****       113.2500 244.0000 325.0000 Du        
   5650 ****       113.2500 244.0000 325.2500 Du        
   5651 ****       113.2500 244.0000 325.7500 Du        
   5652 ****       113.2500 244.2500 324.2500 Du        
   5653 ****       113.2500 244.2500 324.7500 Du        
   5654 ****       113.2500 244.2500 325.0000 Du        
   5655 ****       113.2500 244.5000 324.2500 Du        
   5656 ****       113.2500 244.7500 324.2500 Du        
   5657 ****       113.2500 247.0000 325.2500 Du        
   5658 ****       113.2500 247.0000 325.5000 Du        
   5659 ****       113.2500 247.2500 325.5000 Du        
   5660 ****       113.5000 241.0000 325.2500 Du        
   5661 ****       113.5000 241.0000 325.5000 Du        
   5662 ****       113.5000 241.0000 325.7500 Du        
   5663 ****       113.5000 241.0000 326.0000 Du        
   5664 ****       113.5000 241.0000 326.2500 Du        
   5665 ****       113.5000 241.0000 326.5000 Du        
   5666 ****       113.5000 241.0000 326.7500 Du        
   5667 ****       113.5000 241.2500 325.2500 Du        
   5668 ****       113.5000 241.2500 325.5000 Du        
   5669 ****       113.5000 241.2500 325.7500 Du        
   5670 ****       113.5000 241.2500 326.0000 Du        
   5671 ****       113.5000 241.2500 326.2500 Du        
   5672 ****       113.5000 241.2500 326.5000 Du        
   5673 ****       113.5000 241.2500 326.7500 Du        
   5674 ****       113.5000 241.2500 327.0000 Du        
   5675 ****       113.5000 241.2500 327.2500 Du        
   5676 ****       113.5000 241.2500 327.5000 Du        
   5677 ****       113.5000 241.2500 327.7500 Du        
   5678 ****       113.5000 241.2500 328.0000 Du        
   5679 ****       113.5000 241.2500 328.2500 Du        
   5680 ****       113.5000 241.2500 328.5000 Du        
   5681 ****       113.5000 241.5000 325.2500 Du        
   5682 ****       113.5000 241.5000 325.5000 Du        
   5683 ****       113.5000 241.5000 325.7500 Du        
   5684 ****       113.5000 241.5000 326.0000 Du        
   5685 ****       113.5000 241.5000 326.2500 Du        
   5686 ****       113.5000 241.5000 326.5000 Du        
   5687 ****       113.5000 241.5000 326.7500 Du        
   5688 ****       113.5000 241.5000 327.0000 Du        
   5689 ****       113.5000 241.5000 327.2500 Du        
   5690 ****       113.5000 241.5000 327.5000 Du        
   5691 ****       113.5000 241.5000 327.7500 Du        
   5692 ****       113.5000 241.5000 328.0000 Du        
   5693 ****       113.5000 241.5000 328.2500 Du        
   5694 ****       113.5000 241.5000 328.5000 Du        
   5695 ****       113.5000 241.5000 328.7500 Du        
   5696 ****       113.5000 241.7500 325.0000 Du        
   5697 ****       113.5000 241.7500 325.2500 Du        
   5698 ****       113.5000 241.7500 325.5000 Du        
   5699 ****       113.5000 241.7500 325.7500 Du        
   5700 ****       113.5000 241.7500 326.0000 Du        
   5701 ****       113.5000 241.7500 326.2500 Du        
   5702 ****       113.5000 241.7500 326.5000 Du        
   5703 ****       113.5000 241.7500 326.7500 Du        
   5704 ****       113.5000 241.7500 327.0000 Du        
   5705 ****       113.5000 241.7500 327.2500 Du        
   5706 ****       113.5000 241.7500 327.5000 Du        
   5707 ****       113.5000 241.7500 327.7500 Du        
   5708 ****       113.5000 241.7500 328.0000 Du        
   5709 ****       113.5000 241.7500 328.2500 Du        
   5710 ****       113.5000 241.7500 328.5000 Du        
   5711 ****       113.5000 241.7500 328.7500 Du        
   5712 ****       113.5000 241.7500 329.0000 Du        
   5713 ****       113.5000 242.0000 325.0000 Du        
   5714 ****       113.5000 242.0000 325.2500 Du        
   5715 ****       113.5000 242.0000 325.5000 Du        
   5716 ****       113.5000 242.0000 325.7500 Du        
   5717 ****       113.5000 242.0000 326.0000 Du        
   5718 ****       113.5000 242.0000 326.2500 Du        
   5719 ****       113.5000 242.0000 326.5000 Du        
   5720 ****       113.5000 242.0000 326.7500 Du        
   5721 ****       113.5000 242.0000 327.0000 Du        
   5722 ****       113.5000 242.0000 327.2500 Du        
   5723 ****       113.5000 242.0000 327.5000 Du        
   5724 ****       113.5000 242.0000 327.7500 Du        
   5725 ****       113.5000 242.0000 328.0000 Du        
   5726 ****       113.5000 242.0000 328.2500 Du        
   5727 ****       113.5000 242.0000 328.5000 Du        
   5728 ****       113.5000 242.0000 328.7500 Du        
   5729 ****       113.5000 242.0000 329.0000 Du        
   5730 ****       113.5000 242.0000 329.2500 Du        
   5731 ****       113.5000 242.2500 325.0000 Du        
   5732 ****       113.5000 242.2500 325.2500 Du        
   5733 ****       113.5000 242.2500 325.5000 Du        
   5734 ****       113.5000 242.2500 325.7500 Du        
   5735 ****       113.5000 242.2500 326.0000 Du        
   5736 ****       113.5000 242.2500 326.2500 Du        
   5737 ****       113.5000 242.2500 326.5000 Du        
   5738 ****       113.5000 242.2500 326.7500 Du        
   5739 ****       113.5000 242.2500 327.0000 Du        
   5740 ****       113.5000 242.2500 327.2500 Du        
   5741 ****       113.5000 242.2500 327.5000 Du        
   5742 ****       113.5000 242.2500 327.7500 Du        
   5743 ****       113.5000 242.2500 328.0000 Du        
   5744 ****       113.5000 242.2500 328.2500 Du        
   5745 ****       113.5000 242.2500 328.5000 Du        
   5746 ****       113.5000 242.2500 328.7500 Du        
   5747 ****       113.5000 242.2500 329.0000 Du        
   5748 ****       113.5000 242.2500 329.2500 Du        
   5749 ****       113.5000 242.2500 329.5000 Du        
   5750 ****       113.5000 242.5000 325.0000 Du        
   5751 ****       113.5000 242.5000 325.2500 Du        
   5752 ****       113.5000 242.5000 325.5000 Du        
   5753 ****       113.5000 242.5000 325.7500 Du        
   5754 ****       113.5000 242.5000 326.0000 Du        
   5755 ****       113.5000 242.5000 326.2500 Du        
   5756 ****       113.5000 242.5000 326.5000 Du        
   5757 ****       113.5000 242.5000 326.7500 Du        
   5758 ****       113.5000 242.5000 327.0000 Du        
   5759 ****       113.5000 242.5000 327.2500 Du        
   5760 ****       113.5000 242.5000 327.5000 Du        
   5761 ****       113.5000 242.5000 327.7500 Du        
   5762 ****       113.5000 242.5000 328.0000 Du        
   5763 ****       113.5000 242.5000 328.2500 Du        
   5764 ****       113.5000 242.5000 328.5000 Du        
   5765 ****       113.5000 242.5000 328.7500 Du        
   5766 ****       113.5000 242.5000 329.0000 Du        
   5767 ****       113.5000 242.5000 329.2500 Du        
   5768 ****       113.5000 242.5000 329.5000 Du        
   5769 ****       113.5000 242.7500 324.7500 Du        
   5770 ****       113.5000 242.7500 325.0000 Du        
   5771 ****       113.5000 242.7500 325.2500 Du        
   5772 ****       113.5000 242.7500 325.5000 Du        
   5773 ****       113.5000 242.7500 325.7500 Du        
   5774 ****       113.5000 242.7500 326.0000 Du        
   5775 ****       113.5000 242.7500 326.2500 Du        
   5776 ****       113.5000 242.7500 326.5000 Du        
   5777 ****       113.5000 242.7500 326.7500 Du        
   5778 ****       113.5000 242.7500 327.0000 Du        
   5779 ****       113.5000 242.7500 327.2500 Du        
   5780 ****       113.5000 242.7500 327.5000 Du        
   5781 ****       113.5000 242.7500 327.7500 Du        
   5782 ****       113.5000 242.7500 328.0000 Du        
   5783 ****       113.5000 242.7500 328.2500 Du        
   5784 ****       113.5000 242.7500 328.5000 Du        
   5785 ****       113.5000 242.7500 328.7500 Du        
   5786 ****       113.5000 242.7500 329.0000 Du        
   5787 ****       113.5000 242.7500 329.2500 Du        
   5788 ****       113.5000 242.7500 329.5000 Du        
   5789 ****       113.5000 242.7500 329.7500 Du        
   5790 ****       113.5000 243.0000 324.7500 Du        
   5791 ****       113.5000 243.0000 325.0000 Du        
   5792 ****       113.5000 243.0000 325.2500 Du        
   5793 ****       113.5000 243.0000 325.5000 Du        
   5794 ****       113.5000 243.0000 325.7500 Du        
   5795 ****       113.5000 243.0000 326.0000 Du        
   5796 ****       113.5000 243.0000 326.2500 Du        
   5797 ****       113.5000 243.0000 326.5000 Du        
   5798 ****       113.5000 243.0000 326.7500 Du        
   5799 ****       113.5000 243.0000 327.0000 Du        
   5800 ****       113.5000 243.0000 327.2500 Du        
   5801 ****       113.5000 243.0000 327.5000 Du        
   5802 ****       113.5000 243.0000 327.7500 Du        
   5803 ****       113.5000 243.0000 328.0000 Du        
   5804 ****       113.5000 243.0000 328.2500 Du        
   5805 ****       113.5000 243.0000 328.5000 Du        
   5806 ****       113.5000 243.0000 328.7500 Du        
   5807 ****       113.5000 243.0000 329.0000 Du        
   5808 ****       113.5000 243.0000 329.2500 Du        
   5809 ****       113.5000 243.0000 329.5000 Du        
   5810 ****       113.5000 243.0000 329.7500 Du        
   5811 ****       113.5000 243.2500 324.7500 Du        
   5812 ****       113.5000 243.2500 325.0000 Du        
   5813 ****       113.5000 243.2500 325.2500 Du        
   5814 ****       113.5000 243.2500 325.5000 Du        
   5815 ****       113.5000 243.2500 325.7500 Du        
   5816 ****       113.5000 243.2500 326.0000 Du        
   5817 ****       113.5000 243.2500 326.2500 Du        
   5818 ****       113.5000 243.2500 326.5000 Du        
   5819 ****       113.5000 243.2500 326.7500 Du        
   5820 ****       113.5000 243.2500 327.0000 Du        
   5821 ****       113.5000 243.2500 327.2500 Du        
   5822 ****       113.5000 243.5000 324.7500 Du        
   5823 ****       113.5000 243.5000 325.0000 Du        
   5824 ****       113.5000 243.5000 325.2500 Du        
   5825 ****       113.5000 243.5000 325.5000 Du        
   5826 ****       113.5000 243.5000 325.7500 Du        
   5827 ****       113.5000 243.5000 326.0000 Du        
   5828 ****       113.5000 243.5000 326.2500 Du        
   5829 ****       113.5000 243.7500 324.7500 Du        
   5830 ****       113.5000 243.7500 325.0000 Du        
   5831 ****       113.5000 243.7500 325.2500 Du        
   5832 ****       113.5000 243.7500 325.5000 Du        
   5833 ****       113.5000 243.7500 325.7500 Du        
   5834 ****       113.5000 243.7500 326.0000 Du        
   5835 ****       113.5000 244.0000 324.7500 Du        
   5836 ****       113.5000 244.0000 325.0000 Du        
   5837 ****       113.5000 244.0000 325.2500 Du        
   5838 ****       113.5000 244.0000 325.5000 Du        
   5839 ****       113.5000 244.2500 324.2500 Du        
   5840 ****       113.5000 244.2500 325.0000 Du        
   5841 ****       113.5000 244.2500 325.2500 Du        
   5842 ****       113.5000 244.2500 325.5000 Du        
   5843 ****       113.5000 244.5000 324.2500 Du        
   5844 ****       113.5000 244.5000 324.7500 Du        
   5845 ****       113.5000 244.5000 325.0000 Du        
   5846 ****       113.5000 244.7500 324.2500 Du        
   5847 ****       113.5000 244.7500 324.7500 Du        
   5848 ****       113.5000 245.0000 324.7500 Du        
   5849 ****       113.5000 245.0000 325.0000 Du        
   5850 ****       113.5000 245.0000 325.2500 Du        
   5851 ****       113.5000 245.2500 325.0000 Du        
   5852 ****       113.5000 245.5000 325.2500 Du        
   5853 ****       113.5000 245.7500 325.2500 Du        
   5854 ****       113.5000 246.7500 325.2500 Du        
   5855 ****       113.7500 241.0000 325.7500 Du        
   5856 ****       113.7500 241.0000 326.0000 Du        
   5857 ****       113.7500 241.0000 326.2500 Du        
   5858 ****       113.7500 241.0000 326.5000 Du        
   5859 ****       113.7500 241.0000 326.7500 Du        
   5860 ****       113.7500 241.0000 327.0000 Du        
   5861 ****       113.7500 241.2500 325.5000 Du        
   5862 ****       113.7500 241.2500 325.7500 Du        
   5863 ****       113.7500 241.2500 326.0000 Du        
   5864 ****       113.7500 241.2500 326.2500 Du        
   5865 ****       113.7500 241.2500 326.5000 Du        
   5866 ****       113.7500 241.2500 326.7500 Du        
   5867 ****       113.7500 241.2500 327.0000 Du        
   5868 ****       113.7500 241.2500 327.2500 Du        
   5869 ****       113.7500 241.2500 327.5000 Du        
   5870 ****       113.7500 241.2500 327.7500 Du        
   5871 ****       113.7500 241.2500 328.0000 Du        
   5872 ****       113.7500 241.2500 328.2500 Du        
   5873 ****       113.7500 241.5000 325.5000 Du        
   5874 ****       113.7500 241.5000 325.7500 Du        
   5875 ****       113.7500 241.5000 326.0000 Du        
   5876 ****       113.7500 241.5000 326.2500 Du        
   5877 ****       113.7500 241.5000 326.5000 Du        
   5878 ****       113.7500 241.5000 326.7500 Du        
   5879 ****       113.7500 241.5000 327.0000 Du        
   5880 ****       113.7500 241.5000 327.2500 Du        
   5881 ****       113.7500 241.5000 327.5000 Du        
   5882 ****       113.7500 241.5000 327.7500 Du        
   5883 ****       113.7500 241.5000 328.0000 Du        
   5884 ****       113.7500 241.5000 328.2500 Du        
   5885 ****       113.7500 241.5000 328.5000 Du        
   5886 ****       113.7500 241.5000 328.7500 Du        
   5887 ****       113.7500 241.7500 325.2500 Du        
   5888 ****       113.7500 241.7500 325.5000 Du        
   5889 ****       113.7500 241.7500 325.7500 Du        
   5890 ****       113.7500 241.7500 326.0000 Du        
   5891 ****       113.7500 241.7500 326.2500 Du        
   5892 ****       113.7500 241.7500 326.5000 Du        
   5893 ****       113.7500 241.7500 326.7500 Du        
   5894 ****       113.7500 241.7500 327.0000 Du        
   5895 ****       113.7500 241.7500 327.2500 Du        
   5896 ****       113.7500 241.7500 327.5000 Du        
   5897 ****       113.7500 241.7500 327.7500 Du        
   5898 ****       113.7500 241.7500 328.0000 Du        
   5899 ****       113.7500 241.7500 328.2500 Du        
   5900 ****       113.7500 241.7500 328.5000 Du        
   5901 ****       113.7500 241.7500 328.7500 Du        
   5902 ****       113.7500 241.7500 329.0000 Du        
   5903 ****       113.7500 242.0000 325.0000 Du        
   5904 ****       113.7500 242.0000 325.2500 Du        
   5905 ****       113.7500 242.0000 325.5000 Du        
   5906 ****       113.7500 242.0000 325.7500 Du        
   5907 ****       113.7500 242.0000 326.0000 Du        
   5908 ****       113.7500 242.0000 326.2500 Du        
   5909 ****       113.7500 242.0000 326.5000 Du        
   5910 ****       113.7500 242.0000 326.7500 Du        
   5911 ****       113.7500 242.0000 327.0000 Du        
   5912 ****       113.7500 242.0000 327.2500 Du        
   5913 ****       113.7500 242.0000 327.5000 Du        
   5914 ****       113.7500 242.0000 327.7500 Du        
   5915 ****       113.7500 242.0000 328.0000 Du        
   5916 ****       113.7500 242.0000 328.2500 Du        
   5917 ****       113.7500 242.0000 328.5000 Du        
   5918 ****       113.7500 242.0000 328.7500 Du        
   5919 ****       113.7500 242.0000 329.0000 Du        
   5920 ****       113.7500 242.0000 329.2500 Du        
   5921 ****       113.7500 242.2500 325.0000 Du        
   5922 ****       113.7500 242.2500 325.2500 Du        
   5923 ****       113.7500 242.2500 325.5000 Du        
   5924 ****       113.7500 242.2500 325.7500 Du        
   5925 ****       113.7500 242.2500 326.0000 Du        
   5926 ****       113.7500 242.2500 326.2500 Du        
   5927 ****       113.7500 242.2500 326.5000 Du        
   5928 ****       113.7500 242.2500 326.7500 Du        
   5929 ****       113.7500 242.2500 327.0000 Du        
   5930 ****       113.7500 242.2500 327.2500 Du        
   5931 ****       113.7500 242.2500 327.5000 Du        
   5932 ****       113.7500 242.2500 327.7500 Du        
   5933 ****       113.7500 242.2500 328.0000 Du        
   5934 ****       113.7500 242.2500 328.2500 Du        
   5935 ****       113.7500 242.2500 328.5000 Du        
   5936 ****       113.7500 242.2500 328.7500 Du        
   5937 ****       113.7500 242.2500 329.0000 Du        
   5938 ****       113.7500 242.2500 329.2500 Du        
   5939 ****       113.7500 242.2500 329.5000 Du        
   5940 ****       113.7500 242.5000 324.7500 Du        
   5941 ****       113.7500 242.5000 325.0000 Du        
   5942 ****       113.7500 242.5000 325.2500 Du        
   5943 ****       113.7500 242.5000 325.5000 Du        
   5944 ****       113.7500 242.5000 325.7500 Du        
   5945 ****       113.7500 242.5000 326.0000 Du        
   5946 ****       113.7500 242.5000 326.2500 Du        
   5947 ****       113.7500 242.5000 326.5000 Du        
   5948 ****       113.7500 242.5000 326.7500 Du        
   5949 ****       113.7500 242.5000 327.0000 Du        
   5950 ****       113.7500 242.5000 327.2500 Du        
   5951 ****       113.7500 242.5000 327.5000 Du        
   5952 ****       113.7500 242.5000 327.7500 Du        
   5953 ****       113.7500 242.5000 328.0000 Du        
   5954 ****       113.7500 242.5000 328.2500 Du        
   5955 ****       113.7500 242.5000 328.5000 Du        
   5956 ****       113.7500 242.5000 328.7500 Du        
   5957 ****       113.7500 242.5000 329.0000 Du        
   5958 ****       113.7500 242.5000 329.2500 Du        
   5959 ****       113.7500 242.5000 329.5000 Du        
   5960 ****       113.7500 242.7500 324.7500 Du        
   5961 ****       113.7500 242.7500 325.0000 Du        
   5962 ****       113.7500 242.7500 325.2500 Du        
   5963 ****       113.7500 242.7500 325.5000 Du        
   5964 ****       113.7500 242.7500 325.7500 Du        
   5965 ****       113.7500 242.7500 326.0000 Du        
   5966 ****       113.7500 242.7500 326.2500 Du        
   5967 ****       113.7500 242.7500 326.5000 Du        
   5968 ****       113.7500 242.7500 326.7500 Du        
   5969 ****       113.7500 242.7500 327.0000 Du        
   5970 ****       113.7500 242.7500 327.2500 Du        
   5971 ****       113.7500 242.7500 327.5000 Du        
   5972 ****       113.7500 242.7500 327.7500 Du        
   5973 ****       113.7500 242.7500 328.0000 Du        
   5974 ****       113.7500 242.7500 328.2500 Du        
   5975 ****       113.7500 242.7500 328.5000 Du        
   5976 ****       113.7500 242.7500 328.7500 Du        
   5977 ****       113.7500 242.7500 329.0000 Du        
   5978 ****       113.7500 242.7500 329.2500 Du        
   5979 ****       113.7500 242.7500 329.5000 Du        
   5980 ****       113.7500 242.7500 329.7500 Du        
   5981 ****       113.7500 243.0000 324.7500 Du        
   5982 ****       113.7500 243.0000 325.0000 Du        
   5983 ****       113.7500 243.0000 325.2500 Du        
   5984 ****       113.7500 243.0000 325.5000 Du        
   5985 ****       113.7500 243.0000 325.7500 Du        
   5986 ****       113.7500 243.0000 326.0000 Du        
   5987 ****       113.7500 243.0000 326.2500 Du        
   5988 ****       113.7500 243.0000 326.5000 Du        
   5989 ****       113.7500 243.0000 326.7500 Du        
   5990 ****       113.7500 243.0000 327.0000 Du        
   5991 ****       113.7500 243.0000 327.2500 Du        
   5992 ****       113.7500 243.0000 327.5000 Du        
   5993 ****       113.7500 243.0000 327.7500 Du        
   5994 ****       113.7500 243.0000 328.0000 Du        
   5995 ****       113.7500 243.0000 328.2500 Du        
   5996 ****       113.7500 243.0000 328.5000 Du        
   5997 ****       113.7500 243.0000 328.7500 Du        
   5998 ****       113.7500 243.0000 329.0000 Du        
   5999 ****       113.7500 243.0000 329.2500 Du        
   6000 ****       113.7500 243.0000 329.5000 Du        
   6001 ****       113.7500 243.0000 329.7500 Du        
   6002 ****       113.7500 243.2500 324.5000 Du        
   6003 ****       113.7500 243.2500 324.7500 Du        
   6004 ****       113.7500 243.2500 325.0000 Du        
   6005 ****       113.7500 243.2500 325.2500 Du        
   6006 ****       113.7500 243.2500 325.5000 Du        
   6007 ****       113.7500 243.2500 325.7500 Du        
   6008 ****       113.7500 243.2500 326.0000 Du        
   6009 ****       113.7500 243.2500 326.2500 Du        
   6010 ****       113.7500 243.2500 326.5000 Du        
   6011 ****       113.7500 243.2500 326.7500 Du        
   6012 ****       113.7500 243.2500 327.0000 Du        
   6013 ****       113.7500 243.2500 327.2500 Du        
   6014 ****       113.7500 243.5000 324.7500 Du        
   6015 ****       113.7500 243.5000 325.0000 Du        
   6016 ****       113.7500 243.5000 325.2500 Du        
   6017 ****       113.7500 243.5000 325.5000 Du        
   6018 ****       113.7500 243.5000 325.7500 Du        
   6019 ****       113.7500 243.5000 326.0000 Du        
   6020 ****       113.7500 243.5000 326.2500 Du        
   6021 ****       113.7500 243.5000 326.5000 Du        
   6022 ****       113.7500 243.7500 324.5000 Du        
   6023 ****       113.7500 243.7500 324.7500 Du        
   6024 ****       113.7500 243.7500 325.0000 Du        
   6025 ****       113.7500 243.7500 325.2500 Du        
   6026 ****       113.7500 243.7500 325.5000 Du        
   6027 ****       113.7500 243.7500 325.7500 Du        
   6028 ****       113.7500 243.7500 326.0000 Du        
   6029 ****       113.7500 243.7500 326.2500 Du        
   6030 ****       113.7500 244.0000 324.2500 Du        
   6031 ****       113.7500 244.0000 324.5000 Du        
   6032 ****       113.7500 244.0000 324.7500 Du        
   6033 ****       113.7500 244.0000 325.0000 Du        
   6034 ****       113.7500 244.0000 325.2500 Du        
   6035 ****       113.7500 244.0000 325.5000 Du        
   6036 ****       113.7500 244.0000 325.7500 Du        
   6037 ****       113.7500 244.0000 326.0000 Du        
   6038 ****       113.7500 244.0000 326.2500 Du        
   6039 ****       113.7500 244.2500 324.0000 Du        
   6040 ****       113.7500 244.2500 324.2500 Du        
   6041 ****       113.7500 244.2500 324.5000 Du        
   6042 ****       113.7500 244.2500 324.7500 Du        
   6043 ****       113.7500 244.2500 325.0000 Du        
   6044 ****       113.7500 244.2500 325.2500 Du        
   6045 ****       113.7500 244.2500 325.5000 Du        
   6046 ****       113.7500 244.2500 325.7500 Du        
   6047 ****       113.7500 244.5000 324.0000 Du        
   6048 ****       113.7500 244.5000 324.2500 Du        
   6049 ****       113.7500 244.5000 324.5000 Du        
   6050 ****       113.7500 244.5000 324.7500 Du        
   6051 ****       113.7500 244.5000 325.0000 Du        
   6052 ****       113.7500 244.5000 325.2500 Du        
   6053 ****       113.7500 244.7500 324.2500 Du        
   6054 ****       113.7500 244.7500 324.5000 Du        
   6055 ****       113.7500 244.7500 324.7500 Du        
   6056 ****       113.7500 244.7500 325.0000 Du        
   6057 ****       113.7500 244.7500 325.2500 Du        
   6058 ****       113.7500 244.7500 325.5000 Du        
   6059 ****       113.7500 245.0000 324.7500 Du        
   6060 ****       113.7500 245.0000 325.0000 Du        
   6061 ****       113.7500 245.0000 325.2500 Du        
   6062 ****       113.7500 245.2500 324.7500 Du        
   6063 ****       113.7500 245.2500 325.0000 Du        
   6064 ****       113.7500 245.2500 325.2500 Du        
   6065 ****       113.7500 245.5000 325.0000 Du        
   6066 ****       113.7500 245.5000 325.2500 Du        
   6067 ****       113.7500 245.7500 325.2500 Du        
   6068 ****       113.7500 246.0000 325.2500 Du        
   6069 ****       113.7500 246.2500 325.2500 Du        
   6070 ****       113.7500 247.0000 325.2500 Du        
   6071 ****       114.0000 241.2500 326.5000 Du        
   6072 ****       114.0000 241.2500 326.7500 Du        
   6073 ****       114.0000 241.5000 326.2500 Du        
   6074 ****       114.0000 241.5000 326.5000 Du        
   6075 ****       114.0000 241.5000 326.7500 Du        
   6076 ****       114.0000 241.7500 325.7500 Du        
   6077 ****       114.0000 241.7500 326.0000 Du        
   6078 ****       114.0000 241.7500 326.2500 Du        
   6079 ****       114.0000 241.7500 326.5000 Du        
   6080 ****       114.0000 241.7500 326.7500 Du        
   6081 ****       114.0000 241.7500 327.0000 Du        
   6082 ****       114.0000 241.7500 327.2500 Du        
   6083 ****       114.0000 241.7500 327.5000 Du        
   6084 ****       114.0000 241.7500 327.7500 Du        
   6085 ****       114.0000 241.7500 328.0000 Du        
   6086 ****       114.0000 241.7500 328.2500 Du        
   6087 ****       114.0000 241.7500 328.5000 Du        
   6088 ****       114.0000 241.7500 328.7500 Du        
   6089 ****       114.0000 241.7500 329.0000 Du        
   6090 ****       114.0000 242.0000 325.2500 Du        
   6091 ****       114.0000 242.0000 325.5000 Du        
   6092 ****       114.0000 242.0000 325.7500 Du        
   6093 ****       114.0000 242.0000 326.0000 Du        
   6094 ****       114.0000 242.0000 326.2500 Du        
   6095 ****       114.0000 242.0000 326.5000 Du        
   6096 ****       114.0000 242.0000 326.7500 Du        
   6097 ****       114.0000 242.0000 327.0000 Du        
   6098 ****       114.0000 242.0000 327.2500 Du        
   6099 ****       114.0000 242.0000 327.5000 Du        
   6100 ****       114.0000 242.0000 327.7500 Du        
   6101 ****       114.0000 242.0000 328.0000 Du        
   6102 ****       114.0000 242.0000 328.2500 Du        
   6103 ****       114.0000 242.0000 328.5000 Du        
   6104 ****       114.0000 242.0000 328.7500 Du        
   6105 ****       114.0000 242.0000 329.0000 Du        
   6106 ****       114.0000 242.0000 329.2500 Du        
   6107 ****       114.0000 242.2500 325.0000 Du        
   6108 ****       114.0000 242.2500 325.2500 Du        
   6109 ****       114.0000 242.2500 325.5000 Du        
   6110 ****       114.0000 242.2500 325.7500 Du        
   6111 ****       114.0000 242.2500 326.0000 Du        
   6112 ****       114.0000 242.2500 326.2500 Du        
   6113 ****       114.0000 242.2500 326.5000 Du        
   6114 ****       114.0000 242.2500 326.7500 Du        
   6115 ****       114.0000 242.2500 327.0000 Du        
   6116 ****       114.0000 242.2500 327.2500 Du        
   6117 ****       114.0000 242.2500 327.5000 Du        
   6118 ****       114.0000 242.2500 327.7500 Du        
   6119 ****       114.0000 242.2500 328.0000 Du        
   6120 ****       114.0000 242.2500 328.2500 Du        
   6121 ****       114.0000 242.2500 328.5000 Du        
   6122 ****       114.0000 242.2500 328.7500 Du        
   6123 ****       114.0000 242.2500 329.0000 Du        
   6124 ****       114.0000 242.2500 329.2500 Du        
   6125 ****       114.0000 242.2500 329.5000 Du        
   6126 ****       114.0000 242.5000 325.0000 Du        
   6127 ****       114.0000 242.5000 325.2500 Du        
   6128 ****       114.0000 242.5000 325.5000 Du        
   6129 ****       114.0000 242.5000 325.7500 Du        
   6130 ****       114.0000 242.5000 326.0000 Du        
   6131 ****       114.0000 242.5000 326.2500 Du        
   6132 ****       114.0000 242.5000 326.5000 Du        
   6133 ****       114.0000 242.5000 326.7500 Du        
   6134 ****       114.0000 242.5000 327.0000 Du        
   6135 ****       114.0000 242.5000 327.2500 Du        
   6136 ****       114.0000 242.5000 327.5000 Du        
   6137 ****       114.0000 242.5000 327.7500 Du        
   6138 ****       114.0000 242.5000 328.0000 Du        
   6139 ****       114.0000 242.5000 328.2500 Du        
   6140 ****       114.0000 242.5000 328.5000 Du        
   6141 ****       114.0000 242.5000 328.7500 Du        
   6142 ****       114.0000 242.5000 329.0000 Du        
   6143 ****       114.0000 242.5000 329.2500 Du        
   6144 ****       114.0000 242.5000 329.5000 Du        
   6145 ****       114.0000 242.7500 324.7500 Du        
   6146 ****       114.0000 242.7500 325.0000 Du        
   6147 ****       114.0000 242.7500 325.2500 Du        
   6148 ****       114.0000 242.7500 325.5000 Du        
   6149 ****       114.0000 242.7500 325.7500 Du        
   6150 ****       114.0000 242.7500 326.0000 Du        
   6151 ****       114.0000 242.7500 326.2500 Du        
   6152 ****       114.0000 242.7500 326.5000 Du        
   6153 ****       114.0000 242.7500 326.7500 Du        
   6154 ****       114.0000 242.7500 327.0000 Du        
   6155 ****       114.0000 242.7500 327.2500 Du        
   6156 ****       114.0000 242.7500 327.5000 Du        
   6157 ****       114.0000 242.7500 327.7500 Du        
   6158 ****       114.0000 242.7500 328.0000 Du        
   6159 ****       114.0000 242.7500 328.2500 Du        
   6160 ****       114.0000 242.7500 328.5000 Du        
   6161 ****       114.0000 242.7500 328.7500 Du        
   6162 ****       114.0000 242.7500 329.0000 Du        
   6163 ****       114.0000 242.7500 329.2500 Du        
   6164 ****       114.0000 242.7500 329.5000 Du        
   6165 ****       114.0000 242.7500 329.7500 Du        
   6166 ****       114.0000 243.0000 324.7500 Du        
   6167 ****       114.0000 243.0000 325.0000 Du        
   6168 ****       114.0000 243.0000 325.2500 Du        
   6169 ****       114.0000 243.0000 325.5000 Du        
   6170 ****       114.0000 243.0000 325.7500 Du        
   6171 ****       114.0000 243.0000 326.0000 Du        
   6172 ****       114.0000 243.0000 326.2500 Du        
   6173 ****       114.0000 243.0000 326.5000 Du        
   6174 ****       114.0000 243.0000 326.7500 Du        
   6175 ****       114.0000 243.0000 327.0000 Du        
   6176 ****       114.0000 243.0000 327.2500 Du        
   6177 ****       114.0000 243.0000 327.5000 Du        
   6178 ****       114.0000 243.0000 327.7500 Du        
   6179 ****       114.0000 243.0000 328.0000 Du        
   6180 ****       114.0000 243.0000 328.2500 Du        
   6181 ****       114.0000 243.0000 328.5000 Du        
   6182 ****       114.0000 243.0000 328.7500 Du        
   6183 ****       114.0000 243.0000 329.0000 Du        
   6184 ****       114.0000 243.0000 329.2500 Du        
   6185 ****       114.0000 243.0000 329.5000 Du        
   6186 ****       114.0000 243.2500 324.5000 Du        
   6187 ****       114.0000 243.2500 324.7500 Du        
   6188 ****       114.0000 243.2500 325.0000 Du        
   6189 ****       114.0000 243.2500 325.2500 Du        
   6190 ****       114.0000 243.2500 325.5000 Du        
   6191 ****       114.0000 243.2500 325.7500 Du        
   6192 ****       114.0000 243.2500 326.0000 Du        
   6193 ****       114.0000 243.2500 326.2500 Du        
   6194 ****       114.0000 243.2500 326.5000 Du        
   6195 ****       114.0000 243.2500 326.7500 Du        
   6196 ****       114.0000 243.2500 327.0000 Du        
   6197 ****       114.0000 243.2500 327.2500 Du        
   6198 ****       114.0000 243.5000 324.5000 Du        
   6199 ****       114.0000 243.5000 324.7500 Du        
   6200 ****       114.0000 243.5000 325.0000 Du        
   6201 ****       114.0000 243.5000 325.2500 Du        
   6202 ****       114.0000 243.5000 325.5000 Du        
   6203 ****       114.0000 243.5000 325.7500 Du        
   6204 ****       114.0000 243.5000 326.0000 Du        
   6205 ****       114.0000 243.5000 326.2500 Du        
   6206 ****       114.0000 243.5000 326.5000 Du        
   6207 ****       114.0000 243.5000 326.7500 Du        
   6208 ****       114.0000 243.7500 324.2500 Du        
   6209 ****       114.0000 243.7500 324.5000 Du        
   6210 ****       114.0000 243.7500 324.7500 Du        
   6211 ****       114.0000 243.7500 325.0000 Du        
   6212 ****       114.0000 243.7500 325.2500 Du        
   6213 ****       114.0000 243.7500 325.5000 Du        
   6214 ****       114.0000 243.7500 325.7500 Du        
   6215 ****       114.0000 243.7500 326.0000 Du        
   6216 ****       114.0000 243.7500 326.2500 Du        
   6217 ****       114.0000 244.0000 324.2500 Du        
   6218 ****       114.0000 244.0000 324.5000 Du        
   6219 ****       114.0000 244.0000 324.7500 Du        
   6220 ****       114.0000 244.0000 325.0000 Du        
   6221 ****       114.0000 244.0000 325.2500 Du        
   6222 ****       114.0000 244.0000 325.5000 Du        
   6223 ****       114.0000 244.0000 325.7500 Du        
   6224 ****       114.0000 244.0000 326.0000 Du        
   6225 ****       114.0000 244.0000 326.2500 Du        
   6226 ****       114.0000 244.2500 324.0000 Du        
   6227 ****       114.0000 244.2500 324.2500 Du        
   6228 ****       114.0000 244.2500 324.5000 Du        
   6229 ****       114.0000 244.2500 324.7500 Du        
   6230 ****       114.0000 244.2500 325.0000 Du        
   6231 ****       114.0000 244.2500 325.2500 Du        
   6232 ****       114.0000 244.2500 325.5000 Du        
   6233 ****       114.0000 244.2500 325.7500 Du        
   6234 ****       114.0000 244.2500 326.0000 Du        
   6235 ****       114.0000 244.5000 324.0000 Du        
   6236 ****       114.0000 244.5000 324.2500 Du        
   6237 ****       114.0000 244.5000 324.5000 Du        
   6238 ****       114.0000 244.5000 324.7500 Du        
   6239 ****       114.0000 244.5000 325.0000 Du        
   6240 ****       114.0000 244.5000 325.2500 Du        
   6241 ****       114.0000 244.5000 325.5000 Du        
   6242 ****       114.0000 244.7500 324.2500 Du        
   6243 ****       114.0000 244.7500 324.5000 Du        
   6244 ****       114.0000 244.7500 324.7500 Du        
   6245 ****       114.0000 244.7500 325.0000 Du        
   6246 ****       114.0000 244.7500 325.2500 Du        
   6247 ****       114.0000 244.7500 325.5000 Du        
   6248 ****       114.0000 245.0000 324.5000 Du        
   6249 ****       114.0000 245.0000 324.7500 Du        
   6250 ****       114.0000 245.0000 325.0000 Du        
   6251 ****       114.0000 245.0000 325.2500 Du        
   6252 ****       114.0000 245.0000 325.5000 Du        
   6253 ****       114.0000 245.2500 324.7500 Du        
   6254 ****       114.0000 245.2500 325.0000 Du        
   6255 ****       114.0000 245.2500 325.2500 Du        
   6256 ****       114.0000 245.2500 325.5000 Du        
   6257 ****       114.0000 245.5000 325.0000 Du        
   6258 ****       114.0000 245.5000 325.2500 Du        
   6259 ****       114.0000 245.7500 325.0000 Du        
   6260 ****       114.0000 245.7500 325.2500 Du        
   6261 ****       114.0000 246.0000 325.2500 Du        
   6262 ****       114.0000 246.2500 325.2500 Du        
   6263 ****       114.2500 242.0000 326.2500 Du        
   6264 ****       114.2500 242.0000 328.5000 Du        
   6265 ****       114.2500 242.0000 328.7500 Du        
   6266 ****       114.2500 242.0000 329.0000 Du        
   6267 ****       114.2500 242.2500 325.7500 Du        
   6268 ****       114.2500 242.2500 326.0000 Du        
   6269 ****       114.2500 242.2500 326.2500 Du        
   6270 ****       114.2500 242.2500 326.5000 Du        
   6271 ****       114.2500 242.2500 326.7500 Du        
   6272 ****       114.2500 242.2500 327.0000 Du        
   6273 ****       114.2500 242.2500 327.2500 Du        
   6274 ****       114.2500 242.2500 328.0000 Du        
   6275 ****       114.2500 242.2500 328.2500 Du        
   6276 ****       114.2500 242.2500 328.5000 Du        
   6277 ****       114.2500 242.2500 328.7500 Du        
   6278 ****       114.2500 242.2500 329.0000 Du        
   6279 ****       114.2500 242.2500 329.2500 Du        
   6280 ****       114.2500 242.2500 329.5000 Du        
   6281 ****       114.2500 242.5000 325.0000 Du        
   6282 ****       114.2500 242.5000 325.2500 Du        
   6283 ****       114.2500 242.5000 325.5000 Du        
   6284 ****       114.2500 242.5000 325.7500 Du        
   6285 ****       114.2500 242.5000 326.0000 Du        
   6286 ****       114.2500 242.5000 326.2500 Du        
   6287 ****       114.2500 242.5000 326.5000 Du        
   6288 ****       114.2500 242.5000 326.7500 Du        
   6289 ****       114.2500 242.5000 327.0000 Du        
   6290 ****       114.2500 242.5000 327.2500 Du        
   6291 ****       114.2500 242.5000 327.5000 Du        
   6292 ****       114.2500 242.5000 327.7500 Du        
   6293 ****       114.2500 242.5000 328.0000 Du        
   6294 ****       114.2500 242.5000 328.2500 Du        
   6295 ****       114.2500 242.5000 328.5000 Du        
   6296 ****       114.2500 242.5000 328.7500 Du        
   6297 ****       114.2500 242.5000 329.0000 Du        
   6298 ****       114.2500 242.5000 329.2500 Du        
   6299 ****       114.2500 242.5000 329.5000 Du        
   6300 ****       114.2500 242.7500 324.7500 Du        
   6301 ****       114.2500 242.7500 325.0000 Du        
   6302 ****       114.2500 242.7500 325.2500 Du        
   6303 ****       114.2500 242.7500 325.5000 Du        
   6304 ****       114.2500 242.7500 325.7500 Du        
   6305 ****       114.2500 242.7500 326.0000 Du        
   6306 ****       114.2500 242.7500 326.2500 Du        
   6307 ****       114.2500 242.7500 326.5000 Du        
   6308 ****       114.2500 242.7500 326.7500 Du        
   6309 ****       114.2500 242.7500 327.0000 Du        
   6310 ****       114.2500 242.7500 327.2500 Du        
   6311 ****       114.2500 242.7500 327.5000 Du        
   6312 ****       114.2500 242.7500 327.7500 Du        
   6313 ****       114.2500 242.7500 328.0000 Du        
   6314 ****       114.2500 242.7500 328.2500 Du        
   6315 ****       114.2500 242.7500 328.5000 Du        
   6316 ****       114.2500 242.7500 328.7500 Du        
   6317 ****       114.2500 242.7500 329.0000 Du        
   6318 ****       114.2500 242.7500 329.2500 Du        
   6319 ****       114.2500 242.7500 329.5000 Du        
   6320 ****       114.2500 242.7500 329.7500 Du        
   6321 ****       114.2500 243.0000 324.7500 Du        
   6322 ****       114.2500 243.0000 325.0000 Du        
   6323 ****       114.2500 243.0000 325.2500 Du        
   6324 ****       114.2500 243.0000 325.5000 Du        
   6325 ****       114.2500 243.0000 325.7500 Du        
   6326 ****       114.2500 243.0000 326.0000 Du        
   6327 ****       114.2500 243.0000 326.2500 Du        
   6328 ****       114.2500 243.0000 326.5000 Du        
   6329 ****       114.2500 243.0000 326.7500 Du        
   6330 ****       114.2500 243.0000 327.0000 Du        
   6331 ****       114.2500 243.0000 327.2500 Du        
   6332 ****       114.2500 243.0000 327.5000 Du        
   6333 ****       114.2500 243.0000 327.7500 Du        
   6334 ****       114.2500 243.0000 328.0000 Du        
   6335 ****       114.2500 243.0000 328.2500 Du        
   6336 ****       114.2500 243.0000 328.5000 Du        
   6337 ****       114.2500 243.0000 328.7500 Du        
   6338 ****       114.2500 243.0000 329.0000 Du        
   6339 ****       114.2500 243.0000 329.2500 Du        
   6340 ****       114.2500 243.2500 324.5000 Du        
   6341 ****       114.2500 243.2500 324.7500 Du        
   6342 ****       114.2500 243.2500 325.0000 Du        
   6343 ****       114.2500 243.2500 325.2500 Du        
   6344 ****       114.2500 243.2500 325.5000 Du        
   6345 ****       114.2500 243.2500 325.7500 Du        
   6346 ****       114.2500 243.2500 326.0000 Du        
   6347 ****       114.2500 243.2500 326.2500 Du        
   6348 ****       114.2500 243.2500 326.5000 Du        
   6349 ****       114.2500 243.2500 326.7500 Du        
   6350 ****       114.2500 243.2500 327.0000 Du        
   6351 ****       114.2500 243.5000 324.2500 Du        
   6352 ****       114.2500 243.5000 324.5000 Du        
   6353 ****       114.2500 243.5000 324.7500 Du        
   6354 ****       114.2500 243.5000 325.0000 Du        
   6355 ****       114.2500 243.5000 325.2500 Du        
   6356 ****       114.2500 243.5000 325.5000 Du        
   6357 ****       114.2500 243.5000 325.7500 Du        
   6358 ****       114.2500 243.5000 326.0000 Du        
   6359 ****       114.2500 243.5000 326.2500 Du        
   6360 ****       114.2500 243.5000 326.5000 Du        
   6361 ****       114.2500 243.7500 324.2500 Du        
   6362 ****       114.2500 243.7500 324.5000 Du        
   6363 ****       114.2500 243.7500 324.7500 Du        
   6364 ****       114.2500 243.7500 325.0000 Du        
   6365 ****       114.2500 243.7500 325.2500 Du        
   6366 ****       114.2500 243.7500 325.5000 Du        
   6367 ****       114.2500 243.7500 325.7500 Du        
   6368 ****       114.2500 243.7500 326.0000 Du        
   6369 ****       114.2500 243.7500 326.2500 Du        
   6370 ****       114.2500 244.0000 324.0000 Du        
   6371 ****       114.2500 244.0000 324.2500 Du        
   6372 ****       114.2500 244.0000 324.5000 Du        
   6373 ****       114.2500 244.0000 324.7500 Du        
   6374 ****       114.2500 244.0000 325.0000 Du        
   6375 ****       114.2500 244.0000 325.2500 Du        
   6376 ****       114.2500 244.0000 325.5000 Du        
   6377 ****       114.2500 244.0000 325.7500 Du        
   6378 ****       114.2500 244.0000 326.0000 Du        
   6379 ****       114.2500 244.0000 326.2500 Du        
   6380 ****       114.2500 244.2500 324.0000 Du        
   6381 ****       114.2500 244.2500 324.2500 Du        
   6382 ****       114.2500 244.2500 324.5000 Du        
   6383 ****       114.2500 244.2500 324.7500 Du        
   6384 ****       114.2500 244.2500 325.0000 Du        
   6385 ****       114.2500 244.2500 325.2500 Du        
   6386 ****       114.2500 244.2500 325.5000 Du        
   6387 ****       114.2500 244.2500 325.7500 Du        
   6388 ****       114.2500 244.2500 326.0000 Du        
   6389 ****       114.2500 244.5000 324.0000 Du        
   6390 ****       114.2500 244.5000 324.2500 Du        
   6391 ****       114.2500 244.5000 324.5000 Du        
   6392 ****       114.2500 244.5000 324.7500 Du        
   6393 ****       114.2500 244.5000 325.0000 Du        
   6394 ****       114.2500 244.5000 325.2500 Du        
   6395 ****       114.2500 244.5000 325.5000 Du        
   6396 ****       114.2500 244.7500 324.0000 Du        
   6397 ****       114.2500 244.7500 324.2500 Du        
   6398 ****       114.2500 244.7500 324.5000 Du        
   6399 ****       114.2500 244.7500 324.7500 Du        
   6400 ****       114.2500 244.7500 325.0000 Du        
   6401 ****       114.2500 244.7500 325.2500 Du        
   6402 ****       114.2500 244.7500 325.5000 Du        
   6403 ****       114.2500 245.0000 324.5000 Du        
   6404 ****       114.2500 245.0000 324.7500 Du        
   6405 ****       114.2500 245.0000 325.0000 Du        
   6406 ****       114.2500 245.0000 325.2500 Du        
   6407 ****       114.2500 245.0000 325.5000 Du        
   6408 ****       114.2500 245.2500 324.7500 Du        
   6409 ****       114.2500 245.2500 325.0000 Du        
   6410 ****       114.2500 245.2500 325.2500 Du        
   6411 ****       114.2500 245.2500 325.5000 Du        
   6412 ****       114.2500 245.5000 325.0000 Du        
   6413 ****       114.2500 245.5000 325.2500 Du        
   6414 ****       114.2500 245.7500 325.0000 Du        
   6415 ****       114.2500 245.7500 325.2500 Du        
   6416 ****       114.2500 246.0000 325.2500 Du        
   6417 ****       114.5000 242.5000 329.0000 Du        
   6418 ****       114.5000 242.5000 329.2500 Du        
   6419 ****       114.5000 242.7500 324.7500 Du        
   6420 ****       114.5000 242.7500 325.0000 Du        
   6421 ****       114.5000 242.7500 325.2500 Du        
   6422 ****       114.5000 242.7500 325.5000 Du        
   6423 ****       114.5000 242.7500 325.7500 Du        
   6424 ****       114.5000 242.7500 326.0000 Du        
   6425 ****       114.5000 242.7500 326.2500 Du        
   6426 ****       114.5000 242.7500 326.5000 Du        
   6427 ****       114.5000 242.7500 326.7500 Du        
   6428 ****       114.5000 242.7500 327.0000 Du        
   6429 ****       114.5000 242.7500 328.7500 Du        
   6430 ****       114.5000 242.7500 329.0000 Du        
   6431 ****       114.5000 242.7500 329.2500 Du        
   6432 ****       114.5000 242.7500 329.5000 Du        
   6433 ****       114.5000 243.0000 324.5000 Du        
   6434 ****       114.5000 243.0000 324.7500 Du        
   6435 ****       114.5000 243.0000 325.0000 Du        
   6436 ****       114.5000 243.0000 325.2500 Du        
   6437 ****       114.5000 243.0000 325.5000 Du        
   6438 ****       114.5000 243.0000 325.7500 Du        
   6439 ****       114.5000 243.0000 326.0000 Du        
   6440 ****       114.5000 243.0000 326.2500 Du        
   6441 ****       114.5000 243.0000 326.5000 Du        
   6442 ****       114.5000 243.0000 326.7500 Du        
   6443 ****       114.5000 243.2500 324.2500 Du        
   6444 ****       114.5000 243.2500 324.5000 Du        
   6445 ****       114.5000 243.2500 324.7500 Du        
   6446 ****       114.5000 243.2500 325.0000 Du        
   6447 ****       114.5000 243.2500 325.2500 Du        
   6448 ****       114.5000 243.2500 325.5000 Du        
   6449 ****       114.5000 243.2500 325.7500 Du        
   6450 ****       114.5000 243.2500 326.0000 Du        
   6451 ****       114.5000 243.2500 326.2500 Du        
   6452 ****       114.5000 243.2500 326.5000 Du        
   6453 ****       114.5000 243.5000 324.2500 Du        
   6454 ****       114.5000 243.5000 324.5000 Du        
   6455 ****       114.5000 243.5000 324.7500 Du        
   6456 ****       114.5000 243.5000 325.0000 Du        
   6457 ****       114.5000 243.5000 325.2500 Du        
   6458 ****       114.5000 243.5000 325.5000 Du        
   6459 ****       114.5000 243.5000 325.7500 Du        
   6460 ****       114.5000 243.5000 326.0000 Du        
   6461 ****       114.5000 243.5000 326.2500 Du        
   6462 ****       114.5000 243.7500 324.0000 Du        
   6463 ****       114.5000 243.7500 324.2500 Du        
   6464 ****       114.5000 243.7500 324.5000 Du        
   6465 ****       114.5000 243.7500 324.7500 Du        
   6466 ****       114.5000 243.7500 325.0000 Du        
   6467 ****       114.5000 243.7500 325.2500 Du        
   6468 ****       114.5000 243.7500 325.5000 Du        
   6469 ****       114.5000 243.7500 325.7500 Du        
   6470 ****       114.5000 243.7500 326.0000 Du        
   6471 ****       114.5000 243.7500 326.2500 Du        
   6472 ****       114.5000 244.0000 323.7500 Du        
   6473 ****       114.5000 244.0000 324.0000 Du        
   6474 ****       114.5000 244.0000 324.2500 Du        
   6475 ****       114.5000 244.0000 324.5000 Du        
   6476 ****       114.5000 244.0000 324.7500 Du        
   6477 ****       114.5000 244.0000 325.0000 Du        
   6478 ****       114.5000 244.0000 325.2500 Du        
   6479 ****       114.5000 244.0000 325.5000 Du        
   6480 ****       114.5000 244.0000 325.7500 Du        
   6481 ****       114.5000 244.0000 326.0000 Du        
   6482 ****       114.5000 244.2500 323.7500 Du        
   6483 ****       114.5000 244.2500 324.0000 Du        
   6484 ****       114.5000 244.2500 324.2500 Du        
   6485 ****       114.5000 244.2500 324.5000 Du        
   6486 ****       114.5000 244.2500 324.7500 Du        
   6487 ****       114.5000 244.2500 325.0000 Du        
   6488 ****       114.5000 244.2500 325.2500 Du        
   6489 ****       114.5000 244.2500 325.5000 Du        
   6490 ****       114.5000 244.2500 325.7500 Du        
   6491 ****       114.5000 244.2500 326.0000 Du        
   6492 ****       114.5000 244.5000 323.7500 Du        
   6493 ****       114.5000 244.5000 324.0000 Du        
   6494 ****       114.5000 244.5000 324.2500 Du        
   6495 ****       114.5000 244.5000 324.5000 Du        
   6496 ****       114.5000 244.5000 324.7500 Du        
   6497 ****       114.5000 244.5000 325.0000 Du        
   6498 ****       114.5000 244.5000 325.2500 Du        
   6499 ****       114.5000 244.5000 325.5000 Du        
   6500 ****       114.5000 244.7500 324.0000 Du        
   6501 ****       114.5000 244.7500 324.2500 Du        
   6502 ****       114.5000 244.7500 324.5000 Du        
   6503 ****       114.5000 244.7500 324.7500 Du        
   6504 ****       114.5000 244.7500 325.0000 Du        
   6505 ****       114.5000 244.7500 325.2500 Du        
   6506 ****       114.5000 244.7500 325.5000 Du        
   6507 ****       114.5000 245.0000 324.2500 Du        
   6508 ****       114.5000 245.0000 324.5000 Du        
   6509 ****       114.5000 245.0000 324.7500 Du        
   6510 ****       114.5000 245.0000 325.0000 Du        
   6511 ****       114.5000 245.0000 325.2500 Du        
   6512 ****       114.5000 245.0000 325.5000 Du        
   6513 ****       114.5000 245.2500 324.5000 Du        
   6514 ****       114.5000 245.2500 324.7500 Du        
   6515 ****       114.5000 245.2500 325.0000 Du        
   6516 ****       114.5000 245.2500 325.2500 Du        
   6517 ****       114.5000 245.2500 325.5000 Du        
   6518 ****       114.5000 245.5000 324.7500 Du        
   6519 ****       114.5000 245.5000 325.0000 Du        
   6520 ****       114.5000 245.5000 325.2500 Du        
   6521 ****       114.5000 245.7500 324.7500 Du        
   6522 ****       114.5000 245.7500 325.0000 Du        
   6523 ****       114.5000 245.7500 325.2500 Du        
   6524 ****       114.5000 246.0000 325.0000 Du        
   6525 ****       114.5000 246.0000 325.2500 Du        
   6526 ****       114.5000 246.2500 325.0000 Du        
   6527 ****       114.5000 246.2500 325.2500 Du        
   6528 ****       114.5000 246.5000 325.2500 Du        
   6529 ****       114.7500 243.0000 324.5000 Du        
   6530 ****       114.7500 243.0000 324.7500 Du        
   6531 ****       114.7500 243.0000 325.0000 Du        
   6532 ****       114.7500 243.0000 325.2500 Du        
   6533 ****       114.7500 243.0000 325.5000 Du        
   6534 ****       114.7500 243.0000 325.7500 Du        
   6535 ****       114.7500 243.2500 324.2500 Du        
   6536 ****       114.7500 243.2500 324.5000 Du        
   6537 ****       114.7500 243.2500 324.7500 Du        
   6538 ****       114.7500 243.2500 325.0000 Du        
   6539 ****       114.7500 243.2500 325.2500 Du        
   6540 ****       114.7500 243.2500 325.5000 Du        
   6541 ****       114.7500 243.2500 325.7500 Du        
   6542 ****       114.7500 243.5000 324.0000 Du        
   6543 ****       114.7500 243.5000 324.2500 Du        
   6544 ****       114.7500 243.5000 324.5000 Du        
   6545 ****       114.7500 243.5000 324.7500 Du        
   6546 ****       114.7500 243.5000 325.0000 Du        
   6547 ****       114.7500 243.5000 325.2500 Du        
   6548 ****       114.7500 243.5000 325.5000 Du        
   6549 ****       114.7500 243.5000 325.7500 Du        
   6550 ****       114.7500 243.7500 324.0000 Du        
   6551 ****       114.7500 243.7500 324.2500 Du        
   6552 ****       114.7500 243.7500 324.5000 Du        
   6553 ****       114.7500 243.7500 324.7500 Du        
   6554 ****       114.7500 243.7500 325.0000 Du        
   6555 ****       114.7500 243.7500 325.2500 Du        
   6556 ****       114.7500 243.7500 325.5000 Du        
   6557 ****       114.7500 243.7500 325.7500 Du        
   6558 ****       114.7500 244.0000 323.7500 Du        
   6559 ****       114.7500 244.0000 324.0000 Du        
   6560 ****       114.7500 244.0000 324.2500 Du        
   6561 ****       114.7500 244.0000 324.5000 Du        
   6562 ****       114.7500 244.0000 324.7500 Du        
   6563 ****       114.7500 244.0000 325.0000 Du        
   6564 ****       114.7500 244.0000 325.2500 Du        
   6565 ****       114.7500 244.0000 325.5000 Du        
   6566 ****       114.7500 244.0000 325.7500 Du        
   6567 ****       114.7500 244.2500 323.7500 Du        
   6568 ****       114.7500 244.2500 324.0000 Du        
   6569 ****       114.7500 244.2500 324.2500 Du        
   6570 ****       114.7500 244.2500 324.5000 Du        
   6571 ****       114.7500 244.2500 324.7500 Du        
   6572 ****       114.7500 244.2500 325.0000 Du        
   6573 ****       114.7500 244.2500 325.2500 Du        
   6574 ****       114.7500 244.2500 325.5000 Du        
   6575 ****       114.7500 244.2500 325.7500 Du        
   6576 ****       114.7500 244.5000 323.7500 Du        
   6577 ****       114.7500 244.5000 324.0000 Du        
   6578 ****       114.7500 244.5000 324.2500 Du        
   6579 ****       114.7500 244.5000 324.5000 Du        
   6580 ****       114.7500 244.5000 324.7500 Du        
   6581 ****       114.7500 244.5000 325.0000 Du        
   6582 ****       114.7500 244.5000 325.2500 Du        
   6583 ****       114.7500 244.5000 325.5000 Du        
   6584 ****       114.7500 244.7500 323.7500 Du        
   6585 ****       114.7500 244.7500 324.0000 Du        
   6586 ****       114.7500 244.7500 324.2500 Du        
   6587 ****       114.7500 244.7500 324.5000 Du        
   6588 ****       114.7500 244.7500 324.7500 Du        
   6589 ****       114.7500 244.7500 325.0000 Du        
   6590 ****       114.7500 244.7500 325.2500 Du        
   6591 ****       114.7500 244.7500 325.5000 Du        
   6592 ****       114.7500 245.0000 324.0000 Du        
   6593 ****       114.7500 245.0000 324.2500 Du        
   6594 ****       114.7500 245.0000 324.5000 Du        
   6595 ****       114.7500 245.0000 324.7500 Du        
   6596 ****       114.7500 245.0000 325.0000 Du        
   6597 ****       114.7500 245.0000 325.2500 Du        
   6598 ****       114.7500 245.0000 325.5000 Du        
   6599 ****       114.7500 245.2500 324.2500 Du        
   6600 ****       114.7500 245.2500 324.5000 Du        
   6601 ****       114.7500 245.2500 324.7500 Du        
   6602 ****       114.7500 245.2500 325.0000 Du        
   6603 ****       114.7500 245.2500 325.2500 Du        
   6604 ****       114.7500 245.5000 324.7500 Du        
   6605 ****       114.7500 245.5000 325.0000 Du        
   6606 ****       114.7500 245.5000 325.2500 Du        
   6607 ****       114.7500 245.7500 324.7500 Du        
   6608 ****       114.7500 245.7500 325.0000 Du        
   6609 ****       114.7500 245.7500 325.2500 Du        
   6610 ****       114.7500 246.0000 325.0000 Du        
   6611 ****       114.7500 246.0000 325.2500 Du        
   6612 ****       114.7500 246.2500 325.0000 Du        
   6613 ****       114.7500 246.2500 325.2500 Du        
   6614 ****       115.0000 243.0000 324.5000 Du        
   6615 ****       115.0000 243.0000 324.7500 Du        
   6616 ****       115.0000 243.0000 325.0000 Du        
   6617 ****       115.0000 243.0000 325.2500 Du        
   6618 ****       115.0000 243.2500 324.0000 Du        
   6619 ****       115.0000 243.2500 324.2500 Du        
   6620 ****       115.0000 243.2500 324.5000 Du        
   6621 ****       115.0000 243.2500 324.7500 Du        
   6622 ****       115.0000 243.2500 325.0000 Du        
   6623 ****       115.0000 243.2500 325.2500 Du        
   6624 ****       115.0000 243.5000 324.0000 Du        
   6625 ****       115.0000 243.5000 324.2500 Du        
   6626 ****       115.0000 243.5000 324.5000 Du        
   6627 ****       115.0000 243.5000 324.7500 Du        
   6628 ****       115.0000 243.5000 325.0000 Du        
   6629 ****       115.0000 243.5000 325.2500 Du        
   6630 ****       115.0000 243.7500 323.7500 Du        
   6631 ****       115.0000 243.7500 324.0000 Du        
   6632 ****       115.0000 243.7500 324.2500 Du        
   6633 ****       115.0000 243.7500 324.5000 Du        
   6634 ****       115.0000 243.7500 324.7500 Du        
   6635 ****       115.0000 243.7500 325.0000 Du        
   6636 ****       115.0000 243.7500 325.2500 Du        
   6637 ****       115.0000 244.0000 323.5000 Du        
   6638 ****       115.0000 244.0000 323.7500 Du        
   6639 ****       115.0000 244.0000 324.0000 Du        
   6640 ****       115.0000 244.0000 324.2500 Du        
   6641 ****       115.0000 244.0000 324.5000 Du        
   6642 ****       115.0000 244.0000 324.7500 Du        
   6643 ****       115.0000 244.0000 325.0000 Du        
   6644 ****       115.0000 244.0000 325.2500 Du        
   6645 ****       115.0000 244.0000 325.5000 Du        
   6646 ****       115.0000 244.2500 323.5000 Du        
   6647 ****       115.0000 244.2500 323.7500 Du        
   6648 ****       115.0000 244.2500 324.0000 Du        
   6649 ****       115.0000 244.2500 324.2500 Du        
   6650 ****       115.0000 244.2500 324.5000 Du        
   6651 ****       115.0000 244.2500 324.7500 Du        
   6652 ****       115.0000 244.2500 325.0000 Du        
   6653 ****       115.0000 244.2500 325.2500 Du        
   6654 ****       115.0000 244.2500 325.5000 Du        
   6655 ****       115.0000 244.5000 323.5000 Du        
   6656 ****       115.0000 244.5000 323.7500 Du        
   6657 ****       115.0000 244.5000 324.0000 Du        
   6658 ****       115.0000 244.5000 324.2500 Du        
   6659 ****       115.0000 244.5000 324.5000 Du        
   6660 ****       115.0000 244.5000 324.7500 Du        
   6661 ****       115.0000 244.5000 325.0000 Du        
   6662 ****       115.0000 244.5000 325.2500 Du        
   6663 ****       115.0000 244.7500 323.5000 Du        
   6664 ****       115.0000 244.7500 323.7500 Du        
   6665 ****       115.0000 244.7500 324.0000 Du        
   6666 ****       115.0000 244.7500 324.2500 Du        
   6667 ****       115.0000 244.7500 324.5000 Du        
   6668 ****       115.0000 244.7500 324.7500 Du        
   6669 ****       115.0000 244.7500 325.0000 Du        
   6670 ****       115.0000 244.7500 325.2500 Du        
   6671 ****       115.0000 244.7500 325.5000 Du        
   6672 ****       115.0000 245.0000 324.0000 Du        
   6673 ****       115.0000 245.0000 324.2500 Du        
   6674 ****       115.0000 245.0000 324.5000 Du        
   6675 ****       115.0000 245.0000 324.7500 Du        
   6676 ****       115.0000 245.0000 325.0000 Du        
   6677 ****       115.0000 245.0000 325.2500 Du        
   6678 ****       115.0000 245.2500 324.2500 Du        
   6679 ****       115.0000 245.2500 324.5000 Du        
   6680 ****       115.0000 245.2500 324.7500 Du        
   6681 ****       115.0000 245.2500 325.0000 Du        
   6682 ****       115.0000 245.2500 325.2500 Du        
   6683 ****       115.0000 245.5000 324.5000 Du        
   6684 ****       115.0000 245.5000 324.7500 Du        
   6685 ****       115.0000 245.5000 325.0000 Du        
   6686 ****       115.0000 245.5000 325.2500 Du        
   6687 ****       115.0000 245.7500 324.7500 Du        
   6688 ****       115.0000 245.7500 325.0000 Du        
   6689 ****       115.0000 245.7500 325.2500 Du        
   6690 ****       115.0000 246.0000 324.7500 Du        
   6691 ****       115.0000 246.0000 325.0000 Du        
   6692 ****       115.0000 246.0000 325.2500 Du        
   6693 ****       115.0000 246.2500 325.0000 Du        
   6694 ****       115.0000 246.2500 325.2500 Du        
   6695 ****       115.2500 243.2500 324.0000 Du        
   6696 ****       115.2500 243.2500 324.2500 Du        
   6697 ****       115.2500 243.2500 324.5000 Du        
   6698 ****       115.2500 243.2500 324.7500 Du        
   6699 ****       115.2500 243.5000 323.7500 Du        
   6700 ****       115.2500 243.5000 324.0000 Du        
   6701 ****       115.2500 243.5000 324.2500 Du        
   6702 ****       115.2500 243.5000 324.5000 Du        
   6703 ****       115.2500 243.5000 324.7500 Du        
   6704 ****       115.2500 243.5000 325.0000 Du        
   6705 ****       115.2500 243.7500 323.7500 Du        
   6706 ****       115.2500 243.7500 324.0000 Du        
   6707 ****       115.2500 243.7500 324.2500 Du        
   6708 ****       115.2500 243.7500 324.5000 Du        
   6709 ****       115.2500 243.7500 324.7500 Du        
   6710 ****       115.2500 243.7500 325.0000 Du        
   6711 ****       115.2500 244.0000 323.5000 Du        
   6712 ****       115.2500 244.0000 323.7500 Du        
   6713 ****       115.2500 244.0000 324.0000 Du        
   6714 ****       115.2500 244.0000 324.2500 Du        
   6715 ****       115.2500 244.0000 324.5000 Du        
   6716 ****       115.2500 244.0000 324.7500 Du        
   6717 ****       115.2500 244.0000 325.0000 Du        
   6718 ****       115.2500 244.2500 323.2500 Du        
   6719 ****       115.2500 244.2500 323.5000 Du        
   6720 ****       115.2500 244.2500 323.7500 Du        
   6721 ****       115.2500 244.2500 324.0000 Du        
   6722 ****       115.2500 244.2500 324.2500 Du        
   6723 ****       115.2500 244.2500 324.5000 Du        
   6724 ****       115.2500 244.2500 324.7500 Du        
   6725 ****       115.2500 244.2500 325.0000 Du        
   6726 ****       115.2500 244.2500 325.2500 Du        
   6727 ****       115.2500 244.5000 323.2500 Du        
   6728 ****       115.2500 244.5000 323.5000 Du        
   6729 ****       115.2500 244.5000 323.7500 Du        
   6730 ****       115.2500 244.5000 324.0000 Du        
   6731 ****       115.2500 244.5000 324.2500 Du        
   6732 ****       115.2500 244.5000 324.5000 Du        
   6733 ****       115.2500 244.5000 324.7500 Du        
   6734 ****       115.2500 244.5000 325.0000 Du        
   6735 ****       115.2500 244.5000 325.2500 Du        
   6736 ****       115.2500 244.7500 323.5000 Du        
   6737 ****       115.2500 244.7500 323.7500 Du        
   6738 ****       115.2500 244.7500 324.0000 Du        
   6739 ****       115.2500 244.7500 324.2500 Du        
   6740 ****       115.2500 244.7500 324.5000 Du        
   6741 ****       115.2500 244.7500 324.7500 Du        
   6742 ****       115.2500 244.7500 325.0000 Du        
   6743 ****       115.2500 244.7500 325.2500 Du        
   6744 ****       115.2500 245.0000 323.7500 Du        
   6745 ****       115.2500 245.0000 324.0000 Du        
   6746 ****       115.2500 245.0000 324.2500 Du        
   6747 ****       115.2500 245.0000 324.5000 Du        
   6748 ****       115.2500 245.0000 324.7500 Du        
   6749 ****       115.2500 245.0000 325.0000 Du        
   6750 ****       115.2500 245.0000 325.2500 Du        
   6751 ****       115.2500 245.2500 324.0000 Du        
   6752 ****       115.2500 245.2500 324.2500 Du        
   6753 ****       115.2500 245.2500 324.5000 Du        
   6754 ****       115.2500 245.2500 324.7500 Du        
   6755 ****       115.2500 245.2500 325.0000 Du        
   6756 ****       115.2500 245.2500 325.2500 Du        
   6757 ****       115.2500 245.5000 324.2500 Du        
   6758 ****       115.2500 245.5000 324.5000 Du        
   6759 ****       115.2500 245.5000 324.7500 Du        
   6760 ****       115.2500 245.5000 325.0000 Du        
   6761 ****       115.2500 245.5000 325.2500 Du        
   6762 ****       115.2500 245.7500 324.5000 Du        
   6763 ****       115.2500 245.7500 324.7500 Du        
   6764 ****       115.2500 245.7500 325.0000 Du        
   6765 ****       115.2500 245.7500 325.2500 Du        
   6766 ****       115.2500 246.0000 324.7500 Du        
   6767 ****       115.2500 246.0000 325.0000 Du        
   6768 ****       115.2500 246.0000 325.2500 Du        
   6769 ****       115.2500 246.2500 324.7500 Du        
   6770 ****       115.2500 246.2500 325.0000 Du        
   6771 ****       115.2500 246.5000 325.0000 Du        
   6772 ****       115.5000 243.2500 324.0000 Du        
   6773 ****       115.5000 243.2500 324.2500 Du        
   6774 ****       115.5000 243.2500 324.5000 Du        
   6775 ****       115.5000 243.5000 323.7500 Du        
   6776 ****       115.5000 243.5000 324.0000 Du        
   6777 ****       115.5000 243.5000 324.2500 Du        
   6778 ****       115.5000 243.5000 324.5000 Du        
   6779 ****       115.5000 243.5000 324.7500 Du        
   6780 ****       115.5000 243.7500 323.7500 Du        
   6781 ****       115.5000 243.7500 324.0000 Du        
   6782 ****       115.5000 243.7500 324.2500 Du        
   6783 ****       115.5000 243.7500 324.5000 Du        
   6784 ****       115.5000 243.7500 324.7500 Du        
   6785 ****       115.5000 244.0000 323.5000 Du        
   6786 ****       115.5000 244.0000 323.7500 Du        
   6787 ****       115.5000 244.0000 324.0000 Du        
   6788 ****       115.5000 244.0000 324.2500 Du        
   6789 ****       115.5000 244.0000 324.5000 Du        
   6790 ****       115.5000 244.0000 324.7500 Du        
   6791 ****       115.5000 244.0000 325.0000 Du        
   6792 ****       115.5000 244.2500 323.2500 Du        
   6793 ****       115.5000 244.2500 323.5000 Du        
   6794 ****       115.5000 244.2500 323.7500 Du        
   6795 ****       115.5000 244.2500 324.0000 Du        
   6796 ****       115.5000 244.2500 324.2500 Du        
   6797 ****       115.5000 244.2500 324.5000 Du        
   6798 ****       115.5000 244.2500 324.7500 Du        
   6799 ****       115.5000 244.2500 325.0000 Du        
   6800 ****       115.5000 244.5000 323.2500 Du        
   6801 ****       115.5000 244.5000 323.5000 Du        
   6802 ****       115.5000 244.5000 323.7500 Du        
   6803 ****       115.5000 244.5000 324.0000 Du        
   6804 ****       115.5000 244.5000 324.2500 Du        
   6805 ****       115.5000 244.5000 324.5000 Du        
   6806 ****       115.5000 244.5000 324.7500 Du        
   6807 ****       115.5000 244.5000 325.0000 Du        
   6808 ****       115.5000 244.7500 323.5000 Du        
   6809 ****       115.5000 244.7500 323.7500 Du        
   6810 ****       115.5000 244.7500 324.0000 Du        
   6811 ****       115.5000 244.7500 324.2500 Du        
   6812 ****       115.5000 244.7500 324.5000 Du        
   6813 ****       115.5000 244.7500 324.7500 Du        
   6814 ****       115.5000 244.7500 325.0000 Du        
   6815 ****       115.5000 244.7500 325.2500 Du        
   6816 ****       115.5000 245.0000 323.7500 Du        
   6817 ****       115.5000 245.0000 324.0000 Du        
   6818 ****       115.5000 245.0000 324.2500 Du        
   6819 ****       115.5000 245.0000 324.5000 Du        
   6820 ****       115.5000 245.0000 324.7500 Du        
   6821 ****       115.5000 245.0000 325.0000 Du        
   6822 ****       115.5000 245.0000 325.2500 Du        
   6823 ****       115.5000 245.2500 323.7500 Du        
   6824 ****       115.5000 245.2500 324.0000 Du        
   6825 ****       115.5000 245.2500 324.2500 Du        
   6826 ****       115.5000 245.2500 324.5000 Du        
   6827 ****       115.5000 245.2500 324.7500 Du        
   6828 ****       115.5000 245.2500 325.0000 Du        
   6829 ****       115.5000 245.2500 325.2500 Du        
   6830 ****       115.5000 245.5000 324.2500 Du        
   6831 ****       115.5000 245.5000 324.5000 Du        
   6832 ****       115.5000 245.5000 324.7500 Du        
   6833 ****       115.5000 245.5000 325.0000 Du        
   6834 ****       115.5000 245.5000 325.2500 Du        
   6835 ****       115.5000 245.7500 324.2500 Du        
   6836 ****       115.5000 245.7500 324.5000 Du        
   6837 ****       115.5000 245.7500 324.7500 Du        
   6838 ****       115.5000 245.7500 325.0000 Du        
   6839 ****       115.5000 245.7500 325.2500 Du        
   6840 ****       115.5000 246.0000 324.5000 Du        
   6841 ****       115.5000 246.0000 324.7500 Du        
   6842 ****       115.5000 246.0000 325.0000 Du        
   6843 ****       115.5000 246.2500 324.7500 Du        
   6844 ****       115.5000 246.2500 325.0000 Du        
   6845 ****       115.5000 246.5000 325.0000 Du        
   6846 ****       115.5000 246.7500 325.0000 Du        
   6847 ****       115.7500 243.5000 324.0000 Du        
   6848 ****       115.7500 243.5000 324.2500 Du        
   6849 ****       115.7500 243.5000 324.5000 Du        
   6850 ****       115.7500 243.7500 323.7500 Du        
   6851 ****       115.7500 243.7500 324.0000 Du        
   6852 ****       115.7500 243.7500 324.2500 Du        
   6853 ****       115.7500 243.7500 324.5000 Du        
   6854 ****       115.7500 244.0000 323.7500 Du        
   6855 ****       115.7500 244.0000 324.0000 Du        
   6856 ****       115.7500 244.0000 324.2500 Du        
   6857 ****       115.7500 244.0000 324.5000 Du        
   6858 ****       115.7500 244.0000 324.7500 Du        
   6859 ****       115.7500 244.2500 323.5000 Du        
   6860 ****       115.7500 244.2500 323.7500 Du        
   6861 ****       115.7500 244.2500 324.0000 Du        
   6862 ****       115.7500 244.2500 324.2500 Du        
   6863 ****       115.7500 244.2500 324.5000 Du        
   6864 ****       115.7500 244.2500 324.7500 Du        
   6865 ****       115.7500 244.5000 323.5000 Du        
   6866 ****       115.7500 244.5000 323.7500 Du        
   6867 ****       115.7500 244.5000 324.0000 Du        
   6868 ****       115.7500 244.5000 324.2500 Du        
   6869 ****       115.7500 244.5000 324.5000 Du        
   6870 ****       115.7500 244.5000 324.7500 Du        
   6871 ****       115.7500 244.7500 323.2500 Du        
   6872 ****       115.7500 244.7500 323.5000 Du        
   6873 ****       115.7500 244.7500 323.7500 Du        
   6874 ****       115.7500 244.7500 324.0000 Du        
   6875 ****       115.7500 244.7500 324.2500 Du        
   6876 ****       115.7500 244.7500 324.5000 Du        
   6877 ****       115.7500 244.7500 324.7500 Du        
   6878 ****       115.7500 244.7500 325.0000 Du        
   6879 ****       115.7500 245.0000 323.5000 Du        
   6880 ****       115.7500 245.0000 323.7500 Du        
   6881 ****       115.7500 245.0000 324.0000 Du        
   6882 ****       115.7500 245.0000 324.2500 Du        
   6883 ****       115.7500 245.0000 324.5000 Du        
   6884 ****       115.7500 245.0000 324.7500 Du        
   6885 ****       115.7500 245.0000 325.0000 Du        
   6886 ****       115.7500 245.2500 323.7500 Du        
   6887 ****       115.7500 245.2500 324.0000 Du        
   6888 ****       115.7500 245.2500 324.2500 Du        
   6889 ****       115.7500 245.2500 324.5000 Du        
   6890 ****       115.7500 245.2500 324.7500 Du        
   6891 ****       115.7500 245.2500 325.0000 Du        
   6892 ****       115.7500 245.2500 325.2500 Du        
   6893 ****       115.7500 245.5000 324.0000 Du        
   6894 ****       115.7500 245.5000 324.2500 Du        
   6895 ****       115.7500 245.5000 324.5000 Du        
   6896 ****       115.7500 245.5000 324.7500 Du        
   6897 ****       115.7500 245.5000 325.0000 Du        
   6898 ****       115.7500 245.7500 324.2500 Du        
   6899 ****       115.7500 245.7500 324.5000 Du        
   6900 ****       115.7500 245.7500 324.7500 Du        
   6901 ****       115.7500 245.7500 325.0000 Du        
   6902 ****       115.7500 246.0000 324.2500 Du        
   6903 ****       115.7500 246.0000 324.5000 Du        
   6904 ****       115.7500 246.0000 324.7500 Du        
   6905 ****       115.7500 246.0000 325.0000 Du        
   6906 ****       115.7500 246.2500 324.5000 Du        
   6907 ****       115.7500 246.2500 324.7500 Du        
   6908 ****       115.7500 246.2500 325.0000 Du        
   6909 ****       115.7500 246.5000 324.7500 Du        
   6910 ****       115.7500 246.5000 325.0000 Du        
   6911 ****       115.7500 246.7500 324.7500 Du        
   6912 ****       115.7500 246.7500 325.0000 Du        
   6913 ****       115.7500 247.0000 325.0000 Du        
   6914 ****       116.0000 243.0000 331.5000 Du        
   6915 ****       116.0000 243.0000 331.7500 Du        
   6916 ****       116.0000 243.0000 332.0000 Du        
   6917 ****       116.0000 243.2500 331.5000 Du        
   6918 ****       116.0000 243.2500 331.7500 Du        
   6919 ****       116.0000 243.2500 332.0000 Du        
   6920 ****       116.0000 243.2500 332.2500 Du        
   6921 ****       116.0000 243.2500 332.5000 Du        
   6922 ****       116.0000 243.2500 332.7500 Du        
   6923 ****       116.0000 243.5000 324.0000 Du        
   6924 ****       116.0000 243.5000 324.2500 Du        
   6925 ****       116.0000 243.5000 332.0000 Du        
   6926 ****       116.0000 243.5000 332.2500 Du        
   6927 ****       116.0000 243.5000 332.5000 Du        
   6928 ****       116.0000 243.5000 332.7500 Du        
   6929 ****       116.0000 243.7500 324.0000 Du        
   6930 ****       116.0000 243.7500 324.2500 Du        
   6931 ****       116.0000 244.0000 323.7500 Du        
   6932 ****       116.0000 244.0000 324.0000 Du        
   6933 ****       116.0000 244.0000 324.2500 Du        
   6934 ****       116.0000 244.0000 324.5000 Du        
   6935 ****       116.0000 244.2500 323.7500 Du        
   6936 ****       116.0000 244.2500 324.0000 Du        
   6937 ****       116.0000 244.2500 324.2500 Du        
   6938 ****       116.0000 244.2500 324.5000 Du        
   6939 ****       116.0000 244.5000 323.5000 Du        
   6940 ****       116.0000 244.5000 323.7500 Du        
   6941 ****       116.0000 244.5000 324.0000 Du        
   6942 ****       116.0000 244.5000 324.2500 Du        
   6943 ****       116.0000 244.5000 324.5000 Du        
   6944 ****       116.0000 244.5000 324.7500 Du        
   6945 ****       116.0000 244.7500 323.2500 Du        
   6946 ****       116.0000 244.7500 323.5000 Du        
   6947 ****       116.0000 244.7500 323.7500 Du        
   6948 ****       116.0000 244.7500 324.0000 Du        
   6949 ****       116.0000 244.7500 324.2500 Du        
   6950 ****       116.0000 244.7500 324.5000 Du        
   6951 ****       116.0000 244.7500 324.7500 Du        
   6952 ****       116.0000 245.0000 323.5000 Du        
   6953 ****       116.0000 245.0000 323.7500 Du        
   6954 ****       116.0000 245.0000 324.0000 Du        
   6955 ****       116.0000 245.0000 324.2500 Du        
   6956 ****       116.0000 245.0000 324.5000 Du        
   6957 ****       116.0000 245.0000 324.7500 Du        
   6958 ****       116.0000 245.0000 325.0000 Du        
   6959 ****       116.0000 245.2500 323.5000 Du        
   6960 ****       116.0000 245.2500 323.7500 Du        
   6961 ****       116.0000 245.2500 324.0000 Du        
   6962 ****       116.0000 245.2500 324.2500 Du        
   6963 ****       116.0000 245.2500 324.5000 Du        
   6964 ****       116.0000 245.2500 324.7500 Du        
   6965 ****       116.0000 245.2500 325.0000 Du        
   6966 ****       116.0000 245.5000 323.7500 Du        
   6967 ****       116.0000 245.5000 324.0000 Du        
   6968 ****       116.0000 245.5000 324.2500 Du        
   6969 ****       116.0000 245.5000 324.5000 Du        
   6970 ****       116.0000 245.5000 324.7500 Du        
   6971 ****       116.0000 245.5000 325.0000 Du        
   6972 ****       116.0000 245.7500 324.0000 Du        
   6973 ****       116.0000 245.7500 324.2500 Du        
   6974 ****       116.0000 245.7500 324.5000 Du        
   6975 ****       116.0000 245.7500 324.7500 Du        
   6976 ****       116.0000 245.7500 325.0000 Du        
   6977 ****       116.0000 246.0000 324.0000 Du        
   6978 ****       116.0000 246.0000 324.2500 Du        
   6979 ****       116.0000 246.0000 324.5000 Du        
   6980 ****       116.0000 246.0000 324.7500 Du        
   6981 ****       116.0000 246.0000 325.0000 Du        
   6982 ****       116.0000 246.2500 324.2500 Du        
   6983 ****       116.0000 246.2500 324.5000 Du        
   6984 ****       116.0000 246.2500 324.7500 Du        
   6985 ****       116.0000 246.2500 325.0000 Du        
   6986 ****       116.0000 246.5000 324.5000 Du        
   6987 ****       116.0000 246.5000 324.7500 Du        
   6988 ****       116.0000 246.5000 325.0000 Du        
   6989 ****       116.0000 246.7500 324.5000 Du        
   6990 ****       116.0000 246.7500 324.7500 Du        
   6991 ****       116.0000 246.7500 325.0000 Du        
   6992 ****       116.0000 247.0000 324.7500 Du        
   6993 ****       116.0000 247.0000 325.0000 Du        
   6994 ****       116.0000 247.2500 324.7500 Du        
   6995 ****       116.0000 247.2500 325.0000 Du        
   6996 ****       116.2500 242.7500 331.5000 Du        
   6997 ****       116.2500 242.7500 331.7500 Du        
   6998 ****       116.2500 242.7500 332.0000 Du        
   6999 ****       116.2500 242.7500 332.2500 Du        
   7000 ****       116.2500 243.0000 331.5000 Du        
   7001 ****       116.2500 243.0000 331.7500 Du        
   7002 ****       116.2500 243.0000 332.0000 Du        
   7003 ****       116.2500 243.0000 332.2500 Du        
   7004 ****       116.2500 243.0000 332.5000 Du        
   7005 ****       116.2500 243.2500 331.5000 Du        
   7006 ****       116.2500 243.2500 331.7500 Du        
   7007 ****       116.2500 243.2500 332.0000 Du        
   7008 ****       116.2500 243.2500 332.2500 Du        
   7009 ****       116.2500 243.2500 332.5000 Du        
   7010 ****       116.2500 243.2500 332.7500 Du        
   7011 ****       116.2500 243.5000 331.7500 Du        
   7012 ****       116.2500 243.5000 332.0000 Du        
   7013 ****       116.2500 243.5000 332.2500 Du        
   7014 ****       116.2500 243.5000 332.5000 Du        
   7015 ****       116.2500 243.5000 332.7500 Du        
   7016 ****       116.2500 243.7500 332.5000 Du        
   7017 ****       116.2500 243.7500 332.7500 Du        
   7018 ****       116.2500 244.0000 324.0000 Du        
   7019 ****       116.2500 244.0000 324.2500 Du        
   7020 ****       116.2500 244.2500 323.7500 Du        
   7021 ****       116.2500 244.2500 324.0000 Du        
   7022 ****       116.2500 244.2500 324.2500 Du        
   7023 ****       116.2500 244.2500 324.5000 Du        
   7024 ****       116.2500 244.5000 323.7500 Du        
   7025 ****       116.2500 244.5000 324.0000 Du        
   7026 ****       116.2500 244.5000 324.2500 Du        
   7027 ****       116.2500 244.5000 324.5000 Du        
   7028 ****       116.2500 244.7500 323.5000 Du        
   7029 ****       116.2500 244.7500 323.7500 Du        
   7030 ****       116.2500 244.7500 324.0000 Du        
   7031 ****       116.2500 244.7500 324.2500 Du        
   7032 ****       116.2500 244.7500 324.5000 Du        
   7033 ****       116.2500 244.7500 324.7500 Du        
   7034 ****       116.2500 245.0000 323.5000 Du        
   7035 ****       116.2500 245.0000 323.7500 Du        
   7036 ****       116.2500 245.0000 324.0000 Du        
   7037 ****       116.2500 245.0000 324.2500 Du        
   7038 ****       116.2500 245.0000 324.5000 Du        
   7039 ****       116.2500 245.0000 324.7500 Du        
   7040 ****       116.2500 245.0000 325.0000 Du        
   7041 ****       116.2500 245.2500 323.5000 Du        
   7042 ****       116.2500 245.2500 323.7500 Du        
   7043 ****       116.2500 245.2500 324.0000 Du        
   7044 ****       116.2500 245.2500 324.2500 Du        
   7045 ****       116.2500 245.2500 324.5000 Du        
   7046 ****       116.2500 245.2500 324.7500 Du        
   7047 ****       116.2500 245.2500 325.0000 Du        
   7048 ****       116.2500 245.5000 323.5000 Du        
   7049 ****       116.2500 245.5000 323.7500 Du        
   7050 ****       116.2500 245.5000 324.0000 Du        
   7051 ****       116.2500 245.5000 324.2500 Du        
   7052 ****       116.2500 245.5000 324.5000 Du        
   7053 ****       116.2500 245.5000 324.7500 Du        
   7054 ****       116.2500 245.5000 325.0000 Du        
   7055 ****       116.2500 245.7500 323.7500 Du        
   7056 ****       116.2500 245.7500 324.0000 Du        
   7057 ****       116.2500 245.7500 324.2500 Du        
   7058 ****       116.2500 245.7500 324.5000 Du        
   7059 ****       116.2500 245.7500 324.7500 Du        
   7060 ****       116.2500 245.7500 325.0000 Du        
   7061 ****       116.2500 246.0000 324.0000 Du        
   7062 ****       116.2500 246.0000 324.2500 Du        
   7063 ****       116.2500 246.0000 324.5000 Du        
   7064 ****       116.2500 246.0000 324.7500 Du        
   7065 ****       116.2500 246.0000 325.0000 Du        
   7066 ****       116.2500 246.2500 324.0000 Du        
   7067 ****       116.2500 246.2500 324.2500 Du        
   7068 ****       116.2500 246.2500 324.5000 Du        
   7069 ****       116.2500 246.2500 324.7500 Du        
   7070 ****       116.2500 246.2500 325.0000 Du        
   7071 ****       116.2500 246.5000 324.2500 Du        
   7072 ****       116.2500 246.5000 324.5000 Du        
   7073 ****       116.2500 246.5000 324.7500 Du        
   7074 ****       116.2500 246.5000 325.0000 Du        
   7075 ****       116.2500 246.7500 324.2500 Du        
   7076 ****       116.2500 246.7500 324.5000 Du        
   7077 ****       116.2500 246.7500 324.7500 Du        
   7078 ****       116.2500 246.7500 325.0000 Du        
   7079 ****       116.2500 247.0000 324.5000 Du        
   7080 ****       116.2500 247.0000 324.7500 Du        
   7081 ****       116.2500 247.0000 325.0000 Du        
   7082 ****       116.2500 247.2500 324.5000 Du        
   7083 ****       116.2500 247.2500 324.7500 Du        
   7084 ****       116.2500 247.2500 325.0000 Du        
   7085 ****       116.2500 247.5000 324.7500 Du        
   7086 ****       116.5000 242.5000 331.7500 Du        
   7087 ****       116.5000 242.5000 332.0000 Du        
   7088 ****       116.5000 242.7500 331.5000 Du        
   7089 ****       116.5000 242.7500 331.7500 Du        
   7090 ****       116.5000 242.7500 332.0000 Du        
   7091 ****       116.5000 242.7500 332.2500 Du        
   7092 ****       116.5000 243.0000 331.5000 Du        
   7093 ****       116.5000 243.0000 331.7500 Du        
   7094 ****       116.5000 243.0000 332.0000 Du        
   7095 ****       116.5000 243.0000 332.2500 Du        
   7096 ****       116.5000 243.2500 331.5000 Du        
   7097 ****       116.5000 243.2500 331.7500 Du        
   7098 ****       116.5000 243.2500 332.0000 Du        
   7099 ****       116.5000 243.2500 332.2500 Du        
   7100 ****       116.5000 243.5000 331.5000 Du        
   7101 ****       116.5000 243.5000 331.7500 Du        
   7102 ****       116.5000 243.5000 332.0000 Du        
   7103 ****       116.5000 243.5000 332.2500 Du        
   7104 ****       116.5000 243.7500 332.0000 Du        
   7105 ****       116.5000 243.7500 332.2500 Du        
   7106 ****       116.5000 244.0000 324.2500 Du        
   7107 ****       116.5000 244.2500 324.0000 Du        
   7108 ****       116.5000 244.2500 324.2500 Du        
   7109 ****       116.5000 244.5000 323.7500 Du        
   7110 ****       116.5000 244.5000 324.0000 Du        
   7111 ****       116.5000 244.5000 324.2500 Du        
   7112 ****       116.5000 244.5000 324.5000 Du        
   7113 ****       116.5000 244.7500 323.5000 Du        
   7114 ****       116.5000 244.7500 323.7500 Du        
   7115 ****       116.5000 244.7500 324.0000 Du        
   7116 ****       116.5000 244.7500 324.2500 Du        
   7117 ****       116.5000 244.7500 324.5000 Du        
   7118 ****       116.5000 245.0000 323.5000 Du        
   7119 ****       116.5000 245.0000 323.7500 Du        
   7120 ****       116.5000 245.0000 324.0000 Du        
   7121 ****       116.5000 245.0000 324.2500 Du        
   7122 ****       116.5000 245.0000 324.5000 Du        
   7123 ****       116.5000 245.0000 324.7500 Du        
   7124 ****       116.5000 245.2500 323.2500 Du        
   7125 ****       116.5000 245.2500 323.5000 Du        
   7126 ****       116.5000 245.2500 323.7500 Du        
   7127 ****       116.5000 245.2500 324.0000 Du        
   7128 ****       116.5000 245.2500 324.2500 Du        
   7129 ****       116.5000 245.2500 324.5000 Du        
   7130 ****       116.5000 245.2500 324.7500 Du        
   7131 ****       116.5000 245.2500 325.0000 Du        
   7132 ****       116.5000 245.5000 323.2500 Du        
   7133 ****       116.5000 245.5000 323.5000 Du        
   7134 ****       116.5000 245.5000 323.7500 Du        
   7135 ****       116.5000 245.5000 324.0000 Du        
   7136 ****       116.5000 245.5000 324.2500 Du        
   7137 ****       116.5000 245.5000 324.5000 Du        
   7138 ****       116.5000 245.5000 324.7500 Du        
   7139 ****       116.5000 245.5000 325.0000 Du        
   7140 ****       116.5000 245.7500 323.5000 Du        
   7141 ****       116.5000 245.7500 323.7500 Du        
   7142 ****       116.5000 245.7500 324.0000 Du        
   7143 ****       116.5000 245.7500 324.2500 Du        
   7144 ****       116.5000 245.7500 324.5000 Du        
   7145 ****       116.5000 245.7500 324.7500 Du        
   7146 ****       116.5000 245.7500 325.0000 Du        
   7147 ****       116.5000 246.0000 323.5000 Du        
   7148 ****       116.5000 246.0000 323.7500 Du        
   7149 ****       116.5000 246.0000 324.0000 Du        
   7150 ****       116.5000 246.0000 324.2500 Du        
   7151 ****       116.5000 246.0000 324.5000 Du        
   7152 ****       116.5000 246.0000 324.7500 Du        
   7153 ****       116.5000 246.0000 325.0000 Du        
   7154 ****       116.5000 246.2500 323.7500 Du        
   7155 ****       116.5000 246.2500 324.0000 Du        
   7156 ****       116.5000 246.2500 324.2500 Du        
   7157 ****       116.5000 246.2500 324.5000 Du        
   7158 ****       116.5000 246.2500 324.7500 Du        
   7159 ****       116.5000 246.2500 325.0000 Du        
   7160 ****       116.5000 246.5000 324.0000 Du        
   7161 ****       116.5000 246.5000 324.2500 Du        
   7162 ****       116.5000 246.5000 324.5000 Du        
   7163 ****       116.5000 246.5000 324.7500 Du        
   7164 ****       116.5000 246.5000 325.0000 Du        
   7165 ****       116.5000 246.7500 324.0000 Du        
   7166 ****       116.5000 246.7500 324.2500 Du        
   7167 ****       116.5000 246.7500 324.5000 Du        
   7168 ****       116.5000 246.7500 324.7500 Du        
   7169 ****       116.5000 246.7500 325.0000 Du        
   7170 ****       116.5000 247.0000 324.2500 Du        
   7171 ****       116.5000 247.0000 324.5000 Du        
   7172 ****       116.5000 247.0000 324.7500 Du        
   7173 ****       116.5000 247.0000 325.0000 Du        
   7174 ****       116.5000 247.2500 324.2500 Du        
   7175 ****       116.5000 247.2500 324.5000 Du        
   7176 ****       116.5000 247.2500 324.7500 Du        
   7177 ****       116.5000 247.5000 324.2500 Du        
   7178 ****       116.5000 247.5000 324.5000 Du        
   7179 ****       116.5000 247.5000 324.7500 Du        
   7180 ****       116.5000 247.7500 324.5000 Du        
   7181 ****       116.7500 242.2500 332.0000 Du        
   7182 ****       116.7500 242.5000 331.7500 Du        
   7183 ****       116.7500 242.5000 332.0000 Du        
   7184 ****       116.7500 242.5000 332.2500 Du        
   7185 ****       116.7500 242.7500 331.5000 Du        
   7186 ****       116.7500 242.7500 331.7500 Du        
   7187 ****       116.7500 242.7500 332.0000 Du        
   7188 ****       116.7500 242.7500 332.2500 Du        
   7189 ****       116.7500 243.0000 331.5000 Du        
   7190 ****       116.7500 243.0000 331.7500 Du        
   7191 ****       116.7500 243.0000 332.0000 Du        
   7192 ****       116.7500 243.0000 332.2500 Du        
   7193 ****       116.7500 243.2500 331.5000 Du        
   7194 ****       116.7500 243.2500 331.7500 Du        
   7195 ****       116.7500 243.2500 332.0000 Du        
   7196 ****       116.7500 243.2500 332.2500 Du        
   7197 ****       116.7500 243.5000 331.5000 Du        
   7198 ****       116.7500 243.5000 331.7500 Du        
   7199 ****       116.7500 243.5000 332.0000 Du        
   7200 ****       116.7500 243.5000 332.2500 Du        
   7201 ****       116.7500 243.7500 331.7500 Du        
   7202 ****       116.7500 243.7500 332.0000 Du        
   7203 ****       116.7500 243.7500 332.2500 Du        
   7204 ****       116.7500 244.2500 324.0000 Du        
   7205 ****       116.7500 244.2500 324.2500 Du        
   7206 ****       116.7500 244.5000 324.0000 Du        
   7207 ****       116.7500 244.5000 324.2500 Du        
   7208 ****       116.7500 244.7500 323.7500 Du        
   7209 ****       116.7500 244.7500 324.0000 Du        
   7210 ****       116.7500 244.7500 324.2500 Du        
   7211 ****       116.7500 244.7500 324.5000 Du        
   7212 ****       116.7500 245.0000 323.5000 Du        
   7213 ****       116.7500 245.0000 323.7500 Du        
   7214 ****       116.7500 245.0000 324.0000 Du        
   7215 ****       116.7500 245.0000 324.2500 Du        
   7216 ****       116.7500 245.0000 324.5000 Du        
   7217 ****       116.7500 245.0000 324.7500 Du        
   7218 ****       116.7500 245.2500 323.2500 Du        
   7219 ****       116.7500 245.2500 323.5000 Du        
   7220 ****       116.7500 245.2500 323.7500 Du        
   7221 ****       116.7500 245.2500 324.0000 Du        
   7222 ****       116.7500 245.2500 324.2500 Du        
   7223 ****       116.7500 245.2500 324.5000 Du        
   7224 ****       116.7500 245.2500 324.7500 Du        
   7225 ****       116.7500 245.2500 325.0000 Du        
   7226 ****       116.7500 245.5000 323.0000 Du        
   7227 ****       116.7500 245.5000 323.2500 Du        
   7228 ****       116.7500 245.5000 323.5000 Du        
   7229 ****       116.7500 245.5000 323.7500 Du        
   7230 ****       116.7500 245.5000 324.0000 Du        
   7231 ****       116.7500 245.5000 324.2500 Du        
   7232 ****       116.7500 245.5000 324.5000 Du        
   7233 ****       116.7500 245.5000 324.7500 Du        
   7234 ****       116.7500 245.5000 325.0000 Du        
   7235 ****       116.7500 245.7500 323.2500 Du        
   7236 ****       116.7500 245.7500 323.5000 Du        
   7237 ****       116.7500 245.7500 323.7500 Du        
   7238 ****       116.7500 245.7500 324.0000 Du        
   7239 ****       116.7500 245.7500 324.2500 Du        
   7240 ****       116.7500 245.7500 324.5000 Du        
   7241 ****       116.7500 245.7500 324.7500 Du        
   7242 ****       116.7500 245.7500 325.0000 Du        
   7243 ****       116.7500 245.7500 325.2500 Du        
   7244 ****       116.7500 246.0000 323.2500 Du        
   7245 ****       116.7500 246.0000 323.5000 Du        
   7246 ****       116.7500 246.0000 323.7500 Du        
   7247 ****       116.7500 246.0000 324.0000 Du        
   7248 ****       116.7500 246.0000 324.2500 Du        
   7249 ****       116.7500 246.0000 324.5000 Du        
   7250 ****       116.7500 246.0000 324.7500 Du        
   7251 ****       116.7500 246.0000 325.0000 Du        
   7252 ****       116.7500 246.0000 325.2500 Du        
   7253 ****       116.7500 246.2500 323.5000 Du        
   7254 ****       116.7500 246.2500 323.7500 Du        
   7255 ****       116.7500 246.2500 324.0000 Du        
   7256 ****       116.7500 246.2500 324.2500 Du        
   7257 ****       116.7500 246.2500 324.5000 Du        
   7258 ****       116.7500 246.2500 324.7500 Du        
   7259 ****       116.7500 246.2500 325.0000 Du        
   7260 ****       116.7500 246.5000 323.7500 Du        
   7261 ****       116.7500 246.5000 324.0000 Du        
   7262 ****       116.7500 246.5000 324.2500 Du        
   7263 ****       116.7500 246.5000 324.5000 Du        
   7264 ****       116.7500 246.5000 324.7500 Du        
   7265 ****       116.7500 246.5000 325.0000 Du        
   7266 ****       116.7500 246.7500 323.7500 Du        
   7267 ****       116.7500 246.7500 324.0000 Du        
   7268 ****       116.7500 246.7500 324.2500 Du        
   7269 ****       116.7500 246.7500 324.5000 Du        
   7270 ****       116.7500 246.7500 324.7500 Du        
   7271 ****       116.7500 246.7500 325.0000 Du        
   7272 ****       116.7500 247.0000 323.7500 Du        
   7273 ****       116.7500 247.0000 324.0000 Du        
   7274 ****       116.7500 247.0000 324.2500 Du        
   7275 ****       116.7500 247.0000 324.5000 Du        
   7276 ****       116.7500 247.0000 324.7500 Du        
   7277 ****       116.7500 247.0000 325.0000 Du        
   7278 ****       116.7500 247.2500 324.0000 Du        
   7279 ****       116.7500 247.2500 324.2500 Du        
   7280 ****       116.7500 247.2500 324.5000 Du        
   7281 ****       116.7500 247.2500 324.7500 Du        
   7282 ****       116.7500 247.5000 324.0000 Du        
   7283 ****       116.7500 247.5000 324.2500 Du        
   7284 ****       116.7500 247.5000 324.5000 Du        
   7285 ****       116.7500 247.5000 324.7500 Du        
   7286 ****       116.7500 247.7500 324.0000 Du        
   7287 ****       116.7500 247.7500 324.2500 Du        
   7288 ****       116.7500 247.7500 324.5000 Du        
   7289 ****       117.0000 242.2500 331.7500 Du        
   7290 ****       117.0000 242.2500 332.0000 Du        
   7291 ****       117.0000 242.5000 331.7500 Du        
   7292 ****       117.0000 242.5000 332.0000 Du        
   7293 ****       117.0000 242.5000 332.2500 Du        
   7294 ****       117.0000 242.7500 331.5000 Du        
   7295 ****       117.0000 242.7500 331.7500 Du        
   7296 ****       117.0000 242.7500 332.0000 Du        
   7297 ****       117.0000 242.7500 332.2500 Du        
   7298 ****       117.0000 243.0000 331.5000 Du        
   7299 ****       117.0000 243.0000 331.7500 Du        
   7300 ****       117.0000 243.0000 332.0000 Du        
   7301 ****       117.0000 243.0000 332.2500 Du        
   7302 ****       117.0000 243.2500 331.5000 Du        
   7303 ****       117.0000 243.2500 331.7500 Du        
   7304 ****       117.0000 243.2500 332.0000 Du        
   7305 ****       117.0000 243.2500 332.2500 Du        
   7306 ****       117.0000 243.5000 331.5000 Du        
   7307 ****       117.0000 243.5000 331.7500 Du        
   7308 ****       117.0000 243.5000 332.0000 Du        
   7309 ****       117.0000 243.5000 332.2500 Du        
   7310 ****       117.0000 243.7500 331.5000 Du        
   7311 ****       117.0000 243.7500 331.7500 Du        
   7312 ****       117.0000 243.7500 332.0000 Du        
   7313 ****       117.0000 243.7500 332.2500 Du        
   7314 ****       117.0000 244.5000 324.0000 Du        
   7315 ****       117.0000 244.5000 324.2500 Du        
   7316 ****       117.0000 244.7500 323.7500 Du        
   7317 ****       117.0000 244.7500 324.0000 Du        
   7318 ****       117.0000 244.7500 324.2500 Du        
   7319 ****       117.0000 244.7500 324.5000 Du        
   7320 ****       117.0000 245.0000 323.5000 Du        
   7321 ****       117.0000 245.0000 323.7500 Du        
   7322 ****       117.0000 245.0000 324.0000 Du        
   7323 ****       117.0000 245.0000 324.2500 Du        
   7324 ****       117.0000 245.0000 324.5000 Du        
   7325 ****       117.0000 245.0000 324.7500 Du        
   7326 ****       117.0000 245.2500 323.2500 Du        
   7327 ****       117.0000 245.2500 323.5000 Du        
   7328 ****       117.0000 245.2500 323.7500 Du        
   7329 ****       117.0000 245.2500 324.0000 Du        
   7330 ****       117.0000 245.2500 324.2500 Du        
   7331 ****       117.0000 245.2500 324.5000 Du        
   7332 ****       117.0000 245.2500 324.7500 Du        
   7333 ****       117.0000 245.5000 322.7500 Du        
   7334 ****       117.0000 245.5000 323.0000 Du        
   7335 ****       117.0000 245.5000 323.2500 Du        
   7336 ****       117.0000 245.5000 323.5000 Du        
   7337 ****       117.0000 245.5000 323.7500 Du        
   7338 ****       117.0000 245.5000 324.0000 Du        
   7339 ****       117.0000 245.5000 324.2500 Du        
   7340 ****       117.0000 245.5000 324.5000 Du        
   7341 ****       117.0000 245.5000 324.7500 Du        
   7342 ****       117.0000 245.5000 325.0000 Du        
   7343 ****       117.0000 245.7500 322.7500 Du        
   7344 ****       117.0000 245.7500 323.0000 Du        
   7345 ****       117.0000 245.7500 323.2500 Du        
   7346 ****       117.0000 245.7500 323.5000 Du        
   7347 ****       117.0000 245.7500 323.7500 Du        
   7348 ****       117.0000 245.7500 324.0000 Du        
   7349 ****       117.0000 245.7500 324.2500 Du        
   7350 ****       117.0000 245.7500 324.5000 Du        
   7351 ****       117.0000 245.7500 324.7500 Du        
   7352 ****       117.0000 245.7500 325.0000 Du        
   7353 ****       117.0000 245.7500 325.2500 Du        
   7354 ****       117.0000 246.0000 323.0000 Du        
   7355 ****       117.0000 246.0000 323.2500 Du        
   7356 ****       117.0000 246.0000 323.5000 Du        
   7357 ****       117.0000 246.0000 323.7500 Du        
   7358 ****       117.0000 246.0000 324.0000 Du        
   7359 ****       117.0000 246.0000 324.2500 Du        
   7360 ****       117.0000 246.0000 324.5000 Du        
   7361 ****       117.0000 246.0000 324.7500 Du        
   7362 ****       117.0000 246.0000 325.0000 Du        
   7363 ****       117.0000 246.0000 325.2500 Du        
   7364 ****       117.0000 246.2500 323.0000 Du        
   7365 ****       117.0000 246.2500 323.2500 Du        
   7366 ****       117.0000 246.2500 323.5000 Du        
   7367 ****       117.0000 246.2500 323.7500 Du        
   7368 ****       117.0000 246.2500 324.0000 Du        
   7369 ****       117.0000 246.2500 324.2500 Du        
   7370 ****       117.0000 246.2500 324.5000 Du        
   7371 ****       117.0000 246.2500 324.7500 Du        
   7372 ****       117.0000 246.2500 325.0000 Du        
   7373 ****       117.0000 246.5000 323.2500 Du        
   7374 ****       117.0000 246.5000 323.5000 Du        
   7375 ****       117.0000 246.5000 323.7500 Du        
   7376 ****       117.0000 246.5000 324.0000 Du        
   7377 ****       117.0000 246.5000 324.2500 Du        
   7378 ****       117.0000 246.5000 324.5000 Du        
   7379 ****       117.0000 246.5000 324.7500 Du        
   7380 ****       117.0000 246.5000 325.0000 Du        
   7381 ****       117.0000 246.7500 323.2500 Du        
   7382 ****       117.0000 246.7500 323.5000 Du        
   7383 ****       117.0000 246.7500 323.7500 Du        
   7384 ****       117.0000 246.7500 324.0000 Du        
   7385 ****       117.0000 246.7500 324.2500 Du        
   7386 ****       117.0000 246.7500 324.5000 Du        
   7387 ****       117.0000 246.7500 324.7500 Du        
   7388 ****       117.0000 246.7500 325.0000 Du        
   7389 ****       117.0000 247.0000 323.2500 Du        
   7390 ****       117.0000 247.0000 323.5000 Du        
   7391 ****       117.0000 247.0000 323.7500 Du        
   7392 ****       117.0000 247.0000 324.0000 Du        
   7393 ****       117.0000 247.0000 324.2500 Du        
   7394 ****       117.0000 247.0000 324.5000 Du        
   7395 ****       117.0000 247.0000 324.7500 Du        
   7396 ****       117.0000 247.0000 325.0000 Du        
   7397 ****       117.0000 247.2500 323.5000 Du        
   7398 ****       117.0000 247.2500 323.7500 Du        
   7399 ****       117.0000 247.2500 324.0000 Du        
   7400 ****       117.0000 247.2500 324.2500 Du        
   7401 ****       117.0000 247.2500 324.5000 Du        
   7402 ****       117.0000 247.2500 324.7500 Du        
   7403 ****       117.0000 247.5000 323.5000 Du        
   7404 ****       117.0000 247.5000 323.7500 Du        
   7405 ****       117.0000 247.5000 324.0000 Du        
   7406 ****       117.0000 247.5000 324.2500 Du        
   7407 ****       117.0000 247.5000 324.5000 Du        
   7408 ****       117.0000 247.7500 323.7500 Du        
   7409 ****       117.0000 247.7500 324.0000 Du        
   7410 ****       117.0000 247.7500 324.2500 Du        
   7411 ****       117.0000 248.0000 324.0000 Du        
   7412 ****       117.2500 242.2500 331.7500 Du        
   7413 ****       117.2500 242.2500 332.0000 Du        
   7414 ****       117.2500 242.5000 331.7500 Du        
   7415 ****       117.2500 242.5000 332.0000 Du        
   7416 ****       117.2500 242.5000 332.2500 Du        
   7417 ****       117.2500 242.7500 331.7500 Du        
   7418 ****       117.2500 242.7500 332.0000 Du        
   7419 ****       117.2500 242.7500 332.2500 Du        
   7420 ****       117.2500 243.0000 331.5000 Du        
   7421 ****       117.2500 243.0000 331.7500 Du        
   7422 ****       117.2500 243.0000 332.0000 Du        
   7423 ****       117.2500 243.0000 332.2500 Du        
   7424 ****       117.2500 243.2500 331.5000 Du        
   7425 ****       117.2500 243.2500 331.7500 Du        
   7426 ****       117.2500 243.2500 332.0000 Du        
   7427 ****       117.2500 243.2500 332.2500 Du        
   7428 ****       117.2500 243.5000 331.5000 Du        
   7429 ****       117.2500 243.5000 331.7500 Du        
   7430 ****       117.2500 243.5000 332.0000 Du        
   7431 ****       117.2500 243.5000 332.2500 Du        
   7432 ****       117.2500 243.7500 331.5000 Du        
   7433 ****       117.2500 243.7500 331.7500 Du        
   7434 ****       117.2500 243.7500 332.0000 Du        
   7435 ****       117.2500 243.7500 332.2500 Du        
   7436 ****       117.2500 244.5000 324.0000 Du        
   7437 ****       117.2500 244.5000 324.2500 Du        
   7438 ****       117.2500 244.7500 323.7500 Du        
   7439 ****       117.2500 244.7500 324.0000 Du        
   7440 ****       117.2500 244.7500 324.2500 Du        
   7441 ****       117.2500 244.7500 324.5000 Du        
   7442 ****       117.2500 245.0000 323.5000 Du        
   7443 ****       117.2500 245.0000 323.7500 Du        
   7444 ****       117.2500 245.0000 324.0000 Du        
   7445 ****       117.2500 245.0000 324.2500 Du        
   7446 ****       117.2500 245.0000 324.5000 Du        
   7447 ****       117.2500 245.2500 323.2500 Du        
   7448 ****       117.2500 245.2500 323.5000 Du        
   7449 ****       117.2500 245.2500 323.7500 Du        
   7450 ****       117.2500 245.2500 324.0000 Du        
   7451 ****       117.2500 245.2500 324.2500 Du        
   7452 ****       117.2500 245.2500 324.5000 Du        
   7453 ****       117.2500 245.2500 324.7500 Du        
   7454 ****       117.2500 245.5000 322.7500 Du        
   7455 ****       117.2500 245.5000 323.0000 Du        
   7456 ****       117.2500 245.5000 323.2500 Du        
   7457 ****       117.2500 245.5000 323.5000 Du        
   7458 ****       117.2500 245.5000 323.7500 Du        
   7459 ****       117.2500 245.5000 324.0000 Du        
   7460 ****       117.2500 245.5000 324.2500 Du        
   7461 ****       117.2500 245.5000 324.5000 Du        
   7462 ****       117.2500 245.5000 324.7500 Du        
   7463 ****       117.2500 245.5000 325.0000 Du        
   7464 ****       117.2500 245.7500 322.2500 Du        
   7465 ****       117.2500 245.7500 322.5000 Du        
   7466 ****       117.2500 245.7500 322.7500 Du        
   7467 ****       117.2500 245.7500 323.0000 Du        
   7468 ****       117.2500 245.7500 323.2500 Du        
   7469 ****       117.2500 245.7500 323.5000 Du        
   7470 ****       117.2500 245.7500 323.7500 Du        
   7471 ****       117.2500 245.7500 324.0000 Du        
   7472 ****       117.2500 245.7500 324.2500 Du        
   7473 ****       117.2500 245.7500 324.5000 Du        
   7474 ****       117.2500 245.7500 324.7500 Du        
   7475 ****       117.2500 245.7500 325.0000 Du        
   7476 ****       117.2500 245.7500 325.2500 Du        
   7477 ****       117.2500 246.0000 322.2500 Du        
   7478 ****       117.2500 246.0000 322.5000 Du        
   7479 ****       117.2500 246.0000 322.7500 Du        
   7480 ****       117.2500 246.0000 323.0000 Du        
   7481 ****       117.2500 246.0000 323.2500 Du        
   7482 ****       117.2500 246.0000 323.5000 Du        
   7483 ****       117.2500 246.0000 323.7500 Du        
   7484 ****       117.2500 246.0000 324.0000 Du        
   7485 ****       117.2500 246.0000 324.2500 Du        
   7486 ****       117.2500 246.0000 324.5000 Du        
   7487 ****       117.2500 246.0000 324.7500 Du        
   7488 ****       117.2500 246.0000 325.0000 Du        
   7489 ****       117.2500 246.0000 325.2500 Du        
   7490 ****       117.2500 246.2500 322.5000 Du        
   7491 ****       117.2500 246.2500 322.7500 Du        
   7492 ****       117.2500 246.2500 323.0000 Du        
   7493 ****       117.2500 246.2500 323.2500 Du        
   7494 ****       117.2500 246.2500 323.5000 Du        
   7495 ****       117.2500 246.2500 323.7500 Du        
   7496 ****       117.2500 246.2500 324.0000 Du        
   7497 ****       117.2500 246.2500 324.2500 Du        
   7498 ****       117.2500 246.2500 324.5000 Du        
   7499 ****       117.2500 246.2500 324.7500 Du        
   7500 ****       117.2500 246.2500 325.0000 Du        
   7501 ****       117.2500 246.5000 322.7500 Du        
   7502 ****       117.2500 246.5000 323.0000 Du        
   7503 ****       117.2500 246.5000 323.2500 Du        
   7504 ****       117.2500 246.5000 323.5000 Du        
   7505 ****       117.2500 246.5000 323.7500 Du        
   7506 ****       117.2500 246.5000 324.0000 Du        
   7507 ****       117.2500 246.5000 324.2500 Du        
   7508 ****       117.2500 246.5000 324.5000 Du        
   7509 ****       117.2500 246.5000 324.7500 Du        
   7510 ****       117.2500 246.5000 325.0000 Du        
   7511 ****       117.2500 246.7500 322.7500 Du        
   7512 ****       117.2500 246.7500 323.0000 Du        
   7513 ****       117.2500 246.7500 323.2500 Du        
   7514 ****       117.2500 246.7500 323.5000 Du        
   7515 ****       117.2500 246.7500 323.7500 Du        
   7516 ****       117.2500 246.7500 324.0000 Du        
   7517 ****       117.2500 246.7500 324.2500 Du        
   7518 ****       117.2500 246.7500 324.5000 Du        
   7519 ****       117.2500 246.7500 324.7500 Du        
   7520 ****       117.2500 246.7500 325.0000 Du        
   7521 ****       117.2500 247.0000 322.7500 Du        
   7522 ****       117.2500 247.0000 323.0000 Du        
   7523 ****       117.2500 247.0000 323.2500 Du        
   7524 ****       117.2500 247.0000 323.5000 Du        
   7525 ****       117.2500 247.0000 323.7500 Du        
   7526 ****       117.2500 247.0000 324.0000 Du        
   7527 ****       117.2500 247.0000 324.2500 Du        
   7528 ****       117.2500 247.0000 324.5000 Du        
   7529 ****       117.2500 247.0000 324.7500 Du        
   7530 ****       117.2500 247.2500 323.0000 Du        
   7531 ****       117.2500 247.2500 323.2500 Du        
   7532 ****       117.2500 247.2500 323.5000 Du        
   7533 ****       117.2500 247.2500 323.7500 Du        
   7534 ****       117.2500 247.2500 324.0000 Du        
   7535 ****       117.2500 247.2500 324.2500 Du        
   7536 ****       117.2500 247.2500 324.5000 Du        
   7537 ****       117.2500 247.2500 324.7500 Du        
   7538 ****       117.2500 247.5000 323.0000 Du        
   7539 ****       117.2500 247.5000 323.2500 Du        
   7540 ****       117.2500 247.5000 323.5000 Du        
   7541 ****       117.2500 247.5000 323.7500 Du        
   7542 ****       117.2500 247.5000 324.0000 Du        
   7543 ****       117.2500 247.5000 324.2500 Du        
   7544 ****       117.2500 247.5000 324.5000 Du        
   7545 ****       117.2500 247.7500 323.2500 Du        
   7546 ****       117.2500 247.7500 323.5000 Du        
   7547 ****       117.2500 247.7500 323.7500 Du        
   7548 ****       117.2500 247.7500 324.0000 Du        
   7549 ****       117.2500 247.7500 324.2500 Du        
   7550 ****       117.2500 248.0000 323.7500 Du        
   7551 ****       117.2500 248.0000 324.0000 Du        
   7552 ****       117.5000 244.5000 324.0000 Du        
   7553 ****       117.5000 244.5000 324.2500 Du        
   7554 ****       117.5000 244.7500 323.7500 Du        
   7555 ****       117.5000 244.7500 324.0000 Du        
   7556 ****       117.5000 244.7500 324.2500 Du        
   7557 ****       117.5000 244.7500 324.5000 Du        
   7558 ****       117.5000 245.0000 323.5000 Du        
   7559 ****       117.5000 245.0000 323.7500 Du        
   7560 ****       117.5000 245.0000 324.0000 Du        
   7561 ****       117.5000 245.0000 324.2500 Du        
   7562 ****       117.5000 245.0000 324.5000 Du        
   7563 ****       117.5000 245.0000 324.7500 Du        
   7564 ****       117.5000 245.2500 323.0000 Du        
   7565 ****       117.5000 245.2500 323.2500 Du        
   7566 ****       117.5000 245.2500 323.5000 Du        
   7567 ****       117.5000 245.2500 323.7500 Du        
   7568 ****       117.5000 245.2500 324.0000 Du        
   7569 ****       117.5000 245.2500 324.2500 Du        
   7570 ****       117.5000 245.2500 324.5000 Du        
   7571 ****       117.5000 245.2500 324.7500 Du        
   7572 ****       117.5000 245.5000 322.5000 Du        
   7573 ****       117.5000 245.5000 322.7500 Du        
   7574 ****       117.5000 245.5000 323.0000 Du        
   7575 ****       117.5000 245.5000 323.2500 Du        
   7576 ****       117.5000 245.5000 323.5000 Du        
   7577 ****       117.5000 245.5000 323.7500 Du        
   7578 ****       117.5000 245.5000 324.0000 Du        
   7579 ****       117.5000 245.5000 324.2500 Du        
   7580 ****       117.5000 245.5000 324.5000 Du        
   7581 ****       117.5000 245.5000 324.7500 Du        
   7582 ****       117.5000 245.5000 325.0000 Du        
   7583 ****       117.5000 245.7500 321.7500 Du        
   7584 ****       117.5000 245.7500 322.0000 Du        
   7585 ****       117.5000 245.7500 322.2500 Du        
   7586 ****       117.5000 245.7500 322.5000 Du        
   7587 ****       117.5000 245.7500 322.7500 Du        
   7588 ****       117.5000 245.7500 323.0000 Du        
   7589 ****       117.5000 245.7500 323.2500 Du        
   7590 ****       117.5000 245.7500 323.5000 Du        
   7591 ****       117.5000 245.7500 323.7500 Du        
   7592 ****       117.5000 245.7500 324.0000 Du        
   7593 ****       117.5000 245.7500 324.2500 Du        
   7594 ****       117.5000 245.7500 324.5000 Du        
   7595 ****       117.5000 245.7500 324.7500 Du        
   7596 ****       117.5000 245.7500 325.0000 Du        
   7597 ****       117.5000 246.0000 321.2500 Du        
   7598 ****       117.5000 246.0000 321.5000 Du        
   7599 ****       117.5000 246.0000 321.7500 Du        
   7600 ****       117.5000 246.0000 322.0000 Du        
   7601 ****       117.5000 246.0000 322.2500 Du        
   7602 ****       117.5000 246.0000 322.5000 Du        
   7603 ****       117.5000 246.0000 322.7500 Du        
   7604 ****       117.5000 246.0000 323.0000 Du        
   7605 ****       117.5000 246.0000 323.2500 Du        
   7606 ****       117.5000 246.0000 323.5000 Du        
   7607 ****       117.5000 246.0000 323.7500 Du        
   7608 ****       117.5000 246.0000 324.0000 Du        
   7609 ****       117.5000 246.0000 324.2500 Du        
   7610 ****       117.5000 246.0000 324.5000 Du        
   7611 ****       117.5000 246.0000 324.7500 Du        
   7612 ****       117.5000 246.0000 325.0000 Du        
   7613 ****       117.5000 246.0000 325.2500 Du        
   7614 ****       117.5000 246.2500 321.2500 Du        
   7615 ****       117.5000 246.2500 321.5000 Du        
   7616 ****       117.5000 246.2500 321.7500 Du        
   7617 ****       117.5000 246.2500 322.0000 Du        
   7618 ****       117.5000 246.2500 322.2500 Du        
   7619 ****       117.5000 246.2500 322.5000 Du        
   7620 ****       117.5000 246.2500 322.7500 Du        
   7621 ****       117.5000 246.2500 323.0000 Du        
   7622 ****       117.5000 246.2500 323.2500 Du        
   7623 ****       117.5000 246.2500 323.5000 Du        
   7624 ****       117.5000 246.2500 323.7500 Du        
   7625 ****       117.5000 246.2500 324.0000 Du        
   7626 ****       117.5000 246.2500 324.2500 Du        
   7627 ****       117.5000 246.2500 324.5000 Du        
   7628 ****       117.5000 246.2500 324.7500 Du        
   7629 ****       117.5000 246.2500 325.0000 Du        
   7630 ****       117.5000 246.5000 321.0000 Du        
   7631 ****       117.5000 246.5000 321.2500 Du        
   7632 ****       117.5000 246.5000 321.5000 Du        
   7633 ****       117.5000 246.5000 321.7500 Du        
   7634 ****       117.5000 246.5000 322.0000 Du        
   7635 ****       117.5000 246.5000 322.2500 Du        
   7636 ****       117.5000 246.5000 322.5000 Du        
   7637 ****       117.5000 246.5000 322.7500 Du        
   7638 ****       117.5000 246.5000 323.0000 Du        
   7639 ****       117.5000 246.5000 323.2500 Du        
   7640 ****       117.5000 246.5000 323.5000 Du        
   7641 ****       117.5000 246.5000 323.7500 Du        
   7642 ****       117.5000 246.5000 324.0000 Du        
   7643 ****       117.5000 246.5000 324.2500 Du        
   7644 ****       117.5000 246.5000 324.5000 Du        
   7645 ****       117.5000 246.5000 324.7500 Du        
   7646 ****       117.5000 246.5000 325.0000 Du        
   7647 ****       117.5000 246.7500 321.0000 Du        
   7648 ****       117.5000 246.7500 321.2500 Du        
   7649 ****       117.5000 246.7500 321.5000 Du        
   7650 ****       117.5000 246.7500 321.7500 Du        
   7651 ****       117.5000 246.7500 322.0000 Du        
   7652 ****       117.5000 246.7500 322.2500 Du        
   7653 ****       117.5000 246.7500 322.5000 Du        
   7654 ****       117.5000 246.7500 322.7500 Du        
   7655 ****       117.5000 246.7500 323.0000 Du        
   7656 ****       117.5000 246.7500 323.2500 Du        
   7657 ****       117.5000 246.7500 323.5000 Du        
   7658 ****       117.5000 246.7500 323.7500 Du        
   7659 ****       117.5000 246.7500 324.0000 Du        
   7660 ****       117.5000 246.7500 324.2500 Du        
   7661 ****       117.5000 246.7500 324.5000 Du        
   7662 ****       117.5000 246.7500 324.7500 Du        
   7663 ****       117.5000 247.0000 321.0000 Du        
   7664 ****       117.5000 247.0000 321.2500 Du        
   7665 ****       117.5000 247.0000 321.5000 Du        
   7666 ****       117.5000 247.0000 321.7500 Du        
   7667 ****       117.5000 247.0000 322.0000 Du        
   7668 ****       117.5000 247.0000 322.2500 Du        
   7669 ****       117.5000 247.0000 322.5000 Du        
   7670 ****       117.5000 247.0000 322.7500 Du        
   7671 ****       117.5000 247.0000 323.0000 Du        
   7672 ****       117.5000 247.0000 323.2500 Du        
   7673 ****       117.5000 247.0000 323.5000 Du        
   7674 ****       117.5000 247.0000 323.7500 Du        
   7675 ****       117.5000 247.0000 324.0000 Du        
   7676 ****       117.5000 247.0000 324.2500 Du        
   7677 ****       117.5000 247.0000 324.5000 Du        
   7678 ****       117.5000 247.0000 324.7500 Du        
   7679 ****       117.5000 247.2500 322.0000 Du        
   7680 ****       117.5000 247.2500 322.2500 Du        
   7681 ****       117.5000 247.2500 322.5000 Du        
   7682 ****       117.5000 247.2500 322.7500 Du        
   7683 ****       117.5000 247.2500 323.0000 Du        
   7684 ****       117.5000 247.2500 323.2500 Du        
   7685 ****       117.5000 247.2500 323.5000 Du        
   7686 ****       117.5000 247.2500 323.7500 Du        
   7687 ****       117.5000 247.2500 324.0000 Du        
   7688 ****       117.5000 247.2500 324.2500 Du        
   7689 ****       117.5000 247.2500 324.5000 Du        
   7690 ****       117.5000 247.5000 322.7500 Du        
   7691 ****       117.5000 247.5000 323.0000 Du        
   7692 ****       117.5000 247.5000 323.2500 Du        
   7693 ****       117.5000 247.5000 323.5000 Du        
   7694 ****       117.5000 247.5000 323.7500 Du        
   7695 ****       117.5000 247.5000 324.0000 Du        
   7696 ****       117.5000 247.5000 324.2500 Du        
   7697 ****       117.5000 247.5000 324.5000 Du        
   7698 ****       117.5000 247.7500 323.2500 Du        
   7699 ****       117.5000 247.7500 323.5000 Du        
   7700 ****       117.5000 247.7500 323.7500 Du        
   7701 ****       117.5000 247.7500 324.0000 Du        
   7702 ****       117.5000 248.0000 323.7500 Du        
   7703 ****       117.7500 244.5000 324.0000 Du        
   7704 ****       117.7500 244.5000 324.2500 Du        
   7705 ****       117.7500 244.7500 323.7500 Du        
   7706 ****       117.7500 244.7500 324.0000 Du        
   7707 ****       117.7500 244.7500 324.2500 Du        
   7708 ****       117.7500 244.7500 324.5000 Du        
   7709 ****       117.7500 245.0000 323.5000 Du        
   7710 ****       117.7500 245.0000 323.7500 Du        
   7711 ****       117.7500 245.0000 324.0000 Du        
   7712 ****       117.7500 245.0000 324.2500 Du        
   7713 ****       117.7500 245.0000 324.5000 Du        
   7714 ****       117.7500 245.0000 324.7500 Du        
   7715 ****       117.7500 245.2500 323.0000 Du        
   7716 ****       117.7500 245.2500 323.2500 Du        
   7717 ****       117.7500 245.2500 323.5000 Du        
   7718 ****       117.7500 245.2500 323.7500 Du        
   7719 ****       117.7500 245.2500 324.0000 Du        
   7720 ****       117.7500 245.2500 324.2500 Du        
   7721 ****       117.7500 245.2500 324.5000 Du        
   7722 ****       117.7500 245.2500 324.7500 Du        
   7723 ****       117.7500 245.5000 322.2500 Du        
   7724 ****       117.7500 245.5000 322.5000 Du        
   7725 ****       117.7500 245.5000 322.7500 Du        
   7726 ****       117.7500 245.5000 323.0000 Du        
   7727 ****       117.7500 245.5000 323.2500 Du        
   7728 ****       117.7500 245.5000 323.5000 Du        
   7729 ****       117.7500 245.5000 323.7500 Du        
   7730 ****       117.7500 245.5000 324.0000 Du        
   7731 ****       117.7500 245.5000 324.2500 Du        
   7732 ****       117.7500 245.5000 324.5000 Du        
   7733 ****       117.7500 245.5000 324.7500 Du        
   7734 ****       117.7500 245.5000 325.0000 Du        
   7735 ****       117.7500 245.7500 321.5000 Du        
   7736 ****       117.7500 245.7500 321.7500 Du        
   7737 ****       117.7500 245.7500 322.0000 Du        
   7738 ****       117.7500 245.7500 322.2500 Du        
   7739 ****       117.7500 245.7500 322.5000 Du        
   7740 ****       117.7500 245.7500 322.7500 Du        
   7741 ****       117.7500 245.7500 323.0000 Du        
   7742 ****       117.7500 245.7500 323.2500 Du        
   7743 ****       117.7500 245.7500 323.5000 Du        
   7744 ****       117.7500 245.7500 323.7500 Du        
   7745 ****       117.7500 245.7500 324.0000 Du        
   7746 ****       117.7500 245.7500 324.2500 Du        
   7747 ****       117.7500 245.7500 324.5000 Du        
   7748 ****       117.7500 245.7500 324.7500 Du        
   7749 ****       117.7500 245.7500 325.0000 Du        
   7750 ****       117.7500 246.0000 321.2500 Du        
   7751 ****       117.7500 246.0000 321.5000 Du        
   7752 ****       117.7500 246.0000 321.7500 Du        
   7753 ****       117.7500 246.0000 322.0000 Du        
   7754 ****       117.7500 246.0000 322.2500 Du        
   7755 ****       117.7500 246.0000 322.5000 Du        
   7756 ****       117.7500 246.0000 322.7500 Du        
   7757 ****       117.7500 246.0000 323.0000 Du        
   7758 ****       117.7500 246.0000 323.2500 Du        
   7759 ****       117.7500 246.0000 323.5000 Du        
   7760 ****       117.7500 246.0000 323.7500 Du        
   7761 ****       117.7500 246.0000 324.0000 Du        
   7762 ****       117.7500 246.0000 324.2500 Du        
   7763 ****       117.7500 246.0000 324.5000 Du        
   7764 ****       117.7500 246.0000 324.7500 Du        
   7765 ****       117.7500 246.0000 325.0000 Du        
   7766 ****       117.7500 246.2500 321.0000 Du        
   7767 ****       117.7500 246.2500 321.2500 Du        
   7768 ****       117.7500 246.2500 321.5000 Du        
   7769 ****       117.7500 246.2500 321.7500 Du        
   7770 ****       117.7500 246.2500 322.0000 Du        
   7771 ****       117.7500 246.2500 322.2500 Du        
   7772 ****       117.7500 246.2500 322.5000 Du        
   7773 ****       117.7500 246.2500 322.7500 Du        
   7774 ****       117.7500 246.2500 323.0000 Du        
   7775 ****       117.7500 246.2500 323.2500 Du        
   7776 ****       117.7500 246.2500 323.5000 Du        
   7777 ****       117.7500 246.2500 323.7500 Du        
   7778 ****       117.7500 246.2500 324.0000 Du        
   7779 ****       117.7500 246.2500 324.2500 Du        
   7780 ****       117.7500 246.2500 324.5000 Du        
   7781 ****       117.7500 246.2500 324.7500 Du        
   7782 ****       117.7500 246.2500 325.0000 Du        
   7783 ****       117.7500 246.5000 321.0000 Du        
   7784 ****       117.7500 246.5000 321.2500 Du        
   7785 ****       117.7500 246.5000 321.5000 Du        
   7786 ****       117.7500 246.5000 321.7500 Du        
   7787 ****       117.7500 246.5000 322.0000 Du        
   7788 ****       117.7500 246.5000 322.2500 Du        
   7789 ****       117.7500 246.5000 322.5000 Du        
   7790 ****       117.7500 246.5000 322.7500 Du        
   7791 ****       117.7500 246.5000 323.0000 Du        
   7792 ****       117.7500 246.5000 323.2500 Du        
   7793 ****       117.7500 246.5000 323.5000 Du        
   7794 ****       117.7500 246.5000 323.7500 Du        
   7795 ****       117.7500 246.5000 324.0000 Du        
   7796 ****       117.7500 246.5000 324.2500 Du        
   7797 ****       117.7500 246.5000 324.5000 Du        
   7798 ****       117.7500 246.5000 324.7500 Du        
   7799 ****       117.7500 246.7500 320.7500 Du        
   7800 ****       117.7500 246.7500 321.0000 Du        
   7801 ****       117.7500 246.7500 321.2500 Du        
   7802 ****       117.7500 246.7500 321.5000 Du        
   7803 ****       117.7500 246.7500 321.7500 Du        
   7804 ****       117.7500 246.7500 322.0000 Du        
   7805 ****       117.7500 246.7500 322.2500 Du        
   7806 ****       117.7500 246.7500 322.5000 Du        
   7807 ****       117.7500 246.7500 322.7500 Du        
   7808 ****       117.7500 246.7500 323.0000 Du        
   7809 ****       117.7500 246.7500 323.2500 Du        
   7810 ****       117.7500 246.7500 323.5000 Du        
   7811 ****       117.7500 246.7500 323.7500 Du        
   7812 ****       117.7500 246.7500 324.0000 Du        
   7813 ****       117.7500 246.7500 324.2500 Du        
   7814 ****       117.7500 246.7500 324.5000 Du        
   7815 ****       117.7500 246.7500 324.7500 Du        
   7816 ****       117.7500 247.0000 320.7500 Du        
   7817 ****       117.7500 247.0000 321.0000 Du        
   7818 ****       117.7500 247.0000 321.2500 Du        
   7819 ****       117.7500 247.0000 321.5000 Du        
   7820 ****       117.7500 247.0000 321.7500 Du        
   7821 ****       117.7500 247.0000 322.0000 Du        
   7822 ****       117.7500 247.0000 322.2500 Du        
   7823 ****       117.7500 247.0000 322.5000 Du        
   7824 ****       117.7500 247.0000 322.7500 Du        
   7825 ****       117.7500 247.0000 323.0000 Du        
   7826 ****       117.7500 247.0000 323.2500 Du        
   7827 ****       117.7500 247.0000 323.5000 Du        
   7828 ****       117.7500 247.0000 323.7500 Du        
   7829 ****       117.7500 247.0000 324.0000 Du        
   7830 ****       117.7500 247.0000 324.2500 Du        
   7831 ****       117.7500 247.0000 324.5000 Du        
   7832 ****       117.7500 247.2500 321.0000 Du        
   7833 ****       117.7500 247.2500 321.2500 Du        
   7834 ****       117.7500 247.2500 321.5000 Du        
   7835 ****       117.7500 247.2500 321.7500 Du        
   7836 ****       117.7500 247.2500 322.0000 Du        
   7837 ****       117.7500 247.2500 322.2500 Du        
   7838 ****       117.7500 247.2500 322.5000 Du        
   7839 ****       117.7500 247.2500 322.7500 Du        
   7840 ****       117.7500 247.2500 323.0000 Du        
   7841 ****       117.7500 247.2500 323.2500 Du        
   7842 ****       117.7500 247.2500 323.5000 Du        
   7843 ****       117.7500 247.2500 323.7500 Du        
   7844 ****       117.7500 247.2500 324.0000 Du        
   7845 ****       117.7500 247.2500 324.2500 Du        
   7846 ****       117.7500 247.2500 324.5000 Du        
   7847 ****       117.7500 247.5000 322.0000 Du        
   7848 ****       117.7500 247.5000 322.2500 Du        
   7849 ****       117.7500 247.5000 322.5000 Du        
   7850 ****       117.7500 247.5000 322.7500 Du        
   7851 ****       117.7500 247.5000 323.0000 Du        
   7852 ****       117.7500 247.5000 323.2500 Du        
   7853 ****       117.7500 247.5000 323.5000 Du        
   7854 ****       117.7500 247.5000 323.7500 Du        
   7855 ****       117.7500 247.5000 324.0000 Du        
   7856 ****       117.7500 247.5000 324.2500 Du        
   7857 ****       117.7500 247.7500 323.0000 Du        
   7858 ****       117.7500 247.7500 323.2500 Du        
   7859 ****       117.7500 247.7500 323.5000 Du        
   7860 ****       117.7500 247.7500 323.7500 Du        
   7861 ****       117.7500 247.7500 324.0000 Du        
   7862 ****       118.0000 244.2500 324.0000 Du        
   7863 ****       118.0000 244.2500 324.2500 Du        
   7864 ****       118.0000 244.5000 324.0000 Du        
   7865 ****       118.0000 244.5000 324.2500 Du        
   7866 ****       118.0000 244.7500 323.7500 Du        
   7867 ****       118.0000 244.7500 324.0000 Du        
   7868 ****       118.0000 244.7500 324.2500 Du        
   7869 ****       118.0000 244.7500 324.5000 Du        
   7870 ****       118.0000 245.0000 323.2500 Du        
   7871 ****       118.0000 245.0000 323.5000 Du        
   7872 ****       118.0000 245.0000 323.7500 Du        
   7873 ****       118.0000 245.0000 324.0000 Du        
   7874 ****       118.0000 245.0000 324.2500 Du        
   7875 ****       118.0000 245.0000 324.5000 Du        
   7876 ****       118.0000 245.0000 324.7500 Du        
   7877 ****       118.0000 245.2500 323.0000 Du        
   7878 ****       118.0000 245.2500 323.2500 Du        
   7879 ****       118.0000 245.2500 323.5000 Du        
   7880 ****       118.0000 245.2500 323.7500 Du        
   7881 ****       118.0000 245.2500 324.0000 Du        
   7882 ****       118.0000 245.2500 324.2500 Du        
   7883 ****       118.0000 245.2500 324.5000 Du        
   7884 ****       118.0000 245.2500 324.7500 Du        
   7885 ****       118.0000 245.2500 325.0000 Du        
   7886 ****       118.0000 245.5000 322.2500 Du        
   7887 ****       118.0000 245.5000 322.5000 Du        
   7888 ****       118.0000 245.5000 322.7500 Du        
   7889 ****       118.0000 245.5000 323.0000 Du        
   7890 ****       118.0000 245.5000 323.2500 Du        
   7891 ****       118.0000 245.5000 323.5000 Du        
   7892 ****       118.0000 245.5000 323.7500 Du        
   7893 ****       118.0000 245.5000 324.0000 Du        
   7894 ****       118.0000 245.5000 324.2500 Du        
   7895 ****       118.0000 245.5000 324.5000 Du        
   7896 ****       118.0000 245.5000 324.7500 Du        
   7897 ****       118.0000 245.5000 325.0000 Du        
   7898 ****       118.0000 245.7500 321.5000 Du        
   7899 ****       118.0000 245.7500 321.7500 Du        
   7900 ****       118.0000 245.7500 322.0000 Du        
   7901 ****       118.0000 245.7500 322.2500 Du        
   7902 ****       118.0000 245.7500 322.5000 Du        
   7903 ****       118.0000 245.7500 322.7500 Du        
   7904 ****       118.0000 245.7500 323.0000 Du        
   7905 ****       118.0000 245.7500 323.2500 Du        
   7906 ****       118.0000 245.7500 323.5000 Du        
   7907 ****       118.0000 245.7500 323.7500 Du        
   7908 ****       118.0000 245.7500 324.0000 Du        
   7909 ****       118.0000 245.7500 324.2500 Du        
   7910 ****       118.0000 245.7500 324.5000 Du        
   7911 ****       118.0000 245.7500 324.7500 Du        
   7912 ****       118.0000 245.7500 325.0000 Du        
   7913 ****       118.0000 246.0000 321.2500 Du        
   7914 ****       118.0000 246.0000 321.5000 Du        
   7915 ****       118.0000 246.0000 321.7500 Du        
   7916 ****       118.0000 246.0000 322.0000 Du        
   7917 ****       118.0000 246.0000 322.2500 Du        
   7918 ****       118.0000 246.0000 322.5000 Du        
   7919 ****       118.0000 246.0000 322.7500 Du        
   7920 ****       118.0000 246.0000 323.0000 Du        
   7921 ****       118.0000 246.0000 323.2500 Du        
   7922 ****       118.0000 246.0000 323.5000 Du        
   7923 ****       118.0000 246.0000 323.7500 Du        
   7924 ****       118.0000 246.0000 324.0000 Du        
   7925 ****       118.0000 246.0000 324.2500 Du        
   7926 ****       118.0000 246.0000 324.5000 Du        
   7927 ****       118.0000 246.0000 324.7500 Du        
   7928 ****       118.0000 246.0000 325.0000 Du        
   7929 ****       118.0000 246.2500 321.0000 Du        
   7930 ****       118.0000 246.2500 321.2500 Du        
   7931 ****       118.0000 246.2500 321.5000 Du        
   7932 ****       118.0000 246.2500 321.7500 Du        
   7933 ****       118.0000 246.2500 322.0000 Du        
   7934 ****       118.0000 246.2500 322.2500 Du        
   7935 ****       118.0000 246.2500 322.5000 Du        
   7936 ****       118.0000 246.2500 322.7500 Du        
   7937 ****       118.0000 246.2500 323.0000 Du        
   7938 ****       118.0000 246.2500 323.2500 Du        
   7939 ****       118.0000 246.2500 323.5000 Du        
   7940 ****       118.0000 246.2500 323.7500 Du        
   7941 ****       118.0000 246.2500 324.0000 Du        
   7942 ****       118.0000 246.2500 324.2500 Du        
   7943 ****       118.0000 246.2500 324.5000 Du        
   7944 ****       118.0000 246.2500 324.7500 Du        
   7945 ****       118.0000 246.5000 321.0000 Du        
   7946 ****       118.0000 246.5000 321.2500 Du        
   7947 ****       118.0000 246.5000 321.5000 Du        
   7948 ****       118.0000 246.5000 321.7500 Du        
   7949 ****       118.0000 246.5000 322.0000 Du        
   7950 ****       118.0000 246.5000 322.2500 Du        
   7951 ****       118.0000 246.5000 322.5000 Du        
   7952 ****       118.0000 246.5000 322.7500 Du        
   7953 ****       118.0000 246.5000 323.0000 Du        
   7954 ****       118.0000 246.5000 323.2500 Du        
   7955 ****       118.0000 246.5000 323.5000 Du        
   7956 ****       118.0000 246.5000 323.7500 Du        
   7957 ****       118.0000 246.5000 324.0000 Du        
   7958 ****       118.0000 246.5000 324.2500 Du        
   7959 ****       118.0000 246.5000 324.5000 Du        
   7960 ****       118.0000 246.5000 324.7500 Du        
   7961 ****       118.0000 246.7500 320.7500 Du        
   7962 ****       118.0000 246.7500 321.0000 Du        
   7963 ****       118.0000 246.7500 321.2500 Du        
   7964 ****       118.0000 246.7500 321.5000 Du        
   7965 ****       118.0000 246.7500 321.7500 Du        
   7966 ****       118.0000 246.7500 322.0000 Du        
   7967 ****       118.0000 246.7500 322.2500 Du        
   7968 ****       118.0000 246.7500 322.5000 Du        
   7969 ****       118.0000 246.7500 322.7500 Du        
   7970 ****       118.0000 246.7500 323.0000 Du        
   7971 ****       118.0000 246.7500 323.2500 Du        
   7972 ****       118.0000 246.7500 323.5000 Du        
   7973 ****       118.0000 246.7500 323.7500 Du        
   7974 ****       118.0000 246.7500 324.0000 Du        
   7975 ****       118.0000 246.7500 324.2500 Du        
   7976 ****       118.0000 246.7500 324.5000 Du        
   7977 ****       118.0000 247.0000 320.7500 Du        
   7978 ****       118.0000 247.0000 321.0000 Du        
   7979 ****       118.0000 247.0000 321.2500 Du        
   7980 ****       118.0000 247.0000 321.5000 Du        
   7981 ****       118.0000 247.0000 321.7500 Du        
   7982 ****       118.0000 247.0000 322.0000 Du        
   7983 ****       118.0000 247.0000 322.2500 Du        
   7984 ****       118.0000 247.0000 322.5000 Du        
   7985 ****       118.0000 247.0000 322.7500 Du        
   7986 ****       118.0000 247.0000 323.0000 Du        
   7987 ****       118.0000 247.0000 323.2500 Du        
   7988 ****       118.0000 247.0000 323.5000 Du        
   7989 ****       118.0000 247.0000 323.7500 Du        
   7990 ****       118.0000 247.0000 324.0000 Du        
   7991 ****       118.0000 247.0000 324.2500 Du        
   7992 ****       118.0000 247.0000 324.5000 Du        
   7993 ****       118.0000 247.2500 321.0000 Du        
   7994 ****       118.0000 247.2500 321.2500 Du        
   7995 ****       118.0000 247.2500 321.5000 Du        
   7996 ****       118.0000 247.2500 321.7500 Du        
   7997 ****       118.0000 247.2500 322.0000 Du        
   7998 ****       118.0000 247.2500 322.2500 Du        
   7999 ****       118.0000 247.2500 322.5000 Du        
   8000 ****       118.0000 247.2500 322.7500 Du        
   8001 ****       118.0000 247.2500 323.0000 Du        
   8002 ****       118.0000 247.2500 323.2500 Du        
   8003 ****       118.0000 247.2500 323.5000 Du        
   8004 ****       118.0000 247.2500 323.7500 Du        
   8005 ****       118.0000 247.2500 324.0000 Du        
   8006 ****       118.0000 247.2500 324.2500 Du        
   8007 ****       118.0000 247.5000 321.2500 Du        
   8008 ****       118.0000 247.5000 321.5000 Du        
   8009 ****       118.0000 247.5000 321.7500 Du        
   8010 ****       118.0000 247.5000 322.0000 Du        
   8011 ****       118.0000 247.5000 322.2500 Du        
   8012 ****       118.0000 247.5000 322.5000 Du        
   8013 ****       118.0000 247.5000 322.7500 Du        
   8014 ****       118.0000 247.5000 323.0000 Du        
   8015 ****       118.0000 247.5000 323.2500 Du        
   8016 ****       118.0000 247.5000 323.5000 Du        
   8017 ****       118.0000 247.5000 323.7500 Du        
   8018 ****       118.0000 247.5000 324.0000 Du        
   8019 ****       118.0000 247.5000 324.2500 Du        
   8020 ****       118.0000 247.7500 322.7500 Du        
   8021 ****       118.0000 247.7500 323.0000 Du        
   8022 ****       118.0000 247.7500 323.2500 Du        
   8023 ****       118.0000 247.7500 323.5000 Du        
   8024 ****       118.0000 247.7500 323.7500 Du        
   8025 ****       118.0000 247.7500 324.0000 Du        
   8026 ****       118.2500 244.2500 324.0000 Du        
   8027 ****       118.2500 244.2500 324.2500 Du        
   8028 ****       118.2500 244.5000 323.7500 Du        
   8029 ****       118.2500 244.5000 324.0000 Du        
   8030 ****       118.2500 244.5000 324.2500 Du        
   8031 ****       118.2500 244.5000 324.5000 Du        
   8032 ****       118.2500 244.7500 323.7500 Du        
   8033 ****       118.2500 244.7500 324.0000 Du        
   8034 ****       118.2500 244.7500 324.2500 Du        
   8035 ****       118.2500 244.7500 324.5000 Du        
   8036 ****       118.2500 245.0000 323.2500 Du        
   8037 ****       118.2500 245.0000 323.5000 Du        
   8038 ****       118.2500 245.0000 323.7500 Du        
   8039 ****       118.2500 245.0000 324.0000 Du        
   8040 ****       118.2500 245.0000 324.2500 Du        
   8041 ****       118.2500 245.0000 324.5000 Du        
   8042 ****       118.2500 245.0000 324.7500 Du        
   8043 ****       118.2500 245.2500 322.7500 Du        
   8044 ****       118.2500 245.2500 323.0000 Du        
   8045 ****       118.2500 245.2500 323.2500 Du        
   8046 ****       118.2500 245.2500 323.5000 Du        
   8047 ****       118.2500 245.2500 323.7500 Du        
   8048 ****       118.2500 245.2500 324.0000 Du        
   8049 ****       118.2500 245.2500 324.2500 Du        
   8050 ****       118.2500 245.2500 324.5000 Du        
   8051 ****       118.2500 245.2500 324.7500 Du        
   8052 ****       118.2500 245.2500 325.0000 Du        
   8053 ****       118.2500 245.5000 322.0000 Du        
   8054 ****       118.2500 245.5000 322.2500 Du        
   8055 ****       118.2500 245.5000 322.5000 Du        
   8056 ****       118.2500 245.5000 322.7500 Du        
   8057 ****       118.2500 245.5000 323.0000 Du        
   8058 ****       118.2500 245.5000 323.2500 Du        
   8059 ****       118.2500 245.5000 323.5000 Du        
   8060 ****       118.2500 245.5000 323.7500 Du        
   8061 ****       118.2500 245.5000 324.0000 Du        
   8062 ****       118.2500 245.5000 324.2500 Du        
   8063 ****       118.2500 245.5000 324.5000 Du        
   8064 ****       118.2500 245.5000 324.7500 Du        
   8065 ****       118.2500 245.5000 325.0000 Du        
   8066 ****       118.2500 245.7500 321.5000 Du        
   8067 ****       118.2500 245.7500 321.7500 Du        
   8068 ****       118.2500 245.7500 322.0000 Du        
   8069 ****       118.2500 245.7500 322.2500 Du        
   8070 ****       118.2500 245.7500 322.5000 Du        
   8071 ****       118.2500 245.7500 322.7500 Du        
   8072 ****       118.2500 245.7500 323.0000 Du        
   8073 ****       118.2500 245.7500 323.2500 Du        
   8074 ****       118.2500 245.7500 323.5000 Du        
   8075 ****       118.2500 245.7500 323.7500 Du        
   8076 ****       118.2500 245.7500 324.0000 Du        
   8077 ****       118.2500 245.7500 324.2500 Du        
   8078 ****       118.2500 245.7500 324.5000 Du        
   8079 ****       118.2500 245.7500 324.7500 Du        
   8080 ****       118.2500 245.7500 325.0000 Du        
   8081 ****       118.2500 246.0000 321.2500 Du        
   8082 ****       118.2500 246.0000 321.5000 Du        
   8083 ****       118.2500 246.0000 321.7500 Du        
   8084 ****       118.2500 246.0000 322.0000 Du        
   8085 ****       118.2500 246.0000 322.2500 Du        
   8086 ****       118.2500 246.0000 322.5000 Du        
   8087 ****       118.2500 246.0000 322.7500 Du        
   8088 ****       118.2500 246.0000 323.0000 Du        
   8089 ****       118.2500 246.0000 323.2500 Du        
   8090 ****       118.2500 246.0000 323.5000 Du        
   8091 ****       118.2500 246.0000 323.7500 Du        
   8092 ****       118.2500 246.0000 324.0000 Du        
   8093 ****       118.2500 246.0000 324.2500 Du        
   8094 ****       118.2500 246.0000 324.5000 Du        
   8095 ****       118.2500 246.0000 324.7500 Du        
   8096 ****       118.2500 246.2500 321.0000 Du        
   8097 ****       118.2500 246.2500 321.2500 Du        
   8098 ****       118.2500 246.2500 321.5000 Du        
   8099 ****       118.2500 246.2500 321.7500 Du        
   8100 ****       118.2500 246.2500 322.0000 Du        
   8101 ****       118.2500 246.2500 322.2500 Du        
   8102 ****       118.2500 246.2500 322.5000 Du        
   8103 ****       118.2500 246.2500 322.7500 Du        
   8104 ****       118.2500 246.2500 323.0000 Du        
   8105 ****       118.2500 246.2500 323.2500 Du        
   8106 ****       118.2500 246.2500 323.5000 Du        
   8107 ****       118.2500 246.2500 323.7500 Du        
   8108 ****       118.2500 246.2500 324.0000 Du        
   8109 ****       118.2500 246.2500 324.2500 Du        
   8110 ****       118.2500 246.2500 324.5000 Du        
   8111 ****       118.2500 246.2500 324.7500 Du        
   8112 ****       118.2500 246.5000 321.0000 Du        
   8113 ****       118.2500 246.5000 321.2500 Du        
   8114 ****       118.2500 246.5000 321.5000 Du        
   8115 ****       118.2500 246.5000 321.7500 Du        
   8116 ****       118.2500 246.5000 322.0000 Du        
   8117 ****       118.2500 246.5000 322.2500 Du        
   8118 ****       118.2500 246.5000 322.5000 Du        
   8119 ****       118.2500 246.5000 322.7500 Du        
   8120 ****       118.2500 246.5000 323.0000 Du        
   8121 ****       118.2500 246.5000 323.2500 Du        
   8122 ****       118.2500 246.5000 323.5000 Du        
   8123 ****       118.2500 246.5000 323.7500 Du        
   8124 ****       118.2500 246.5000 324.0000 Du        
   8125 ****       118.2500 246.5000 324.2500 Du        
   8126 ****       118.2500 246.5000 324.5000 Du        
   8127 ****       118.2500 246.7500 320.7500 Du        
   8128 ****       118.2500 246.7500 321.0000 Du        
   8129 ****       118.2500 246.7500 321.2500 Du        
   8130 ****       118.2500 246.7500 321.5000 Du        
   8131 ****       118.2500 246.7500 321.7500 Du        
   8132 ****       118.2500 246.7500 322.0000 Du        
   8133 ****       118.2500 246.7500 322.2500 Du        
   8134 ****       118.2500 246.7500 322.5000 Du        
   8135 ****       118.2500 246.7500 322.7500 Du        
   8136 ****       118.2500 246.7500 323.0000 Du        
   8137 ****       118.2500 246.7500 323.2500 Du        
   8138 ****       118.2500 246.7500 323.5000 Du        
   8139 ****       118.2500 246.7500 323.7500 Du        
   8140 ****       118.2500 246.7500 324.0000 Du        
   8141 ****       118.2500 246.7500 324.2500 Du        
   8142 ****       118.2500 246.7500 324.5000 Du        
   8143 ****       118.2500 247.0000 320.7500 Du        
   8144 ****       118.2500 247.0000 321.0000 Du        
   8145 ****       118.2500 247.0000 321.2500 Du        
   8146 ****       118.2500 247.0000 321.5000 Du        
   8147 ****       118.2500 247.0000 321.7500 Du        
   8148 ****       118.2500 247.0000 322.0000 Du        
   8149 ****       118.2500 247.0000 322.2500 Du        
   8150 ****       118.2500 247.0000 322.5000 Du        
   8151 ****       118.2500 247.0000 322.7500 Du        
   8152 ****       118.2500 247.0000 323.0000 Du        
   8153 ****       118.2500 247.0000 323.2500 Du        
   8154 ****       118.2500 247.0000 323.5000 Du        
   8155 ****       118.2500 247.0000 323.7500 Du        
   8156 ****       118.2500 247.0000 324.0000 Du        
   8157 ****       118.2500 247.0000 324.2500 Du        
   8158 ****       118.2500 247.2500 321.0000 Du        
   8159 ****       118.2500 247.2500 321.2500 Du        
   8160 ****       118.2500 247.2500 321.5000 Du        
   8161 ****       118.2500 247.2500 321.7500 Du        
   8162 ****       118.2500 247.2500 322.0000 Du        
   8163 ****       118.2500 247.2500 322.2500 Du        
   8164 ****       118.2500 247.2500 322.5000 Du        
   8165 ****       118.2500 247.2500 322.7500 Du        
   8166 ****       118.2500 247.2500 323.0000 Du        
   8167 ****       118.2500 247.2500 323.2500 Du        
   8168 ****       118.2500 247.2500 323.5000 Du        
   8169 ****       118.2500 247.2500 323.7500 Du        
   8170 ****       118.2500 247.2500 324.0000 Du        
   8171 ****       118.2500 247.2500 324.2500 Du        
   8172 ****       118.2500 247.5000 321.2500 Du        
   8173 ****       118.2500 247.5000 321.5000 Du        
   8174 ****       118.2500 247.5000 321.7500 Du        
   8175 ****       118.2500 247.5000 322.0000 Du        
   8176 ****       118.2500 247.5000 322.2500 Du        
   8177 ****       118.2500 247.5000 322.5000 Du        
   8178 ****       118.2500 247.5000 322.7500 Du        
   8179 ****       118.2500 247.5000 323.0000 Du        
   8180 ****       118.2500 247.5000 323.2500 Du        
   8181 ****       118.2500 247.5000 323.5000 Du        
   8182 ****       118.2500 247.5000 323.7500 Du        
   8183 ****       118.2500 247.5000 324.0000 Du        
   8184 ****       118.2500 247.7500 322.2500 Du        
   8185 ****       118.2500 247.7500 322.5000 Du        
   8186 ****       118.2500 247.7500 322.7500 Du        
   8187 ****       118.2500 247.7500 323.0000 Du        
   8188 ****       118.2500 247.7500 323.2500 Du        
   8189 ****       118.2500 247.7500 323.5000 Du        
   8190 ****       118.2500 247.7500 323.7500 Du        
   8191 ****       118.5000 244.0000 324.0000 Du        
   8192 ****       118.5000 244.0000 324.2500 Du        
   8193 ****       118.5000 244.2500 323.7500 Du        
   8194 ****       118.5000 244.2500 324.0000 Du        
   8195 ****       118.5000 244.2500 324.2500 Du        
   8196 ****       118.5000 244.2500 324.5000 Du        
   8197 ****       118.5000 244.5000 323.7500 Du        
   8198 ****       118.5000 244.5000 324.0000 Du        
   8199 ****       118.5000 244.5000 324.2500 Du        
   8200 ****       118.5000 244.5000 324.5000 Du        
   8201 ****       118.5000 244.7500 323.5000 Du        
   8202 ****       118.5000 244.7500 323.7500 Du        
   8203 ****       118.5000 244.7500 324.0000 Du        
   8204 ****       118.5000 244.7500 324.2500 Du        
   8205 ****       118.5000 244.7500 324.5000 Du        
   8206 ****       118.5000 244.7500 324.7500 Du        
   8207 ****       118.5000 245.0000 323.0000 Du        
   8208 ****       118.5000 245.0000 323.2500 Du        
   8209 ****       118.5000 245.0000 323.5000 Du        
   8210 ****       118.5000 245.0000 323.7500 Du        
   8211 ****       118.5000 245.0000 324.0000 Du        
   8212 ****       118.5000 245.0000 324.2500 Du        
   8213 ****       118.5000 245.0000 324.5000 Du        
   8214 ****       118.5000 245.0000 324.7500 Du        
   8215 ****       118.5000 245.2500 322.5000 Du        
   8216 ****       118.5000 245.2500 322.7500 Du        
   8217 ****       118.5000 245.2500 323.0000 Du        
   8218 ****       118.5000 245.2500 323.2500 Du        
   8219 ****       118.5000 245.2500 323.5000 Du        
   8220 ****       118.5000 245.2500 323.7500 Du        
   8221 ****       118.5000 245.2500 324.0000 Du        
   8222 ****       118.5000 245.2500 324.2500 Du        
   8223 ****       118.5000 245.2500 324.5000 Du        
   8224 ****       118.5000 245.2500 324.7500 Du        
   8225 ****       118.5000 245.2500 325.0000 Du        
   8226 ****       118.5000 245.5000 321.7500 Du        
   8227 ****       118.5000 245.5000 322.0000 Du        
   8228 ****       118.5000 245.5000 322.2500 Du        
   8229 ****       118.5000 245.5000 322.5000 Du        
   8230 ****       118.5000 245.5000 322.7500 Du        
   8231 ****       118.5000 245.5000 323.0000 Du        
   8232 ****       118.5000 245.5000 323.2500 Du        
   8233 ****       118.5000 245.5000 323.5000 Du        
   8234 ****       118.5000 245.5000 323.7500 Du        
   8235 ****       118.5000 245.5000 324.0000 Du        
   8236 ****       118.5000 245.5000 324.2500 Du        
   8237 ****       118.5000 245.5000 324.5000 Du        
   8238 ****       118.5000 245.5000 324.7500 Du        
   8239 ****       118.5000 245.5000 325.0000 Du        
   8240 ****       118.5000 245.7500 321.5000 Du        
   8241 ****       118.5000 245.7500 321.7500 Du        
   8242 ****       118.5000 245.7500 322.0000 Du        
   8243 ****       118.5000 245.7500 322.2500 Du        
   8244 ****       118.5000 245.7500 322.5000 Du        
   8245 ****       118.5000 245.7500 322.7500 Du        
   8246 ****       118.5000 245.7500 323.0000 Du        
   8247 ****       118.5000 245.7500 323.2500 Du        
   8248 ****       118.5000 245.7500 323.5000 Du        
   8249 ****       118.5000 245.7500 323.7500 Du        
   8250 ****       118.5000 245.7500 324.0000 Du        
   8251 ****       118.5000 245.7500 324.2500 Du        
   8252 ****       118.5000 245.7500 324.5000 Du        
   8253 ****       118.5000 245.7500 324.7500 Du        
   8254 ****       118.5000 246.0000 321.2500 Du        
   8255 ****       118.5000 246.0000 321.5000 Du        
   8256 ****       118.5000 246.0000 321.7500 Du        
   8257 ****       118.5000 246.0000 322.0000 Du        
   8258 ****       118.5000 246.0000 322.2500 Du        
   8259 ****       118.5000 246.0000 322.5000 Du        
   8260 ****       118.5000 246.0000 322.7500 Du        
   8261 ****       118.5000 246.0000 323.0000 Du        
   8262 ****       118.5000 246.0000 323.2500 Du        
   8263 ****       118.5000 246.0000 323.5000 Du        
   8264 ****       118.5000 246.0000 323.7500 Du        
   8265 ****       118.5000 246.0000 324.0000 Du        
   8266 ****       118.5000 246.0000 324.2500 Du        
   8267 ****       118.5000 246.0000 324.5000 Du        
   8268 ****       118.5000 246.0000 324.7500 Du        
   8269 ****       118.5000 246.2500 321.0000 Du        
   8270 ****       118.5000 246.2500 321.2500 Du        
   8271 ****       118.5000 246.2500 321.5000 Du        
   8272 ****       118.5000 246.2500 321.7500 Du        
   8273 ****       118.5000 246.2500 322.0000 Du        
   8274 ****       118.5000 246.2500 322.2500 Du        
   8275 ****       118.5000 246.2500 322.5000 Du        
   8276 ****       118.5000 246.2500 322.7500 Du        
   8277 ****       118.5000 246.2500 323.0000 Du        
   8278 ****       118.5000 246.2500 323.2500 Du        
   8279 ****       118.5000 246.2500 323.5000 Du        
   8280 ****       118.5000 246.2500 323.7500 Du        
   8281 ****       118.5000 246.2500 324.0000 Du        
   8282 ****       118.5000 246.2500 324.2500 Du        
   8283 ****       118.5000 246.2500 324.5000 Du        
   8284 ****       118.5000 246.5000 321.0000 Du        
   8285 ****       118.5000 246.5000 321.2500 Du        
   8286 ****       118.5000 246.5000 321.5000 Du        
   8287 ****       118.5000 246.5000 321.7500 Du        
   8288 ****       118.5000 246.5000 322.0000 Du        
   8289 ****       118.5000 246.5000 322.2500 Du        
   8290 ****       118.5000 246.5000 322.5000 Du        
   8291 ****       118.5000 246.5000 322.7500 Du        
   8292 ****       118.5000 246.5000 323.0000 Du        
   8293 ****       118.5000 246.5000 323.2500 Du        
   8294 ****       118.5000 246.5000 323.5000 Du        
   8295 ****       118.5000 246.5000 323.7500 Du        
   8296 ****       118.5000 246.5000 324.0000 Du        
   8297 ****       118.5000 246.5000 324.2500 Du        
   8298 ****       118.5000 246.5000 324.5000 Du        
   8299 ****       118.5000 246.7500 321.0000 Du        
   8300 ****       118.5000 246.7500 321.2500 Du        
   8301 ****       118.5000 246.7500 321.5000 Du        
   8302 ****       118.5000 246.7500 321.7500 Du        
   8303 ****       118.5000 246.7500 322.0000 Du        
   8304 ****       118.5000 246.7500 322.2500 Du        
   8305 ****       118.5000 246.7500 322.5000 Du        
   8306 ****       118.5000 246.7500 322.7500 Du        
   8307 ****       118.5000 246.7500 323.0000 Du        
   8308 ****       118.5000 246.7500 323.2500 Du        
   8309 ****       118.5000 246.7500 323.5000 Du        
   8310 ****       118.5000 246.7500 323.7500 Du        
   8311 ****       118.5000 246.7500 324.0000 Du        
   8312 ****       118.5000 246.7500 324.2500 Du        
   8313 ****       118.5000 247.0000 320.7500 Du        
   8314 ****       118.5000 247.0000 321.0000 Du        
   8315 ****       118.5000 247.0000 321.2500 Du        
   8316 ****       118.5000 247.0000 321.5000 Du        
   8317 ****       118.5000 247.0000 321.7500 Du        
   8318 ****       118.5000 247.0000 322.0000 Du        
   8319 ****       118.5000 247.0000 322.2500 Du        
   8320 ****       118.5000 247.0000 322.5000 Du        
   8321 ****       118.5000 247.0000 322.7500 Du        
   8322 ****       118.5000 247.0000 323.0000 Du        
   8323 ****       118.5000 247.0000 323.2500 Du        
   8324 ****       118.5000 247.0000 323.5000 Du        
   8325 ****       118.5000 247.0000 323.7500 Du        
   8326 ****       118.5000 247.0000 324.0000 Du        
   8327 ****       118.5000 247.0000 324.2500 Du        
   8328 ****       118.5000 247.2500 320.7500 Du        
   8329 ****       118.5000 247.2500 321.0000 Du        
   8330 ****       118.5000 247.2500 321.2500 Du        
   8331 ****       118.5000 247.2500 321.5000 Du        
   8332 ****       118.5000 247.2500 321.7500 Du        
   8333 ****       118.5000 247.2500 322.0000 Du        
   8334 ****       118.5000 247.2500 322.2500 Du        
   8335 ****       118.5000 247.2500 322.5000 Du        
   8336 ****       118.5000 247.2500 322.7500 Du        
   8337 ****       118.5000 247.2500 323.0000 Du        
   8338 ****       118.5000 247.2500 323.2500 Du        
   8339 ****       118.5000 247.2500 323.5000 Du        
   8340 ****       118.5000 247.2500 323.7500 Du        
   8341 ****       118.5000 247.2500 324.0000 Du        
   8342 ****       118.5000 247.5000 321.2500 Du        
   8343 ****       118.5000 247.5000 321.5000 Du        
   8344 ****       118.5000 247.5000 321.7500 Du        
   8345 ****       118.5000 247.5000 322.0000 Du        
   8346 ****       118.5000 247.5000 322.2500 Du        
   8347 ****       118.5000 247.5000 322.5000 Du        
   8348 ****       118.5000 247.5000 322.7500 Du        
   8349 ****       118.5000 247.5000 323.0000 Du        
   8350 ****       118.5000 247.5000 323.2500 Du        
   8351 ****       118.5000 247.5000 323.5000 Du        
   8352 ****       118.5000 247.5000 323.7500 Du        
   8353 ****       118.5000 247.5000 324.0000 Du        
   8354 ****       118.5000 247.7500 322.0000 Du        
   8355 ****       118.5000 247.7500 322.2500 Du        
   8356 ****       118.5000 247.7500 322.5000 Du        
   8357 ****       118.5000 247.7500 322.7500 Du        
   8358 ****       118.5000 247.7500 323.0000 Du        
   8359 ****       118.5000 247.7500 323.2500 Du        
   8360 ****       118.5000 247.7500 323.5000 Du        
   8361 ****       118.7500 243.7500 324.0000 Du        
   8362 ****       118.7500 243.7500 324.2500 Du        
   8363 ****       118.7500 244.0000 324.0000 Du        
   8364 ****       118.7500 244.0000 324.2500 Du        
   8365 ****       118.7500 244.2500 323.7500 Du        
   8366 ****       118.7500 244.2500 324.0000 Du        
   8367 ****       118.7500 244.2500 324.2500 Du        
   8368 ****       118.7500 244.2500 324.5000 Du        
   8369 ****       118.7500 244.5000 323.5000 Du        
   8370 ****       118.7500 244.5000 323.7500 Du        
   8371 ****       118.7500 244.5000 324.0000 Du        
   8372 ****       118.7500 244.5000 324.2500 Du        
   8373 ****       118.7500 244.5000 324.5000 Du        
   8374 ****       118.7500 244.5000 324.7500 Du        
   8375 ****       118.7500 244.7500 323.2500 Du        
   8376 ****       118.7500 244.7500 323.5000 Du        
   8377 ****       118.7500 244.7500 323.7500 Du        
   8378 ****       118.7500 244.7500 324.0000 Du        
   8379 ****       118.7500 244.7500 324.2500 Du        
   8380 ****       118.7500 244.7500 324.5000 Du        
   8381 ****       118.7500 244.7500 324.7500 Du        
   8382 ****       118.7500 245.0000 322.7500 Du        
   8383 ****       118.7500 245.0000 323.0000 Du        
   8384 ****       118.7500 245.0000 323.2500 Du        
   8385 ****       118.7500 245.0000 323.5000 Du        
   8386 ****       118.7500 245.0000 323.7500 Du        
   8387 ****       118.7500 245.0000 324.0000 Du        
   8388 ****       118.7500 245.0000 324.2500 Du        
   8389 ****       118.7500 245.0000 324.5000 Du        
   8390 ****       118.7500 245.0000 324.7500 Du        
   8391 ****       118.7500 245.0000 325.0000 Du        
   8392 ****       118.7500 245.2500 322.2500 Du        
   8393 ****       118.7500 245.2500 322.5000 Du        
   8394 ****       118.7500 245.2500 322.7500 Du        
   8395 ****       118.7500 245.2500 323.0000 Du        
   8396 ****       118.7500 245.2500 323.2500 Du        
   8397 ****       118.7500 245.2500 323.5000 Du        
   8398 ****       118.7500 245.2500 323.7500 Du        
   8399 ****       118.7500 245.2500 324.0000 Du        
   8400 ****       118.7500 245.2500 324.2500 Du        
   8401 ****       118.7500 245.2500 324.5000 Du        
   8402 ****       118.7500 245.2500 324.7500 Du        
   8403 ****       118.7500 245.2500 325.0000 Du        
   8404 ****       118.7500 245.5000 321.7500 Du        
   8405 ****       118.7500 245.5000 322.0000 Du        
   8406 ****       118.7500 245.5000 322.2500 Du        
   8407 ****       118.7500 245.5000 322.5000 Du        
   8408 ****       118.7500 245.5000 322.7500 Du        
   8409 ****       118.7500 245.5000 323.0000 Du        
   8410 ****       118.7500 245.5000 323.2500 Du        
   8411 ****       118.7500 245.5000 323.5000 Du        
   8412 ****       118.7500 245.5000 323.7500 Du        
   8413 ****       118.7500 245.5000 324.0000 Du        
   8414 ****       118.7500 245.5000 324.2500 Du        
   8415 ****       118.7500 245.5000 324.5000 Du        
   8416 ****       118.7500 245.5000 324.7500 Du        
   8417 ****       118.7500 245.7500 321.5000 Du        
   8418 ****       118.7500 245.7500 321.7500 Du        
   8419 ****       118.7500 245.7500 322.0000 Du        
   8420 ****       118.7500 245.7500 322.2500 Du        
   8421 ****       118.7500 245.7500 322.5000 Du        
   8422 ****       118.7500 245.7500 322.7500 Du        
   8423 ****       118.7500 245.7500 323.0000 Du        
   8424 ****       118.7500 245.7500 323.2500 Du        
   8425 ****       118.7500 245.7500 323.5000 Du        
   8426 ****       118.7500 245.7500 323.7500 Du        
   8427 ****       118.7500 245.7500 324.0000 Du        
   8428 ****       118.7500 245.7500 324.2500 Du        
   8429 ****       118.7500 245.7500 324.5000 Du        
   8430 ****       118.7500 245.7500 324.7500 Du        
   8431 ****       118.7500 246.0000 321.2500 Du        
   8432 ****       118.7500 246.0000 321.5000 Du        
   8433 ****       118.7500 246.0000 321.7500 Du        
   8434 ****       118.7500 246.0000 322.0000 Du        
   8435 ****       118.7500 246.0000 322.2500 Du        
   8436 ****       118.7500 246.0000 322.5000 Du        
   8437 ****       118.7500 246.0000 322.7500 Du        
   8438 ****       118.7500 246.0000 323.0000 Du        
   8439 ****       118.7500 246.0000 323.2500 Du        
   8440 ****       118.7500 246.0000 323.5000 Du        
   8441 ****       118.7500 246.0000 323.7500 Du        
   8442 ****       118.7500 246.0000 324.0000 Du        
   8443 ****       118.7500 246.0000 324.2500 Du        
   8444 ****       118.7500 246.0000 324.5000 Du        
   8445 ****       118.7500 246.2500 321.0000 Du        
   8446 ****       118.7500 246.2500 321.2500 Du        
   8447 ****       118.7500 246.2500 321.5000 Du        
   8448 ****       118.7500 246.2500 321.7500 Du        
   8449 ****       118.7500 246.2500 322.0000 Du        
   8450 ****       118.7500 246.2500 322.2500 Du        
   8451 ****       118.7500 246.2500 322.5000 Du        
   8452 ****       118.7500 246.2500 322.7500 Du        
   8453 ****       118.7500 246.2500 323.0000 Du        
   8454 ****       118.7500 246.2500 323.2500 Du        
   8455 ****       118.7500 246.2500 323.5000 Du        
   8456 ****       118.7500 246.2500 323.7500 Du        
   8457 ****       118.7500 246.2500 324.0000 Du        
   8458 ****       118.7500 246.2500 324.2500 Du        
   8459 ****       118.7500 246.2500 324.5000 Du        
   8460 ****       118.7500 246.5000 321.0000 Du        
   8461 ****       118.7500 246.5000 321.2500 Du        
   8462 ****       118.7500 246.5000 321.5000 Du        
   8463 ****       118.7500 246.5000 321.7500 Du        
   8464 ****       118.7500 246.5000 322.0000 Du        
   8465 ****       118.7500 246.5000 322.2500 Du        
   8466 ****       118.7500 246.5000 322.5000 Du        
   8467 ****       118.7500 246.5000 322.7500 Du        
   8468 ****       118.7500 246.5000 323.0000 Du        
   8469 ****       118.7500 246.5000 323.2500 Du        
   8470 ****       118.7500 246.5000 323.5000 Du        
   8471 ****       118.7500 246.5000 323.7500 Du        
   8472 ****       118.7500 246.5000 324.0000 Du        
   8473 ****       118.7500 246.5000 324.2500 Du        
   8474 ****       118.7500 246.7500 321.0000 Du        
   8475 ****       118.7500 246.7500 321.2500 Du        
   8476 ****       118.7500 246.7500 321.5000 Du        
   8477 ****       118.7500 246.7500 321.7500 Du        
   8478 ****       118.7500 246.7500 322.0000 Du        
   8479 ****       118.7500 246.7500 322.2500 Du        
   8480 ****       118.7500 246.7500 322.5000 Du        
   8481 ****       118.7500 246.7500 322.7500 Du        
   8482 ****       118.7500 246.7500 323.0000 Du        
   8483 ****       118.7500 246.7500 323.2500 Du        
   8484 ****       118.7500 246.7500 323.5000 Du        
   8485 ****       118.7500 246.7500 323.7500 Du        
   8486 ****       118.7500 246.7500 324.0000 Du        
   8487 ****       118.7500 246.7500 324.2500 Du        
   8488 ****       118.7500 247.0000 320.7500 Du        
   8489 ****       118.7500 247.0000 321.0000 Du        
   8490 ****       118.7500 247.0000 321.2500 Du        
   8491 ****       118.7500 247.0000 321.5000 Du        
   8492 ****       118.7500 247.0000 321.7500 Du        
   8493 ****       118.7500 247.0000 322.0000 Du        
   8494 ****       118.7500 247.0000 322.2500 Du        
   8495 ****       118.7500 247.0000 322.5000 Du        
   8496 ****       118.7500 247.0000 322.7500 Du        
   8497 ****       118.7500 247.0000 323.0000 Du        
   8498 ****       118.7500 247.0000 323.2500 Du        
   8499 ****       118.7500 247.0000 323.5000 Du        
   8500 ****       118.7500 247.0000 323.7500 Du        
   8501 ****       118.7500 247.0000 324.0000 Du        
   8502 ****       118.7500 247.2500 320.7500 Du        
   8503 ****       118.7500 247.2500 321.0000 Du        
   8504 ****       118.7500 247.2500 321.2500 Du        
   8505 ****       118.7500 247.2500 321.5000 Du        
   8506 ****       118.7500 247.2500 321.7500 Du        
   8507 ****       118.7500 247.2500 322.0000 Du        
   8508 ****       118.7500 247.2500 322.2500 Du        
   8509 ****       118.7500 247.2500 322.5000 Du        
   8510 ****       118.7500 247.2500 322.7500 Du        
   8511 ****       118.7500 247.2500 323.0000 Du        
   8512 ****       118.7500 247.2500 323.2500 Du        
   8513 ****       118.7500 247.2500 323.5000 Du        
   8514 ****       118.7500 247.2500 323.7500 Du        
   8515 ****       118.7500 247.2500 324.0000 Du        
   8516 ****       118.7500 247.5000 321.0000 Du        
   8517 ****       118.7500 247.5000 321.2500 Du        
   8518 ****       118.7500 247.5000 321.5000 Du        
   8519 ****       118.7500 247.5000 321.7500 Du        
   8520 ****       118.7500 247.5000 322.0000 Du        
   8521 ****       118.7500 247.5000 322.2500 Du        
   8522 ****       118.7500 247.5000 322.5000 Du        
   8523 ****       118.7500 247.5000 322.7500 Du        
   8524 ****       118.7500 247.5000 323.0000 Du        
   8525 ****       118.7500 247.5000 323.2500 Du        
   8526 ****       118.7500 247.5000 323.5000 Du        
   8527 ****       118.7500 247.5000 323.7500 Du        
   8528 ****       118.7500 247.7500 321.7500 Du        
   8529 ****       118.7500 247.7500 322.0000 Du        
   8530 ****       118.7500 247.7500 322.2500 Du        
   8531 ****       119.0000 243.7500 324.0000 Du        
   8532 ****       119.0000 243.7500 324.2500 Du        
   8533 ****       119.0000 244.0000 323.7500 Du        
   8534 ****       119.0000 244.0000 324.0000 Du        
   8535 ****       119.0000 244.0000 324.2500 Du        
   8536 ****       119.0000 244.0000 324.5000 Du        
   8537 ****       119.0000 244.2500 323.5000 Du        
   8538 ****       119.0000 244.2500 323.7500 Du        
   8539 ****       119.0000 244.2500 324.0000 Du        
   8540 ****       119.0000 244.2500 324.2500 Du        
   8541 ****       119.0000 244.2500 324.5000 Du        
   8542 ****       119.0000 244.5000 323.2500 Du        
   8543 ****       119.0000 244.5000 323.5000 Du        
   8544 ****       119.0000 244.5000 323.7500 Du        
   8545 ****       119.0000 244.5000 324.0000 Du        
   8546 ****       119.0000 244.5000 324.2500 Du        
   8547 ****       119.0000 244.5000 324.5000 Du        
   8548 ****       119.0000 244.5000 324.7500 Du        
   8549 ****       119.0000 244.7500 323.0000 Du        
   8550 ****       119.0000 244.7500 323.2500 Du        
   8551 ****       119.0000 244.7500 323.5000 Du        
   8552 ****       119.0000 244.7500 323.7500 Du        
   8553 ****       119.0000 244.7500 324.0000 Du        
   8554 ****       119.0000 244.7500 324.2500 Du        
   8555 ****       119.0000 244.7500 324.5000 Du        
   8556 ****       119.0000 244.7500 324.7500 Du        
   8557 ****       119.0000 245.0000 322.7500 Du        
   8558 ****       119.0000 245.0000 323.0000 Du        
   8559 ****       119.0000 245.0000 323.2500 Du        
   8560 ****       119.0000 245.0000 323.5000 Du        
   8561 ****       119.0000 245.0000 323.7500 Du        
   8562 ****       119.0000 245.0000 324.0000 Du        
   8563 ****       119.0000 245.0000 324.2500 Du        
   8564 ****       119.0000 245.0000 324.5000 Du        
   8565 ****       119.0000 245.0000 324.7500 Du        
   8566 ****       119.0000 245.0000 325.0000 Du        
   8567 ****       119.0000 245.2500 322.0000 Du        
   8568 ****       119.0000 245.2500 322.2500 Du        
   8569 ****       119.0000 245.2500 322.5000 Du        
   8570 ****       119.0000 245.2500 322.7500 Du        
   8571 ****       119.0000 245.2500 323.0000 Du        
   8572 ****       119.0000 245.2500 323.2500 Du        
   8573 ****       119.0000 245.2500 323.5000 Du        
   8574 ****       119.0000 245.2500 323.7500 Du        
   8575 ****       119.0000 245.2500 324.0000 Du        
   8576 ****       119.0000 245.2500 324.2500 Du        
   8577 ****       119.0000 245.2500 324.5000 Du        
   8578 ****       119.0000 245.2500 324.7500 Du        
   8579 ****       119.0000 245.5000 321.7500 Du        
   8580 ****       119.0000 245.5000 322.0000 Du        
   8581 ****       119.0000 245.5000 322.2500 Du        
   8582 ****       119.0000 245.5000 322.5000 Du        
   8583 ****       119.0000 245.5000 322.7500 Du        
   8584 ****       119.0000 245.5000 323.0000 Du        
   8585 ****       119.0000 245.5000 323.2500 Du        
   8586 ****       119.0000 245.5000 323.5000 Du        
   8587 ****       119.0000 245.5000 323.7500 Du        
   8588 ****       119.0000 245.5000 324.0000 Du        
   8589 ****       119.0000 245.5000 324.2500 Du        
   8590 ****       119.0000 245.5000 324.5000 Du        
   8591 ****       119.0000 245.5000 324.7500 Du        
   8592 ****       119.0000 245.7500 321.5000 Du        
   8593 ****       119.0000 245.7500 321.7500 Du        
   8594 ****       119.0000 245.7500 322.0000 Du        
   8595 ****       119.0000 245.7500 322.2500 Du        
   8596 ****       119.0000 245.7500 322.5000 Du        
   8597 ****       119.0000 245.7500 322.7500 Du        
   8598 ****       119.0000 245.7500 323.0000 Du        
   8599 ****       119.0000 245.7500 323.2500 Du        
   8600 ****       119.0000 245.7500 323.5000 Du        
   8601 ****       119.0000 245.7500 323.7500 Du        
   8602 ****       119.0000 245.7500 324.0000 Du        
   8603 ****       119.0000 245.7500 324.2500 Du        
   8604 ****       119.0000 245.7500 324.5000 Du        
   8605 ****       119.0000 246.0000 321.2500 Du        
   8606 ****       119.0000 246.0000 321.5000 Du        
   8607 ****       119.0000 246.0000 321.7500 Du        
   8608 ****       119.0000 246.0000 322.0000 Du        
   8609 ****       119.0000 246.0000 322.2500 Du        
   8610 ****       119.0000 246.0000 322.5000 Du        
   8611 ****       119.0000 246.0000 322.7500 Du        
   8612 ****       119.0000 246.0000 323.0000 Du        
   8613 ****       119.0000 246.0000 323.2500 Du        
   8614 ****       119.0000 246.0000 323.5000 Du        
   8615 ****       119.0000 246.0000 323.7500 Du        
   8616 ****       119.0000 246.0000 324.0000 Du        
   8617 ****       119.0000 246.0000 324.2500 Du        
   8618 ****       119.0000 246.2500 321.2500 Du        
   8619 ****       119.0000 246.2500 321.5000 Du        
   8620 ****       119.0000 246.2500 321.7500 Du        
   8621 ****       119.0000 246.2500 322.0000 Du        
   8622 ****       119.0000 246.2500 322.2500 Du        
   8623 ****       119.0000 246.2500 322.5000 Du        
   8624 ****       119.0000 246.2500 322.7500 Du        
   8625 ****       119.0000 246.2500 323.0000 Du        
   8626 ****       119.0000 246.2500 323.2500 Du        
   8627 ****       119.0000 246.2500 323.5000 Du        
   8628 ****       119.0000 246.2500 323.7500 Du        
   8629 ****       119.0000 246.2500 324.0000 Du        
   8630 ****       119.0000 246.2500 324.2500 Du        
   8631 ****       119.0000 246.5000 321.0000 Du        
   8632 ****       119.0000 246.5000 321.2500 Du        
   8633 ****       119.0000 246.5000 321.5000 Du        
   8634 ****       119.0000 246.5000 321.7500 Du        
   8635 ****       119.0000 246.5000 322.0000 Du        
   8636 ****       119.0000 246.5000 322.2500 Du        
   8637 ****       119.0000 246.5000 322.5000 Du        
   8638 ****       119.0000 246.5000 322.7500 Du        
   8639 ****       119.0000 246.5000 323.0000 Du        
   8640 ****       119.0000 246.5000 323.2500 Du        
   8641 ****       119.0000 246.5000 323.5000 Du        
   8642 ****       119.0000 246.5000 323.7500 Du        
   8643 ****       119.0000 246.5000 324.0000 Du        
   8644 ****       119.0000 246.7500 321.0000 Du        
   8645 ****       119.0000 246.7500 321.2500 Du        
   8646 ****       119.0000 246.7500 321.5000 Du        
   8647 ****       119.0000 246.7500 321.7500 Du        
   8648 ****       119.0000 246.7500 322.0000 Du        
   8649 ****       119.0000 246.7500 322.2500 Du        
   8650 ****       119.0000 246.7500 322.5000 Du        
   8651 ****       119.0000 246.7500 322.7500 Du        
   8652 ****       119.0000 246.7500 323.0000 Du        
   8653 ****       119.0000 246.7500 323.2500 Du        
   8654 ****       119.0000 246.7500 323.5000 Du        
   8655 ****       119.0000 246.7500 323.7500 Du        
   8656 ****       119.0000 246.7500 324.0000 Du        
   8657 ****       119.0000 247.0000 320.7500 Du        
   8658 ****       119.0000 247.0000 321.0000 Du        
   8659 ****       119.0000 247.0000 321.2500 Du        
   8660 ****       119.0000 247.0000 321.5000 Du        
   8661 ****       119.0000 247.0000 321.7500 Du        
   8662 ****       119.0000 247.0000 322.0000 Du        
   8663 ****       119.0000 247.0000 322.2500 Du        
   8664 ****       119.0000 247.0000 322.5000 Du        
   8665 ****       119.0000 247.0000 322.7500 Du        
   8666 ****       119.0000 247.0000 323.0000 Du        
   8667 ****       119.0000 247.0000 323.2500 Du        
   8668 ****       119.0000 247.0000 323.5000 Du        
   8669 ****       119.0000 247.0000 323.7500 Du        
   8670 ****       119.0000 247.2500 320.7500 Du        
   8671 ****       119.0000 247.2500 321.0000 Du        
   8672 ****       119.0000 247.2500 321.2500 Du        
   8673 ****       119.0000 247.2500 321.5000 Du        
   8674 ****       119.0000 247.2500 321.7500 Du        
   8675 ****       119.0000 247.2500 322.0000 Du        
   8676 ****       119.0000 247.2500 322.2500 Du        
   8677 ****       119.0000 247.2500 322.5000 Du        
   8678 ****       119.0000 247.2500 322.7500 Du        
   8679 ****       119.0000 247.2500 323.0000 Du        
   8680 ****       119.0000 247.2500 323.2500 Du        
   8681 ****       119.0000 247.2500 323.5000 Du        
   8682 ****       119.0000 247.2500 323.7500 Du        
   8683 ****       119.0000 247.5000 321.0000 Du        
   8684 ****       119.0000 247.5000 321.2500 Du        
   8685 ****       119.0000 247.5000 321.5000 Du        
   8686 ****       119.0000 247.5000 321.7500 Du        
   8687 ****       119.0000 247.5000 322.0000 Du        
   8688 ****       119.0000 247.5000 322.2500 Du        
   8689 ****       119.0000 247.5000 322.5000 Du        
   8690 ****       119.0000 247.5000 322.7500 Du        
   8691 ****       119.2500 243.5000 324.0000 Du        
   8692 ****       119.2500 243.5000 324.2500 Du        
   8693 ****       119.2500 243.7500 323.7500 Du        
   8694 ****       119.2500 243.7500 324.0000 Du        
   8695 ****       119.2500 243.7500 324.2500 Du        
   8696 ****       119.2500 243.7500 324.5000 Du        
   8697 ****       119.2500 244.0000 323.5000 Du        
   8698 ****       119.2500 244.0000 323.7500 Du        
   8699 ****       119.2500 244.0000 324.0000 Du        
   8700 ****       119.2500 244.0000 324.2500 Du        
   8701 ****       119.2500 244.0000 324.5000 Du        
   8702 ****       119.2500 244.2500 323.5000 Du        
   8703 ****       119.2500 244.2500 323.7500 Du        
   8704 ****       119.2500 244.2500 324.0000 Du        
   8705 ****       119.2500 244.2500 324.2500 Du        
   8706 ****       119.2500 244.2500 324.5000 Du        
   8707 ****       119.2500 244.2500 324.7500 Du        
   8708 ****       119.2500 244.5000 323.2500 Du        
   8709 ****       119.2500 244.5000 323.5000 Du        
   8710 ****       119.2500 244.5000 323.7500 Du        
   8711 ****       119.2500 244.5000 324.0000 Du        
   8712 ****       119.2500 244.5000 324.2500 Du        
   8713 ****       119.2500 244.5000 324.5000 Du        
   8714 ****       119.2500 244.5000 324.7500 Du        
   8715 ****       119.2500 244.7500 322.7500 Du        
   8716 ****       119.2500 244.7500 323.0000 Du        
   8717 ****       119.2500 244.7500 323.2500 Du        
   8718 ****       119.2500 244.7500 323.5000 Du        
   8719 ****       119.2500 244.7500 323.7500 Du        
   8720 ****       119.2500 244.7500 324.0000 Du        
   8721 ****       119.2500 244.7500 324.2500 Du        
   8722 ****       119.2500 244.7500 324.5000 Du        
   8723 ****       119.2500 244.7500 324.7500 Du        
   8724 ****       119.2500 245.0000 322.5000 Du        
   8725 ****       119.2500 245.0000 322.7500 Du        
   8726 ****       119.2500 245.0000 323.0000 Du        
   8727 ****       119.2500 245.0000 323.2500 Du        
   8728 ****       119.2500 245.0000 323.5000 Du        
   8729 ****       119.2500 245.0000 323.7500 Du        
   8730 ****       119.2500 245.0000 324.0000 Du        
   8731 ****       119.2500 245.0000 324.2500 Du        
   8732 ****       119.2500 245.0000 324.5000 Du        
   8733 ****       119.2500 245.0000 324.7500 Du        
   8734 ****       119.2500 245.2500 322.0000 Du        
   8735 ****       119.2500 245.2500 322.2500 Du        
   8736 ****       119.2500 245.2500 322.5000 Du        
   8737 ****       119.2500 245.2500 322.7500 Du        
   8738 ****       119.2500 245.2500 323.0000 Du        
   8739 ****       119.2500 245.2500 323.2500 Du        
   8740 ****       119.2500 245.2500 323.5000 Du        
   8741 ****       119.2500 245.2500 323.7500 Du        
   8742 ****       119.2500 245.2500 324.0000 Du        
   8743 ****       119.2500 245.2500 324.2500 Du        
   8744 ****       119.2500 245.2500 324.5000 Du        
   8745 ****       119.2500 245.2500 324.7500 Du        
   8746 ****       119.2500 245.5000 321.7500 Du        
   8747 ****       119.2500 245.5000 322.0000 Du        
   8748 ****       119.2500 245.5000 322.2500 Du        
   8749 ****       119.2500 245.5000 322.5000 Du        
   8750 ****       119.2500 245.5000 322.7500 Du        
   8751 ****       119.2500 245.5000 323.0000 Du        
   8752 ****       119.2500 245.5000 323.2500 Du        
   8753 ****       119.2500 245.5000 323.5000 Du        
   8754 ****       119.2500 245.5000 323.7500 Du        
   8755 ****       119.2500 245.5000 324.0000 Du        
   8756 ****       119.2500 245.5000 324.2500 Du        
   8757 ****       119.2500 245.7500 321.5000 Du        
   8758 ****       119.2500 245.7500 321.7500 Du        
   8759 ****       119.2500 245.7500 322.0000 Du        
   8760 ****       119.2500 245.7500 322.2500 Du        
   8761 ****       119.2500 245.7500 322.5000 Du        
   8762 ****       119.2500 245.7500 322.7500 Du        
   8763 ****       119.2500 245.7500 323.0000 Du        
   8764 ****       119.2500 245.7500 323.2500 Du        
   8765 ****       119.2500 245.7500 323.5000 Du        
   8766 ****       119.2500 245.7500 323.7500 Du        
   8767 ****       119.2500 245.7500 324.0000 Du        
   8768 ****       119.2500 245.7500 324.2500 Du        
   8769 ****       119.2500 246.0000 321.5000 Du        
   8770 ****       119.2500 246.0000 321.7500 Du        
   8771 ****       119.2500 246.0000 322.0000 Du        
   8772 ****       119.2500 246.0000 322.2500 Du        
   8773 ****       119.2500 246.0000 322.5000 Du        
   8774 ****       119.2500 246.0000 322.7500 Du        
   8775 ****       119.2500 246.0000 323.0000 Du        
   8776 ****       119.2500 246.0000 323.2500 Du        
   8777 ****       119.2500 246.0000 323.5000 Du        
   8778 ****       119.2500 246.0000 323.7500 Du        
   8779 ****       119.2500 246.0000 324.0000 Du        
   8780 ****       119.2500 246.2500 321.2500 Du        
   8781 ****       119.2500 246.2500 321.5000 Du        
   8782 ****       119.2500 246.2500 321.7500 Du        
   8783 ****       119.2500 246.2500 322.0000 Du        
   8784 ****       119.2500 246.2500 322.2500 Du        
   8785 ****       119.2500 246.2500 322.5000 Du        
   8786 ****       119.2500 246.2500 322.7500 Du        
   8787 ****       119.2500 246.2500 323.0000 Du        
   8788 ****       119.2500 246.2500 323.2500 Du        
   8789 ****       119.2500 246.2500 323.5000 Du        
   8790 ****       119.2500 246.2500 323.7500 Du        
   8791 ****       119.2500 246.2500 324.0000 Du        
   8792 ****       119.2500 246.5000 321.2500 Du        
   8793 ****       119.2500 246.5000 321.5000 Du        
   8794 ****       119.2500 246.5000 321.7500 Du        
   8795 ****       119.2500 246.5000 322.0000 Du        
   8796 ****       119.2500 246.5000 322.2500 Du        
   8797 ****       119.2500 246.5000 322.5000 Du        
   8798 ****       119.2500 246.5000 322.7500 Du        
   8799 ****       119.2500 246.5000 323.0000 Du        
   8800 ****       119.2500 246.5000 323.2500 Du        
   8801 ****       119.2500 246.5000 323.5000 Du        
   8802 ****       119.2500 246.7500 321.0000 Du        
   8803 ****       119.2500 246.7500 321.2500 Du        
   8804 ****       119.2500 246.7500 321.5000 Du        
   8805 ****       119.2500 246.7500 321.7500 Du        
   8806 ****       119.2500 246.7500 322.0000 Du        
   8807 ****       119.2500 246.7500 322.2500 Du        
   8808 ****       119.2500 246.7500 322.5000 Du        
   8809 ****       119.2500 246.7500 322.7500 Du        
   8810 ****       119.2500 246.7500 323.0000 Du        
   8811 ****       119.2500 246.7500 323.2500 Du        
   8812 ****       119.2500 246.7500 323.5000 Du        
   8813 ****       119.2500 247.0000 321.0000 Du        
   8814 ****       119.2500 247.0000 321.2500 Du        
   8815 ****       119.2500 247.0000 321.5000 Du        
   8816 ****       119.2500 247.0000 321.7500 Du        
   8817 ****       119.2500 247.0000 322.0000 Du        
   8818 ****       119.2500 247.0000 322.2500 Du        
   8819 ****       119.2500 247.0000 322.5000 Du        
   8820 ****       119.2500 247.0000 322.7500 Du        
   8821 ****       119.2500 247.0000 323.0000 Du        
   8822 ****       119.2500 247.0000 323.2500 Du        
   8823 ****       119.2500 247.2500 321.0000 Du        
   8824 ****       119.2500 247.2500 321.2500 Du        
   8825 ****       119.2500 247.2500 321.5000 Du        
   8826 ****       119.2500 247.2500 321.7500 Du        
   8827 ****       119.2500 247.2500 322.0000 Du        
   8828 ****       119.2500 247.2500 322.2500 Du        
   8829 ****       119.2500 247.2500 322.5000 Du        
   8830 ****       119.2500 247.5000 321.2500 Du        
   8831 ****       119.2500 247.5000 321.5000 Du        
   8832 ****       119.5000 243.5000 324.0000 Du        
   8833 ****       119.5000 243.5000 324.2500 Du        
   8834 ****       119.5000 243.7500 323.7500 Du        
   8835 ****       119.5000 243.7500 324.0000 Du        
   8836 ****       119.5000 243.7500 324.2500 Du        
   8837 ****       119.5000 243.7500 324.5000 Du        
   8838 ****       119.5000 244.0000 323.5000 Du        
   8839 ****       119.5000 244.0000 323.7500 Du        
   8840 ****       119.5000 244.0000 324.0000 Du        
   8841 ****       119.5000 244.0000 324.2500 Du        
   8842 ****       119.5000 244.0000 324.5000 Du        
   8843 ****       119.5000 244.2500 323.2500 Du        
   8844 ****       119.5000 244.2500 323.5000 Du        
   8845 ****       119.5000 244.2500 323.7500 Du        
   8846 ****       119.5000 244.2500 324.0000 Du        
   8847 ****       119.5000 244.2500 324.2500 Du        
   8848 ****       119.5000 244.2500 324.5000 Du        
   8849 ****       119.5000 244.2500 324.7500 Du        
   8850 ****       119.5000 244.5000 323.0000 Du        
   8851 ****       119.5000 244.5000 323.2500 Du        
   8852 ****       119.5000 244.5000 323.5000 Du        
   8853 ****       119.5000 244.5000 323.7500 Du        
   8854 ****       119.5000 244.5000 324.0000 Du        
   8855 ****       119.5000 244.5000 324.2500 Du        
   8856 ****       119.5000 244.5000 324.5000 Du        
   8857 ****       119.5000 244.5000 324.7500 Du        
   8858 ****       119.5000 244.7500 322.7500 Du        
   8859 ****       119.5000 244.7500 323.0000 Du        
   8860 ****       119.5000 244.7500 323.2500 Du        
   8861 ****       119.5000 244.7500 323.5000 Du        
   8862 ****       119.5000 244.7500 323.7500 Du        
   8863 ****       119.5000 244.7500 324.0000 Du        
   8864 ****       119.5000 244.7500 324.2500 Du        
   8865 ****       119.5000 244.7500 324.5000 Du        
   8866 ****       119.5000 244.7500 324.7500 Du        
   8867 ****       119.5000 245.0000 322.2500 Du        
   8868 ****       119.5000 245.0000 322.5000 Du        
   8869 ****       119.5000 245.0000 322.7500 Du        
   8870 ****       119.5000 245.0000 323.0000 Du        
   8871 ****       119.5000 245.0000 323.2500 Du        
   8872 ****       119.5000 245.0000 323.5000 Du        
   8873 ****       119.5000 245.0000 323.7500 Du        
   8874 ****       119.5000 245.0000 324.0000 Du        
   8875 ****       119.5000 245.0000 324.2500 Du        
   8876 ****       119.5000 245.0000 324.5000 Du        
   8877 ****       119.5000 245.2500 322.0000 Du        
   8878 ****       119.5000 245.2500 322.2500 Du        
   8879 ****       119.5000 245.2500 322.5000 Du        
   8880 ****       119.5000 245.2500 322.7500 Du        
   8881 ****       119.5000 245.2500 323.0000 Du        
   8882 ****       119.5000 245.2500 323.2500 Du        
   8883 ****       119.5000 245.2500 323.5000 Du        
   8884 ****       119.5000 245.2500 323.7500 Du        
   8885 ****       119.5000 245.2500 324.0000 Du        
   8886 ****       119.5000 245.2500 324.2500 Du        
   8887 ****       119.5000 245.5000 321.7500 Du        
   8888 ****       119.5000 245.5000 322.0000 Du        
   8889 ****       119.5000 245.5000 322.2500 Du        
   8890 ****       119.5000 245.5000 322.5000 Du        
   8891 ****       119.5000 245.5000 322.7500 Du        
   8892 ****       119.5000 245.5000 323.0000 Du        
   8893 ****       119.5000 245.5000 323.2500 Du        
   8894 ****       119.5000 245.5000 323.5000 Du        
   8895 ****       119.5000 245.5000 323.7500 Du        
   8896 ****       119.5000 245.5000 324.0000 Du        
   8897 ****       119.5000 245.7500 321.7500 Du        
   8898 ****       119.5000 245.7500 322.0000 Du        
   8899 ****       119.5000 245.7500 322.2500 Du        
   8900 ****       119.5000 245.7500 322.5000 Du        
   8901 ****       119.5000 245.7500 322.7500 Du        
   8902 ****       119.5000 245.7500 323.0000 Du        
   8903 ****       119.5000 245.7500 323.2500 Du        
   8904 ****       119.5000 245.7500 323.5000 Du        
   8905 ****       119.5000 245.7500 323.7500 Du        
   8906 ****       119.5000 246.0000 321.5000 Du        
   8907 ****       119.5000 246.0000 321.7500 Du        
   8908 ****       119.5000 246.0000 322.0000 Du        
   8909 ****       119.5000 246.0000 322.2500 Du        
   8910 ****       119.5000 246.0000 322.5000 Du        
   8911 ****       119.5000 246.0000 322.7500 Du        
   8912 ****       119.5000 246.0000 323.0000 Du        
   8913 ****       119.5000 246.0000 323.2500 Du        
   8914 ****       119.5000 246.0000 323.5000 Du        
   8915 ****       119.5000 246.2500 321.5000 Du        
   8916 ****       119.5000 246.2500 321.7500 Du        
   8917 ****       119.5000 246.2500 322.0000 Du        
   8918 ****       119.5000 246.2500 322.2500 Du        
   8919 ****       119.5000 246.2500 322.5000 Du        
   8920 ****       119.5000 246.2500 322.7500 Du        
   8921 ****       119.5000 246.2500 323.0000 Du        
   8922 ****       119.5000 246.2500 323.2500 Du        
   8923 ****       119.5000 246.5000 321.2500 Du        
   8924 ****       119.5000 246.5000 321.5000 Du        
   8925 ****       119.5000 246.5000 321.7500 Du        
   8926 ****       119.5000 246.5000 322.0000 Du        
   8927 ****       119.5000 246.5000 322.2500 Du        
   8928 ****       119.5000 246.5000 322.5000 Du        
   8929 ****       119.5000 246.5000 322.7500 Du        
   8930 ****       119.5000 246.5000 323.0000 Du        
   8931 ****       119.5000 246.7500 321.2500 Du        
   8932 ****       119.5000 246.7500 321.5000 Du        
   8933 ****       119.5000 246.7500 321.7500 Du        
   8934 ****       119.5000 246.7500 322.0000 Du        
   8935 ****       119.5000 246.7500 322.2500 Du        
   8936 ****       119.5000 246.7500 322.5000 Du        
   8937 ****       119.5000 246.7500 322.7500 Du        
   8938 ****       119.5000 247.0000 321.0000 Du        
   8939 ****       119.5000 247.0000 321.2500 Du        
   8940 ****       119.5000 247.0000 321.5000 Du        
   8941 ****       119.5000 247.0000 321.7500 Du        
   8942 ****       119.5000 247.0000 322.0000 Du        
   8943 ****       119.5000 247.2500 321.0000 Du        
   8944 ****       119.5000 247.2500 321.2500 Du        
   8945 ****       119.7500 243.5000 324.0000 Du        
   8946 ****       119.7500 243.7500 323.7500 Du        
   8947 ****       119.7500 243.7500 324.0000 Du        
   8948 ****       119.7500 243.7500 324.2500 Du        
   8949 ****       119.7500 243.7500 324.5000 Du        
   8950 ****       119.7500 244.0000 323.5000 Du        
   8951 ****       119.7500 244.0000 323.7500 Du        
   8952 ****       119.7500 244.0000 324.0000 Du        
   8953 ****       119.7500 244.0000 324.2500 Du        
   8954 ****       119.7500 244.0000 324.5000 Du        
   8955 ****       119.7500 244.0000 324.7500 Du        
   8956 ****       119.7500 244.2500 323.2500 Du        
   8957 ****       119.7500 244.2500 323.5000 Du        
   8958 ****       119.7500 244.2500 323.7500 Du        
   8959 ****       119.7500 244.2500 324.0000 Du        
   8960 ****       119.7500 244.2500 324.2500 Du        
   8961 ****       119.7500 244.2500 324.5000 Du        
   8962 ****       119.7500 244.2500 324.7500 Du        
   8963 ****       119.7500 244.5000 323.0000 Du        
   8964 ****       119.7500 244.5000 323.2500 Du        
   8965 ****       119.7500 244.5000 323.5000 Du        
   8966 ****       119.7500 244.5000 323.7500 Du        
   8967 ****       119.7500 244.5000 324.0000 Du        
   8968 ****       119.7500 244.5000 324.2500 Du        
   8969 ****       119.7500 244.5000 324.5000 Du        
   8970 ****       119.7500 244.5000 324.7500 Du        
   8971 ****       119.7500 244.7500 322.7500 Du        
   8972 ****       119.7500 244.7500 323.0000 Du        
   8973 ****       119.7500 244.7500 323.2500 Du        
   8974 ****       119.7500 244.7500 323.5000 Du        
   8975 ****       119.7500 244.7500 323.7500 Du        
   8976 ****       119.7500 244.7500 324.0000 Du        
   8977 ****       119.7500 244.7500 324.2500 Du        
   8978 ****       119.7500 244.7500 324.5000 Du        
   8979 ****       119.7500 245.0000 322.2500 Du        
   8980 ****       119.7500 245.0000 322.5000 Du        
   8981 ****       119.7500 245.0000 322.7500 Du        
   8982 ****       119.7500 245.0000 323.0000 Du        
   8983 ****       119.7500 245.0000 323.2500 Du        
   8984 ****       119.7500 245.0000 323.5000 Du        
   8985 ****       119.7500 245.0000 323.7500 Du        
   8986 ****       119.7500 245.0000 324.0000 Du        
   8987 ****       119.7500 245.0000 324.2500 Du        
   8988 ****       119.7500 245.2500 322.0000 Du        
   8989 ****       119.7500 245.2500 322.2500 Du        
   8990 ****       119.7500 245.2500 322.5000 Du        
   8991 ****       119.7500 245.2500 322.7500 Du        
   8992 ****       119.7500 245.2500 323.0000 Du        
   8993 ****       119.7500 245.2500 323.2500 Du        
   8994 ****       119.7500 245.2500 323.5000 Du        
   8995 ****       119.7500 245.2500 323.7500 Du        
   8996 ****       119.7500 245.2500 324.0000 Du        
   8997 ****       119.7500 245.5000 321.7500 Du        
   8998 ****       119.7500 245.5000 322.0000 Du        
   8999 ****       119.7500 245.5000 322.2500 Du        
   9000 ****       119.7500 245.5000 322.5000 Du        
   9001 ****       119.7500 245.5000 322.7500 Du        
   9002 ****       119.7500 245.5000 323.0000 Du        
   9003 ****       119.7500 245.5000 323.2500 Du        
   9004 ****       119.7500 245.5000 323.5000 Du        
   9005 ****       119.7500 245.5000 323.7500 Du        
   9006 ****       119.7500 245.7500 321.7500 Du        
   9007 ****       119.7500 245.7500 322.0000 Du        
   9008 ****       119.7500 245.7500 322.2500 Du        
   9009 ****       119.7500 245.7500 322.5000 Du        
   9010 ****       119.7500 245.7500 322.7500 Du        
   9011 ****       119.7500 245.7500 323.0000 Du        
   9012 ****       119.7500 245.7500 323.2500 Du        
   9013 ****       119.7500 246.0000 321.7500 Du        
   9014 ****       119.7500 246.0000 322.0000 Du        
   9015 ****       119.7500 246.0000 322.2500 Du        
   9016 ****       119.7500 246.0000 322.5000 Du        
   9017 ****       119.7500 246.0000 322.7500 Du        
   9018 ****       119.7500 246.0000 323.0000 Du        
   9019 ****       119.7500 246.2500 321.5000 Du        
   9020 ****       119.7500 246.2500 321.7500 Du        
   9021 ****       119.7500 246.2500 322.0000 Du        
   9022 ****       119.7500 246.2500 322.2500 Du        
   9023 ****       119.7500 246.2500 322.5000 Du        
   9024 ****       119.7500 246.2500 322.7500 Du        
   9025 ****       119.7500 246.5000 321.5000 Du        
   9026 ****       119.7500 246.5000 321.7500 Du        
   9027 ****       119.7500 246.5000 322.0000 Du        
   9028 ****       119.7500 246.5000 322.2500 Du        
   9029 ****       119.7500 246.7500 321.5000 Du        
   9030 ****       119.7500 246.7500 321.7500 Du        
   9031 ****       120.0000 243.7500 323.7500 Du        
   9032 ****       120.0000 243.7500 324.0000 Du        
   9033 ****       120.0000 243.7500 324.2500 Du        
   9034 ****       120.0000 243.7500 324.5000 Du        
   9035 ****       120.0000 244.0000 323.5000 Du        
   9036 ****       120.0000 244.0000 323.7500 Du        
   9037 ****       120.0000 244.0000 324.0000 Du        
   9038 ****       120.0000 244.0000 324.2500 Du        
   9039 ****       120.0000 244.0000 324.5000 Du        
   9040 ****       120.0000 244.0000 324.7500 Du        
   9041 ****       120.0000 244.2500 323.2500 Du        
   9042 ****       120.0000 244.2500 323.5000 Du        
   9043 ****       120.0000 244.2500 323.7500 Du        
   9044 ****       120.0000 244.2500 324.0000 Du        
   9045 ****       120.0000 244.2500 324.2500 Du        
   9046 ****       120.0000 244.2500 324.5000 Du        
   9047 ****       120.0000 244.2500 324.7500 Du        
   9048 ****       120.0000 244.5000 323.0000 Du        
   9049 ****       120.0000 244.5000 323.2500 Du        
   9050 ****       120.0000 244.5000 323.5000 Du        
   9051 ****       120.0000 244.5000 323.7500 Du        
   9052 ****       120.0000 244.5000 324.0000 Du        
   9053 ****       120.0000 244.5000 324.2500 Du        
   9054 ****       120.0000 244.5000 324.5000 Du        
   9055 ****       120.0000 244.7500 322.5000 Du        
   9056 ****       120.0000 244.7500 322.7500 Du        
   9057 ****       120.0000 244.7500 323.0000 Du        
   9058 ****       120.0000 244.7500 323.2500 Du        
   9059 ****       120.0000 244.7500 323.5000 Du        
   9060 ****       120.0000 244.7500 323.7500 Du        
   9061 ****       120.0000 244.7500 324.0000 Du        
   9062 ****       120.0000 244.7500 324.2500 Du        
   9063 ****       120.0000 245.0000 322.2500 Du        
   9064 ****       120.0000 245.0000 322.5000 Du        
   9065 ****       120.0000 245.0000 322.7500 Du        
   9066 ****       120.0000 245.0000 323.0000 Du        
   9067 ****       120.0000 245.0000 323.2500 Du        
   9068 ****       120.0000 245.0000 323.5000 Du        
   9069 ****       120.0000 245.0000 323.7500 Du        
   9070 ****       120.0000 245.2500 322.0000 Du        
   9071 ****       120.0000 245.2500 322.2500 Du        
   9072 ****       120.0000 245.2500 322.5000 Du        
   9073 ****       120.0000 245.2500 322.7500 Du        
   9074 ****       120.0000 245.2500 323.0000 Du        
   9075 ****       120.0000 245.2500 323.2500 Du        
   9076 ****       120.0000 245.2500 323.5000 Du        
   9077 ****       120.0000 245.5000 322.0000 Du        
   9078 ****       120.0000 245.5000 322.2500 Du        
   9079 ****       120.0000 245.5000 322.5000 Du        
   9080 ****       120.0000 245.5000 322.7500 Du        
   9081 ****       120.0000 245.5000 323.0000 Du        
   9082 ****       120.0000 245.5000 323.2500 Du        
   9083 ****       120.0000 245.7500 322.0000 Du        
   9084 ****       120.0000 245.7500 322.2500 Du        
   9085 ****       120.0000 245.7500 322.5000 Du        
   9086 ****       120.0000 245.7500 322.7500 Du        
   9087 ****       120.0000 246.0000 321.7500 Du        
   9088 ****       120.0000 246.0000 322.0000 Du        
   9089 ****       120.0000 246.0000 322.2500 Du        
   9090 ****       120.0000 246.0000 322.5000 Du        
   9091 ****       120.0000 246.2500 322.0000 Du        
   9092 ****       120.2500 244.0000 324.0000 Du        
   9093 ****       120.2500 244.0000 324.2500 Du        
   9094 ****       120.2500 244.2500 323.2500 Du        
   9095 ****       120.2500 244.2500 323.5000 Du        
   9096 ****       120.2500 244.2500 323.7500 Du        
   9097 ****       120.2500 244.2500 324.0000 Du        
   9098 ****       120.2500 244.2500 324.2500 Du        
   9099 ****       120.2500 244.5000 323.0000 Du        
   9100 ****       120.2500 244.5000 323.2500 Du        
   9101 ****       120.2500 244.5000 323.5000 Du        
   9102 ****       120.2500 244.5000 323.7500 Du        
   9103 ****       120.2500 244.5000 324.0000 Du        
   9104 ****       120.2500 244.7500 322.5000 Du        
   9105 ****       120.2500 244.7500 322.7500 Du        
   9106 ****       120.2500 244.7500 323.0000 Du        
   9107 ****       120.2500 244.7500 323.2500 Du        
   9108 ****       120.2500 244.7500 323.5000 Du        
   9109 ****       120.2500 244.7500 323.7500 Du        
   9110 ****       120.2500 245.0000 322.2500 Du        
   9111 ****       120.2500 245.0000 322.5000 Du        
   9112 ****       120.2500 245.0000 322.7500 Du        
   9113 ****       120.2500 245.0000 323.0000 Du        
   9114 ****       120.2500 245.0000 323.2500 Du        
   9115 ****       120.2500 245.2500 322.2500 Du        
   9116 ****       120.2500 245.2500 322.5000 Du        
   9117 ****       120.2500 245.2500 322.7500 Du        
   9118 ****       120.2500 245.2500 323.0000 Du        
   9119 ****       120.2500 245.5000 322.2500 Du        
   9120 ****       120.2500 245.5000 322.5000 Du        
   9121 ****       120.5000 244.7500 322.7500 Du        
   9122 ****       120.5000 244.7500 323.0000 Du        
   9123 ****       120.5000 245.0000 322.7500 Du        
