#       Name:                CT1002167954
#       Creating user name   hitesit
#       Creation time:       Sun Apr 16 22:52:12 2023


#       File generated by GOLD software.
#

@<TRIPOS>MOLECULE
CT1002167954|ligand_prepared|mol2|1|dock10
    29    30     1
SMALL
NO_CHARGES


@<TRIPOS>ATOM
      1 C1         110.7987 246.6068 324.7893 C.3            1 RES1               0.0000
      2 C2         112.3180 246.3569 324.8789 C.ar           1 RES1               0.0000
      3 C3         110.4018 247.3034 326.0876 C.2            1 RES1               0.0000
      4 C4         110.5780 247.4500 323.5383 C.2            1 RES1               0.0000
      5 C5         109.9602 245.3150 324.6488 C.3            1 RES1               0.0000
      6 C6         113.1897 247.3955 325.1922 C.ar           1 RES1               0.0000
      7 C7         112.8615 245.0950 324.6537 C.ar           1 RES1               0.0000
      8 N8         110.1151 248.6353 326.0279 N.am           1 RES1               0.0000
      9 O9         110.3792 246.7019 327.1544 O.2            1 RES1               0.0000
     10 N10        110.1108 248.7280 323.6996 N.am           1 RES1               0.0000
     11 O11        110.8203 247.0248 322.4155 O.2            1 RES1               0.0000
     12 C12        108.4586 245.5536 324.6672 C.3            1 RES1               0.0000
     13 C13        114.5550 247.1798 325.2803 C.ar           1 RES1               0.0000
     14 C14        114.2272 244.8815 324.7421 C.ar           1 RES1               0.0000
     15 C15        109.8985 249.3693 324.8895 C.2            1 RES1               0.0000
     16 C16        115.0746 245.9228 325.0558 C.ar           1 RES1               0.0000
     17 O17        109.5294 250.5384 324.9537 O.2            1 RES1               0.0000
     18 H18        110.2278 244.8211 323.7065 H              1 RES1               0.0000
     19 H19        110.2196 244.6347 325.4694 H              1 RES1               0.0000
     20 H20        112.7994 248.3921 325.3698 H              1 RES1               0.0000
     21 H21        112.2141 244.2612 324.4045 H              1 RES1               0.0000
     22 H22        110.0565 249.1316 326.9115 H              1 RES1               0.0000
     23 H23        109.9017 249.2496 322.8543 H              1 RES1               0.0000
     24 H24        107.9177 244.6151 324.5655 H              1 RES1               0.0000
     25 H25        108.1537 246.0210 325.6012 H              1 RES1               0.0000
     26 H26        108.1618 246.2063 323.8488 H              1 RES1               0.0000
     27 H27        115.2178 248.0030 325.5262 H              1 RES1               0.0000
     28 H28        114.6318 243.8907 324.5639 H              1 RES1               0.0000
     29 H29        116.1441 245.7540 325.1252 H              1 RES1               0.0000
@<TRIPOS>BOND
    1    1    2 1     
    2    1    3 1     
    3    1    4 1     
    4    1    5 1     
    5    2    6 ar    
    6    2    7 ar    
    7    3    8 1     
    8    3    9 2     
    9    4   10 1     
   10    4   11 2     
   11    5   12 1     
   12    5   18 1     
   13    5   19 1     
   14    6   13 ar    
   15    6   20 1     
   16    7   14 ar    
   17    7   21 1     
   18    8   15 1     
   19    8   22 1     
   20   10   15 1     
   21   10   23 1     
   22   12   24 1     
   23   12   25 1     
   24   12   26 1     
   25   13   16 ar    
   26   13   27 1     
   27   14   16 ar    
   28   14   28 1     
   29   15   17 2     
   30   16   29 1     
@<TRIPOS>SUBSTRUCTURE
      1 RES1           1
@<TRIPOS>SET
DONOR_HYDROGENS      STATIC     ATOMS    <user>   **** ""
2 22 23
ATOM$RED        STATIC     ATOMS    COLORGROUP SYSTEM
2 22 23
@<TRIPOS>COMMENT
> <Gold.Version>
2022.3.0

> <Gold.Id.Protein>
unknown|4uh6_clean|pdb

> <Gold.Protein.RotatedTorsions>
[ 8453 8448 8449 8450 ] final  -46.32 input   43.75 | X-H torsion
[ 8477 8470 8471 8472 ] final  -33.88 input  101.27 | X-H torsion
[ 9021 9017 9018 9019 ] final   92.36 input   41.82 | X-H torsion
[ 9055 9041 9042 9043 ] final -139.35 input   38.00 | X-H torsion
[ 9099 9087 9088 9089 ] final   75.61 input   99.63 | X-H torsion
[ 9107 9098 9097 9095 ] final  162.66 input   60.00 | X-H torsion
[ 9133 9125 9126 9127 ] final   67.48 input   87.39 | X-H torsion
[ 9211 9202 9203 9204 ] final   85.16 input  119.00 | X-H torsion
[ 3596 3592 3593 3594 ] final  125.30 input   87.50 | X-H torsion
[ 9003 8997 8998 8999 ] final   40.86 input   29.71 | X-H torsion
[ 9159 9155 9156 9157 ] final  -92.18 input  127.29 | X-H torsion
[ 11075 11068 11069 11070 ] final   89.75 input   56.03 | X-H torsion
[ 4893 4888 4887 4884 ] final  -13.18 input   60.01 | X-H torsion
[ 9007 9002 9001 8998 ] final   47.24 input   59.98 | X-H torsion
[ 8973 8962 8963 8964 ] final   41.47 input   50.05 | X-H torsion
[ 8507 8501 8502 8503 ] final    2.92 input   53.62 | X-H torsion
[ 4912 4907 4908 4909 ] final  136.20 input   25.27 | X-H torsion
[ 8353 8344 8343 8341 ] final  123.18 input   59.99 | X-H torsion
[ 5556 5551 5550 5547 ] final  120.76 input   59.99 | X-H torsion
[ 5580 5571 5572 5573 ] final    2.27 input   51.16 | X-H torsion
[ 9375 9363 9364 9365 ] final   79.32 input  121.73 | X-H torsion
[ 9247 9231 9232 9233 ] final   28.42 input   97.49 | X-H torsion
[ 5552 5546 5547 5548 ] final  122.24 input   98.49 | X-H torsion
[ 5612 5604 5605 5606 ] final  -82.06 input  122.00 | X-H torsion
[ 8533 8525 8526 8527 ] final  -66.63 input   68.51 | X-H torsion
[ 8511 8506 8505 8502 ] final -124.10 input   59.98 | X-H torsion
[ 9185 9178 9176 9173 ] final  -70.94 input   60.02 | X-H torsion
[ 9272 9265 9266 9267 ] final -141.64 input  106.17 | X-H torsion
[ 9298 9282 9283 9284 ] final  -10.42 input   76.97 | X-H torsion
[ 9342 9318 9319 9320 ] final   91.02 input  100.94 | X-H torsion
[ 9412 9391 9392 9393 ] final  179.54 input   95.23 | X-H torsion
[ 12897 12888 12887 12885 ] final  -42.65 input   60.01 | X-H torsion
[ 13469 13450 13449 13445 ] final   64.27 input   59.98 | X-H torsion
[ 3570 3563 3564 3565 ] final  -10.32 input   99.66 | X-H torsion
[ 13485 8425 8424 8423 ] final  -35.24 input    0.00 | X-H torsion
[ 13489 8965 8964 8963 ] final  178.66 input    0.00 | X-H torsion
[ 13492 9020 9019 9018 ] final  139.01 input   -0.00 | X-H torsion
[ 13495 9044 9043 9042 ] final   18.16 input    0.00 | X-H torsion
[ 13498 9090 9089 9088 ] final -159.10 input    0.00 | X-H torsion
[ 13503 9128 9127 9126 ] final   89.85 input    0.00 | X-H torsion
[ 13516 9000 8999 8998 ] final -149.33 input    0.00 | X-H torsion
[ 13518 8370 8369 8368 ] final -164.76 input    0.00 | X-H torsion
[ 13522 11071 11070 11069 ] final  -29.78 input   -0.00 | X-H torsion
[ 13526 8388 8387 8386 ] final -147.82 input    0.00 | X-H torsion
[ 13530 8451 8450 8449 ] final  -59.23 input    0.00 | X-H torsion
[ 13532 8473 8472 8471 ] final  -63.46 input    0.00 | X-H torsion
[ 13539 4910 4909 4908 ] final  -47.92 input   -0.00 | X-H torsion
[ 13543 5549 5548 5547 ] final -178.77 input    0.00 | X-H torsion
[ 13547 9205 9204 9203 ] final -139.53 input   -0.00 | X-H torsion
[ 13556 5645 5644 5643 ] final  151.58 input   -0.00 | X-H torsion
[ 13562 9321 9320 9319 ] final  101.10 input    0.00 | X-H torsion
[ 13567 5574 5573 5572 ] final   94.00 input    0.00 | X-H torsion
[ 13571 5523 5522 5521 ] final  113.73 input    0.00 | X-H torsion
[ 13573 6144 6143 6142 ] final   26.77 input    0.00 | X-H torsion
[ 13577 9175 9174 9173 ] final -159.29 input    0.00 | X-H torsion
[ 13581 9234 9233 9232 ] final  -49.67 input    0.00 | X-H torsion
[ 13585 9285 9284 9283 ] final -174.73 input    0.00 | X-H torsion
[ 13592 9366 9365 9364 ] final  -20.42 input   -0.00 | X-H torsion

> <Gold.Protein.ActiveResidues>
 TRP311  MET341  HIS342  TRP414  ARG419  CYS420  VAL421  GLY422  LEU429  LEU460 
 SER462  ALA463  ILE464  ASN481  SER482  GLN483  LEU484  ILE485  ARG486  ASP500 
 ALA502  ASN503  TRP566  TYR567  GLY568  LEU569  PRO570  ALA571  VAL572  SER573 
 ASN574  MET575  PRO588  PHE589  SER590  GLY591  TRP592  TYR593  MET594  GLY595 
 THR596  GLU597  ILE598  GLY599  VAL600  ARG601  ASP602  TYR603  ASP605  ARG608 
 ILE653  VAL654  TRP683  PRO687  SER691  PHE696  HIS697  TYR711  HEM750  H4B760 

> <Gold.Protein.RotatedAtoms>
  122.4270  249.7615  328.6614 H   0  0  0  0  0  0  0  0  0  0  0  0  # atno 3570 bound_to 3563
  123.3445  248.5054  327.8405 H   0  0  0  0  0  0  0  0  0  0  0  0  # atno 3596 bound_to 3592
  124.9428  246.3221  318.4379 H   0  0  0  0  0  0  0  0  0  0  0  0  # atno 4893 bound_to 4888
  123.0834  247.2005  314.7748 H   0  0  0  0  0  0  0  0  0  0  0  0  # atno 4912 bound_to 4907
  105.6913  244.9581  318.8468 H   0  0  0  0  0  0  0  0  0  0  0  0  # atno 5552 bound_to 5546
  107.4707  244.2609  322.0418 H   0  0  0  0  0  0  0  0  0  0  0  0  # atno 5556 bound_to 5551
  108.1795  244.5598  318.3115 H   0  0  0  0  0  0  0  0  0  0  0  0  # atno 5580 bound_to 5571
  110.3289  244.0588  316.7631 H   0  0  0  0  0  0  0  0  0  0  0  0  # atno 5612 bound_to 5604
  112.2346  239.0023  322.4538 H   0  0  0  0  0  0  0  0  0  0  0  0  # atno 8353 bound_to 8344
  115.5646  243.7389  319.9410 H   0  0  0  0  0  0  0  0  0  0  0  0  # atno 8453 bound_to 8448
  114.4436  246.3597  318.1656 H   0  0  0  0  0  0  0  0  0  0  0  0  # atno 8477 bound_to 8470
  111.0866  248.4532  319.1633 H   0  0  0  0  0  0  0  0  0  0  0  0  # atno 8507 bound_to 8501
  110.1298  246.0174  316.3512 H   0  0  0  0  0  0  0  0  0  0  0  0  # atno 8511 bound_to 8506
  110.1006  250.4029  317.9411 H   0  0  0  0  0  0  0  0  0  0  0  0  # atno 8533 bound_to 8525
  115.2230  249.3830  316.8642 H   0  0  0  0  0  0  0  0  0  0  0  0  # atno 8973 bound_to 8962
  119.4880  248.1784  316.4555 H   0  0  0  0  0  0  0  0  0  0  0  0  # atno 9003 bound_to 8997
  120.5793  245.3878  315.7322 H   0  0  0  0  0  0  0  0  0  0  0  0  # atno 9007 bound_to 9002
  120.0720  245.4977  319.5898 H   0  0  0  0  0  0  0  0  0  0  0  0  # atno 9021 bound_to 9017
  122.4152  243.4287  319.7797 H   0  0  0  0  0  0  0  0  0  0  0  0  # atno 9055 bound_to 9041
  122.3793  239.6767  322.4839 H   0  0  0  0  0  0  0  0  0  0  0  0  # atno 9099 bound_to 9087
  114.8451  239.1905  322.0282 H   0  0  0  0  0  0  0  0  0  0  0  0  # atno 9107 bound_to 9098
  120.8303  241.1041  326.5204 H   0  0  0  0  0  0  0  0  0  0  0  0  # atno 9133 bound_to 9125
  121.8765  238.5856  327.9397 H   0  0  0  0  0  0  0  0  0  0  0  0  # atno 9159 bound_to 9155
  120.9197  239.8589  332.1175 H   0  0  0  0  0  0  0  0  0  0  0  0  # atno 9185 bound_to 9178
  118.8103  238.8016  329.5464 H   0  0  0  0  0  0  0  0  0  0  0  0  # atno 9211 bound_to 9202
  117.1652  237.4201  329.2992 H   0  0  0  0  0  0  0  0  0  0  0  0  # atno 9247 bound_to 9231
  116.5262  234.7231  329.0405 H   0  0  0  0  0  0  0  0  0  0  0  0  # atno 9272 bound_to 9265
  115.3973  235.6681  331.7392 H   0  0  0  0  0  0  0  0  0  0  0  0  # atno 9298 bound_to 9282
  114.5460  237.9656  332.0275 H   0  0  0  0  0  0  0  0  0  0  0  0  # atno 9342 bound_to 9318
  113.0448  237.2107  330.2832 H   0  0  0  0  0  0  0  0  0  0  0  0  # atno 9375 bound_to 9363
  112.1323  234.7325  329.2888 H   0  0  0  0  0  0  0  0  0  0  0  0  # atno 9412 bound_to 9391
  125.3075  239.1850  325.6074 H   0  0  0  0  0  0  0  0  0  0  0  0  # atno 11075 bound_to 11068
  111.0791  251.8276  329.0441 H   0  0  0  0  0  0  0  0  0  0  0  0  # atno 12897 bound_to 12888
  110.2157  246.7577  337.8538 H   0  0  0  0  0  0  0  0  0  0  0  0  # atno 13469 bound_to 13450
  118.5117  244.0975  320.0093 LP  0  0  0  0  0  0  0  0  0  0  0  0  # atno 13485 bound_to 8425
  117.9353  244.6006  318.4554 LP  0  0  0  0  0  0  0  0  0  0  0  0  # atno 13486 bound_to 8425
  115.8476  242.7206  318.5503 LP  0  0  0  0  0  0  0  0  0  0  0  0  # atno 13487 bound_to 8448
  115.2234  246.4877  319.7259 LP  0  0  0  0  0  0  0  0  0  0  0  0  # atno 13488 bound_to 8470
  116.8835  246.7302  318.2133 LP  0  0  0  0  0  0  0  0  0  0  0  0  # atno 13489 bound_to 8965
  115.7795  248.0114  317.8395 LP  0  0  0  0  0  0  0  0  0  0  0  0  # atno 13490 bound_to 8965
  120.5939  245.3559  317.9263 LP  0  0  0  0  0  0  0  0  0  0  0  0  # atno 13491 bound_to 9017
  122.8323  242.0693  318.3742 LP  0  0  0  0  0  0  0  0  0  0  0  0  # atno 13492 bound_to 9020
  121.4191  242.9645  317.9256 LP  0  0  0  0  0  0  0  0  0  0  0  0  # atno 13493 bound_to 9020
  123.0425  243.8713  321.3530 LP  0  0  0  0  0  0  0  0  0  0  0  0  # atno 13494 bound_to 9041
  122.3467  243.5710  322.8515 LP  0  0  0  0  0  0  0  0  0  0  0  0  # atno 13495 bound_to 9044
  122.2680  242.5406  324.2415 LP  0  0  0  0  0  0  0  0  0  0  0  0  # atno 13496 bound_to 9044
  121.8987  241.3577  322.4677 LP  0  0  0  0  0  0  0  0  0  0  0  0  # atno 13497 bound_to 9087
  123.8372  239.3782  326.0488 LP  0  0  0  0  0  0  0  0  0  0  0  0  # atno 13498 bound_to 9090
  123.7426  239.6395  324.3392 LP  0  0  0  0  0  0  0  0  0  0  0  0  # atno 13499 bound_to 9090
  114.6968  240.3811  323.1273 LP  0  0  0  0  0  0  0  0  0  0  0  0  # atno 13500 bound_to 9098
  114.4685  238.8255  323.5685 LP  0  0  0  0  0  0  0  0  0  0  0  0  # atno 13501 bound_to 9098
  122.2766  240.5718  325.6940 LP  0  0  0  0  0  0  0  0  0  0  0  0  # atno 13502 bound_to 9125
  119.7986  238.8334  327.3633 LP  0  0  0  0  0  0  0  0  0  0  0  0  # atno 13503 bound_to 9128
  119.7011  239.5278  328.9470 LP  0  0  0  0  0  0  0  0  0  0  0  0  # atno 13504 bound_to 9128
  118.0378  239.0485  331.0914 LP  0  0  0  0  0  0  0  0  0  0  0  0  # atno 13505 bound_to 9202
  124.6703  249.3005  328.6517 LP  0  0  0  0  0  0  0  0  0  0  0  0  # atno 13514 bound_to 3592
  117.9563  248.1648  317.2858 LP  0  0  0  0  0  0  0  0  0  0  0  0  # atno 13515 bound_to 8997
  122.3373  246.6741  317.3906 LP  0  0  0  0  0  0  0  0  0  0  0  0  # atno 13516 bound_to 9000
  121.1529  247.9231  317.1980 LP  0  0  0  0  0  0  0  0  0  0  0  0  # atno 13517 bound_to 9000
  119.9685  238.9764  319.3916 LP  0  0  0  0  0  0  0  0  0  0  0  0  # atno 13518 bound_to 8370
  120.8884  237.5205  319.5763 LP  0  0  0  0  0  0  0  0  0  0  0  0  # atno 13519 bound_to 8370
  122.8196  238.3953  329.4013 LP  0  0  0  0  0  0  0  0  0  0  0  0  # atno 13520 bound_to 9155
  126.1002  237.6321  325.6023 LP  0  0  0  0  0  0  0  0  0  0  0  0  # atno 13521 bound_to 11068
  124.4942  239.5062  328.0549 LP  0  0  0  0  0  0  0  0  0  0  0  0  # atno 13522 bound_to 11071
  124.4610  238.1995  329.1912 LP  0  0  0  0  0  0  0  0  0  0  0  0  # atno 13523 bound_to 11071
  124.8789  247.6936  319.3121 LP  0  0  0  0  0  0  0  0  0  0  0  0  # atno 13524 bound_to 4888
  126.2776  247.2388  318.6026 LP  0  0  0  0  0  0  0  0  0  0  0  0  # atno 13525 bound_to 4888
  115.6044  241.0652  318.2033 LP  0  0  0  0  0  0  0  0  0  0  0  0  # atno 13526 bound_to 8388
  115.7760  239.4196  317.6911 LP  0  0  0  0  0  0  0  0  0  0  0  0  # atno 13527 bound_to 8388
  119.4726  246.1762  314.8370 LP  0  0  0  0  0  0  0  0  0  0  0  0  # atno 13528 bound_to 9002
  119.5238  244.5441  314.8258 LP  0  0  0  0  0  0  0  0  0  0  0  0  # atno 13529 bound_to 9002
  112.9584  245.1827  317.0408 LP  0  0  0  0  0  0  0  0  0  0  0  0  # atno 13530 bound_to 8451
  112.4067  245.0628  318.6782 LP  0  0  0  0  0  0  0  0  0  0  0  0  # atno 13531 bound_to 8451
  114.0157  249.9167  318.3154 LP  0  0  0  0  0  0  0  0  0  0  0  0  # atno 13532 bound_to 8473
  113.6943  249.0226  316.8672 LP  0  0  0  0  0  0  0  0  0  0  0  0  # atno 13533 bound_to 8473
  115.6153  250.0624  315.3021 LP  0  0  0  0  0  0  0  0  0  0  0  0  # atno 13534 bound_to 8962
  112.2959  247.7194  318.1428 LP  0  0  0  0  0  0  0  0  0  0  0  0  # atno 13535 bound_to 8501
  122.7271  248.5606  315.8100 LP  0  0  0  0  0  0  0  0  0  0  0  0  # atno 13538 bound_to 4907
  119.9973  248.2497  315.0572 LP  0  0  0  0  0  0  0  0  0  0  0  0  # atno 13539 bound_to 4910
  119.8845  249.8650  315.6721 LP  0  0  0  0  0  0  0  0  0  0  0  0  # atno 13540 bound_to 4910
  110.5334  246.4820  319.6395 LP  0  0  0  0  0  0  0  0  0  0  0  0  # atno 13543 bound_to 5549
  109.3166  247.5926  320.1742 LP  0  0  0  0  0  0  0  0  0  0  0  0  # atno 13544 bound_to 5549
  110.8812  238.2272  321.9889 LP  0  0  0  0  0  0  0  0  0  0  0  0  # atno 13545 bound_to 8344
  111.3639  239.5754  321.2040 LP  0  0  0  0  0  0  0  0  0  0  0  0  # atno 13546 bound_to 8344
  114.2176  237.7827  329.5158 LP  0  0  0  0  0  0  0  0  0  0  0  0  # atno 13547 bound_to 9205
  114.2320  239.4426  329.0214 LP  0  0  0  0  0  0  0  0  0  0  0  0  # atno 13548 bound_to 9205
  107.3261  244.0171  320.4393 LP  0  0  0  0  0  0  0  0  0  0  0  0  # atno 13553 bound_to 5551
  106.0038  243.9769  321.3968 LP  0  0  0  0  0  0  0  0  0  0  0  0  # atno 13554 bound_to 5551
  108.8027  245.1066  319.8573 LP  0  0  0  0  0  0  0  0  0  0  0  0  # atno 13555 bound_to 5571
  110.8438  240.0354  319.1766 LP  0  0  0  0  0  0  0  0  0  0  0  0  # atno 13556 bound_to 5645
  112.3649  239.9060  318.3583 LP  0  0  0  0  0  0  0  0  0  0  0  0  # atno 13557 bound_to 5645
  111.6560  238.2026  330.6682 LP  0  0  0  0  0  0  0  0  0  0  0  0  # atno 13560 bound_to 9363
  116.4344  238.3269  327.9921 LP  0  0  0  0  0  0  0  0  0  0  0  0  # atno 13561 bound_to 9231
  109.6298  238.0152  331.3255 LP  0  0  0  0  0  0  0  0  0  0  0  0  # atno 13562 bound_to 9321
  110.2393  236.6745  332.2370 LP  0  0  0  0  0  0  0  0  0  0  0  0  # atno 13563 bound_to 9321
  106.6449  245.8037  317.6532 LP  0  0  0  0  0  0  0  0  0  0  0  0  # atno 13566 bound_to 5546
  108.3973  243.7181  316.2992 LP  0  0  0  0  0  0  0  0  0  0  0  0  # atno 13567 bound_to 5574
  108.9545  242.2020  316.9244 LP  0  0  0  0  0  0  0  0  0  0  0  0  # atno 13568 bound_to 5574
  112.0744  243.9651  316.7987 LP  0  0  0  0  0  0  0  0  0  0  0  0  # atno 13569 bound_to 5604
  109.5610  249.2488  319.1313 LP  0  0  0  0  0  0  0  0  0  0  0  0  # atno 13570 bound_to 8525
  106.6064  248.0832  317.5875 LP  0  0  0  0  0  0  0  0  0  0  0  0  # atno 13571 bound_to 5523
  107.6689  247.2590  316.4958 LP  0  0  0  0  0  0  0  0  0  0  0  0  # atno 13572 bound_to 5523
  102.8362  242.4673  325.3936 LP  0  0  0  0  0  0  0  0  0  0  0  0  # atno 13573 bound_to 6144
  101.6596  242.0700  324.1862 LP  0  0  0  0  0  0  0  0  0  0  0  0  # atno 13574 bound_to 6144
  108.8199  246.9390  316.0607 LP  0  0  0  0  0  0  0  0  0  0  0  0  # atno 13575 bound_to 8506
  109.5846  247.0329  317.5006 LP  0  0  0  0  0  0  0  0  0  0  0  0  # atno 13576 bound_to 8506
  115.9312  238.2903  331.2256 LP  0  0  0  0  0  0  0  0  0  0  0  0  # atno 13577 bound_to 9175
  116.7321  237.9548  332.7243 LP  0  0  0  0  0  0  0  0  0  0  0  0  # atno 13578 bound_to 9175
  120.1164  240.6405  333.2976 LP  0  0  0  0  0  0  0  0  0  0  0  0  # atno 13579 bound_to 9178
  119.3952  240.3664  331.8583 LP  0  0  0  0  0  0  0  0  0  0  0  0  # atno 13580 bound_to 9178
  113.6880  235.6262  329.5974 LP  0  0  0  0  0  0  0  0  0  0  0  0  # atno 13581 bound_to 9234
  114.2670  233.9975  329.7082 LP  0  0  0  0  0  0  0  0  0  0  0  0  # atno 13582 bound_to 9234
  116.8107  235.9869  330.2171 LP  0  0  0  0  0  0  0  0  0  0  0  0  # atno 13583 bound_to 9265
  116.8236  235.4638  332.7246 LP  0  0  0  0  0  0  0  0  0  0  0  0  # atno 13584 bound_to 9282
  111.8231  236.6877  333.7007 LP  0  0  0  0  0  0  0  0  0  0  0  0  # atno 13585 bound_to 9285
  112.7811  235.6476  334.7009 LP  0  0  0  0  0  0  0  0  0  0  0  0  # atno 13586 bound_to 9285
  113.7592  237.1456  333.3552 LP  0  0  0  0  0  0  0  0  0  0  0  0  # atno 13587 bound_to 9318
  111.4488  235.4115  330.7478 LP  0  0  0  0  0  0  0  0  0  0  0  0  # atno 13588 bound_to 9391
  108.9310  235.7495  329.1231 LP  0  0  0  0  0  0  0  0  0  0  0  0  # atno 13592 bound_to 9366
  109.3801  234.0901  329.3339 LP  0  0  0  0  0  0  0  0  0  0  0  0  # atno 13593 bound_to 9366
  111.2942  253.1190  330.0104 LP  0  0  0  0  0  0  0  0  0  0  0  0  # atno 13594 bound_to 12888
  112.2639  252.8936  328.7160 LP  0  0  0  0  0  0  0  0  0  0  0  0  # atno 13595 bound_to 12888
  109.6387  246.3470  336.3882 LP  0  0  0  0  0  0  0  0  0  0  0  0  # atno 13596 bound_to 13450
  108.6275  246.9191  337.5357 LP  0  0  0  0  0  0  0  0  0  0  0  0  # atno 13597 bound_to 13450

> <Gold.Score>
     Fitness  S(hb_ext) S(vdw_ext)  S(hb_int)    S(int)      intcor
     35.36       6.00      21.42       0.00      -0.09      -0.76

> <Gold.Goldscore.Fitness>
35.3594

> <Gold.Goldscore.Internal.Vdw>
-0.4533

> <Gold.Goldscore.Internal.Torsion>
-0.3998

> <Gold.Goldscore.External.Vdw>
21.4211

> <Gold.Goldscore.Internal.HBond>
0.0000

> <Gold.Goldscore.External.HBond>
6.0000

> <Gold.Goldscore.Internal.Correction>
-0.7585

> <Gold.Goldscore.Hbonds>
donor molecule, donor type, donor heavy atom, donor atom, acceptor molecule, acceptor atom, score
      L1  H    10    23       P1  8532  1.00

> <Gold.Goldscore.Internal.Vdw.Weighted>
-0.4533

> <Gold.Goldscore.Internal.Torsion.Weighted>
-0.3998

> <Gold.Goldscore.External.Vdw.Weighted>
29.4540

> <Gold.Goldscore.Internal.HBond.Weighted>
0.0000

> <Gold.Goldscore.External.HBond.Weighted>
6.0000

> <Gold.Goldscore.Internal.Correction.Weighted>
-0.7585

> <Gold.Rescore>
     Score     S(PLP)   S(hbond)     S(cho)   S(metal)  DE(clash)   DE(tors)     intcor
     33.06     -30.40       1.00       0.00       0.00       0.00       0.17       ----

> <Gold.PLP.Fitness>
33.0554

> <Gold.PLP.PLP>
-30.4009

> <Gold.PLP.part.hbond>
-1.7857

> <Gold.PLP.part.metal>
0.0000

> <Gold.PLP.part.buried>
-6.0405

> <Gold.PLP.part.nonpolar>
-23.0121

> <Gold.PLP.part.repulsive>
0.5890

> <Gold.PLP.ligand.clash>
0.0000

> <Gold.PLP.ligand.torsion>
0.1727

> <Gold.PLP.Chemscore.Hbond>
1.0000

> <Gold.PLP.Chemscore.CHOScore>
0.0000

> <Gold.PLP.Chemscore.Metal>
0.0000

> <Gold.Chemscore.Hbonds>
donor molecule, donor type, donor heavy atom, donor atom, acceptor molecule, acceptor atom, score
      L1  H    10    23       P1  8532  1.00

> <Gold.PLP.Chemscore.Internal.Correction>
   9.000000E+99

