#       Name:                CT1002167954
#       Creating user name   hitesit
#       Creation time:       Sun Apr 16 22:52:08 2023


#       File generated by GOLD software.
#

@<TRIPOS>MOLECULE
CT1002167954|ligand_prepared|mol2|1|dock6
    29    30     1
SMALL
NO_CHARGES


@<TRIPOS>ATOM
      1 C1         113.1224 242.7531 326.2787 C.3            1 RES1               0.0000
      2 C2         114.0725 243.5913 325.3994 C.ar           1 RES1               0.0000
      3 C3         111.7131 243.0121 325.7544 C.2            1 RES1               0.0000
      4 C4         113.5807 241.3053 326.1421 C.2            1 RES1               0.0000
      5 C5         113.1651 243.1282 327.7784 C.3            1 RES1               0.0000
      6 C6         114.5371 243.0948 324.1852 C.ar           1 RES1               0.0000
      7 C7         114.4904 244.8616 325.7871 C.ar           1 RES1               0.0000
      8 N8         111.1127 242.0186 325.0385 N.am           1 RES1               0.0000
      9 O9         111.1525 244.0865 325.9324 O.2            1 RES1               0.0000
     10 N10        112.7322 240.4179 325.5335 N.am           1 RES1               0.0000
     11 O11        114.6758 240.9286 326.5411 O.2            1 RES1               0.0000
     12 C12        112.5079 242.1008 328.6864 C.3            1 RES1               0.0000
     13 C13        115.3862 243.8422 323.3860 C.ar           1 RES1               0.0000
     14 C14        115.3398 245.6073 324.9865 C.ar           1 RES1               0.0000
     15 C15        111.5319 240.7156 324.9480 C.2            1 RES1               0.0000
     16 C16        115.7878 245.0990 323.7858 C.ar           1 RES1               0.0000
     17 O17        110.8505 239.8725 324.3716 O.2            1 RES1               0.0000
     18 H18        114.2122 243.2496 328.0823 H              1 RES1               0.0000
     19 H19        112.6622 244.0935 327.9154 H              1 RES1               0.0000
     20 H20        114.2338 242.1067 323.8551 H              1 RES1               0.0000
     21 H21        114.1515 245.2814 326.7281 H              1 RES1               0.0000
     22 H22        110.2747 242.2675 324.5227 H              1 RES1               0.0000
     23 H23        113.0223 239.4454 325.5153 H              1 RES1               0.0000
     24 H24        112.5656 242.4127 329.7271 H              1 RES1               0.0000
     25 H25        111.4585 241.9733 328.4286 H              1 RES1               0.0000
     26 H26        112.9993 241.1344 328.5945 H              1 RES1               0.0000
     27 H27        115.7371 243.4370 322.4426 H              1 RES1               0.0000
     28 H28        115.6537 246.5957 325.3054 H              1 RES1               0.0000
     29 H29        116.4527 245.6844 323.1594 H              1 RES1               0.0000
@<TRIPOS>BOND
    1    1    2 1     
    2    1    3 1     
    3    1    4 1     
    4    1    5 1     
    5    2    6 ar    
    6    2    7 ar    
    7    3    8 1     
    8    3    9 2     
    9    4   10 1     
   10    4   11 2     
   11    5   12 1     
   12    5   18 1     
   13    5   19 1     
   14    6   13 ar    
   15    6   20 1     
   16    7   14 ar    
   17    7   21 1     
   18    8   15 1     
   19    8   22 1     
   20   10   15 1     
   21   10   23 1     
   22   12   24 1     
   23   12   25 1     
   24   12   26 1     
   25   13   16 ar    
   26   13   27 1     
   27   14   16 ar    
   28   14   28 1     
   29   15   17 2     
   30   16   29 1     
@<TRIPOS>SUBSTRUCTURE
      1 RES1           1
@<TRIPOS>SET
DONOR_HYDROGENS      STATIC     ATOMS    <user>   **** ""
2 22 23
ATOM$RED        STATIC     ATOMS    COLORGROUP SYSTEM
2 22 23
@<TRIPOS>COMMENT
> <Gold.Version>
2022.3.0

> <Gold.Id.Protein>
unknown|4uh6_clean|pdb

> <Gold.Protein.RotatedTorsions>
[ 8453 8448 8449 8450 ] final -136.18 input   43.75 | X-H torsion
[ 8477 8470 8471 8472 ] final -127.77 input  101.27 | X-H torsion
[ 9021 9017 9018 9019 ] final  -79.14 input   41.82 | X-H torsion
[ 9055 9041 9042 9043 ] final -144.84 input   38.00 | X-H torsion
[ 9099 9087 9088 9089 ] final   29.26 input   99.63 | X-H torsion
[ 9107 9098 9097 9095 ] final  -74.92 input   60.00 | X-H torsion
[ 9133 9125 9126 9127 ] final  -92.70 input   87.39 | X-H torsion
[ 9211 9202 9203 9204 ] final  123.31 input  119.00 | X-H torsion
[ 3596 3592 3593 3594 ] final   31.09 input   87.50 | X-H torsion
[ 9003 8997 8998 8999 ] final  142.04 input   29.71 | X-H torsion
[ 9159 9155 9156 9157 ] final -165.22 input  127.29 | X-H torsion
[ 11075 11068 11069 11070 ] final  -52.42 input   56.03 | X-H torsion
[ 4893 4888 4887 4884 ] final -144.05 input   60.01 | X-H torsion
[ 9007 9002 9001 8998 ] final  -83.61 input   59.98 | X-H torsion
[ 8973 8962 8963 8964 ] final   11.91 input   50.05 | X-H torsion
[ 8507 8501 8502 8503 ] final  -56.23 input   53.62 | X-H torsion
[ 4912 4907 4908 4909 ] final  154.49 input   25.27 | X-H torsion
[ 8353 8344 8343 8341 ] final -174.54 input   59.99 | X-H torsion
[ 5556 5551 5550 5547 ] final  -10.30 input   59.99 | X-H torsion
[ 5580 5571 5572 5573 ] final  125.69 input   51.16 | X-H torsion
[ 9375 9363 9364 9365 ] final  152.67 input  121.73 | X-H torsion
[ 9247 9231 9232 9233 ] final -157.11 input   97.49 | X-H torsion
[ 5552 5546 5547 5548 ] final   35.22 input   98.49 | X-H torsion
[ 5612 5604 5605 5606 ] final  119.20 input  122.00 | X-H torsion
[ 8533 8525 8526 8527 ] final   -4.65 input   68.51 | X-H torsion
[ 8511 8506 8505 8502 ] final   31.79 input   59.98 | X-H torsion
[ 9185 9178 9176 9173 ] final  -86.31 input   60.02 | X-H torsion
[ 9272 9265 9266 9267 ] final   41.41 input  106.17 | X-H torsion
[ 9298 9282 9283 9284 ] final -122.77 input   76.97 | X-H torsion
[ 9342 9318 9319 9320 ] final    3.81 input  100.94 | X-H torsion
[ 9412 9391 9392 9393 ] final   62.74 input   95.23 | X-H torsion
[ 12897 12888 12887 12885 ] final   16.26 input   60.01 | X-H torsion
[ 13469 13450 13449 13445 ] final   38.58 input   59.98 | X-H torsion
[ 3570 3563 3564 3565 ] final  -28.62 input   99.66 | X-H torsion
[ 13485 8425 8424 8423 ] final   47.50 input    0.00 | X-H torsion
[ 13489 8965 8964 8963 ] final  -87.49 input    0.00 | X-H torsion
[ 13492 9020 9019 9018 ] final   -0.37 input   -0.00 | X-H torsion
[ 13495 9044 9043 9042 ] final   16.53 input    0.00 | X-H torsion
[ 13498 9090 9089 9088 ] final  -23.21 input    0.00 | X-H torsion
[ 13503 9128 9127 9126 ] final  160.02 input    0.00 | X-H torsion
[ 13516 9000 8999 8998 ] final   24.90 input    0.00 | X-H torsion
[ 13518 8370 8369 8368 ] final  120.52 input    0.00 | X-H torsion
[ 13522 11071 11070 11069 ] final  -15.89 input   -0.00 | X-H torsion
[ 13526 8388 8387 8386 ] final  110.36 input    0.00 | X-H torsion
[ 13530 8451 8450 8449 ] final  154.29 input    0.00 | X-H torsion
[ 13532 8473 8472 8471 ] final  -80.55 input    0.00 | X-H torsion
[ 13539 4910 4909 4908 ] final   37.54 input   -0.00 | X-H torsion
[ 13543 5549 5548 5547 ] final  -56.70 input    0.00 | X-H torsion
[ 13547 9205 9204 9203 ] final   78.32 input   -0.00 | X-H torsion
[ 13556 5645 5644 5643 ] final -142.48 input   -0.00 | X-H torsion
[ 13562 9321 9320 9319 ] final  -22.95 input    0.00 | X-H torsion
[ 13567 5574 5573 5572 ] final  -20.08 input    0.00 | X-H torsion
[ 13571 5523 5522 5521 ] final  161.34 input    0.00 | X-H torsion
[ 13573 6144 6143 6142 ] final -129.74 input    0.00 | X-H torsion
[ 13577 9175 9174 9173 ] final   43.26 input    0.00 | X-H torsion
[ 13581 9234 9233 9232 ] final   -1.81 input    0.00 | X-H torsion
[ 13585 9285 9284 9283 ] final -177.57 input    0.00 | X-H torsion
[ 13592 9366 9365 9364 ] final -104.40 input   -0.00 | X-H torsion

> <Gold.Protein.ActiveResidues>
 TRP311  MET341  HIS342  TRP414  ARG419  CYS420  VAL421  GLY422  LEU429  LEU460 
 SER462  ALA463  ILE464  ASN481  SER482  GLN483  LEU484  ILE485  ARG486  ASP500 
 ALA502  ASN503  TRP566  TYR567  GLY568  LEU569  PRO570  ALA571  VAL572  SER573 
 ASN574  MET575  PRO588  PHE589  SER590  GLY591  TRP592  TYR593  MET594  GLY595 
 THR596  GLU597  ILE598  GLY599  VAL600  ARG601  ASP602  TYR603  ASP605  ARG608 
 ILE653  VAL654  TRP683  PRO687  SER691  PHE696  HIS697  TYR711  HEM750  H4B760 

> <Gold.Protein.RotatedAtoms>
  122.4747  250.0192  328.7662 H   0  0  0  0  0  0  0  0  0  0  0  0  # atno 3570 bound_to 3563
  123.8756  249.6806  327.8540 H   0  0  0  0  0  0  0  0  0  0  0  0  # atno 3596 bound_to 3592
  125.0348  247.7799  319.3150 H   0  0  0  0  0  0  0  0  0  0  0  0  # atno 4893 bound_to 4888
  123.3286  247.3345  314.7582 H   0  0  0  0  0  0  0  0  0  0  0  0  # atno 4912 bound_to 4907
  106.7168  244.6921  318.2557 H   0  0  0  0  0  0  0  0  0  0  0  0  # atno 5552 bound_to 5546
  107.1539  243.9901  320.3889 H   0  0  0  0  0  0  0  0  0  0  0  0  # atno 5556 bound_to 5551
  108.5671  244.3087  319.8216 H   0  0  0  0  0  0  0  0  0  0  0  0  # atno 5580 bound_to 5571
  112.0553  244.2621  316.6718 H   0  0  0  0  0  0  0  0  0  0  0  0  # atno 5612 bound_to 5604
  112.0844  239.6503  321.7499 H   0  0  0  0  0  0  0  0  0  0  0  0  # atno 8353 bound_to 8344
  116.5708  243.3980  319.2902 H   0  0  0  0  0  0  0  0  0  0  0  0  # atno 8453 bound_to 8448
  114.4343  245.7075  319.2847 H   0  0  0  0  0  0  0  0  0  0  0  0  # atno 8477 bound_to 8470
  111.8372  248.8635  319.0269 H   0  0  0  0  0  0  0  0  0  0  0  0  # atno 8507 bound_to 8501
  109.1306  247.2741  317.2339 H   0  0  0  0  0  0  0  0  0  0  0  0  # atno 8511 bound_to 8506
  110.3786  250.4545  318.7972 H   0  0  0  0  0  0  0  0  0  0  0  0  # atno 8533 bound_to 8525
  115.2503  249.0271  316.5873 H   0  0  0  0  0  0  0  0  0  0  0  0  # atno 8973 bound_to 8962
  118.1954  247.8425  316.2549 H   0  0  0  0  0  0  0  0  0  0  0  0  # atno 9003 bound_to 8997
  119.3666  246.0650  314.7480 H   0  0  0  0  0  0  0  0  0  0  0  0  # atno 9007 bound_to 9002
  120.5867  245.2235  317.9189 H   0  0  0  0  0  0  0  0  0  0  0  0  # atno 9021 bound_to 9017
  122.4960  243.4249  319.7530 H   0  0  0  0  0  0  0  0  0  0  0  0  # atno 9055 bound_to 9041
  122.8490  240.0992  322.7786 H   0  0  0  0  0  0  0  0  0  0  0  0  # atno 9099 bound_to 9087
  114.4691  238.8593  323.5905 H   0  0  0  0  0  0  0  0  0  0  0  0  # atno 9107 bound_to 9098
  122.1380  240.3037  325.6849 H   0  0  0  0  0  0  0  0  0  0  0  0  # atno 9133 bound_to 9125
  122.8148  238.1056  328.0251 H   0  0  0  0  0  0  0  0  0  0  0  0  # atno 9159 bound_to 9155
  121.0016  239.9159  332.3472 H   0  0  0  0  0  0  0  0  0  0  0  0  # atno 9185 bound_to 9178
  118.9454  239.3243  329.7423 H   0  0  0  0  0  0  0  0  0  0  0  0  # atno 9211 bound_to 9202
  116.4780  238.3003  327.9154 H   0  0  0  0  0  0  0  0  0  0  0  0  # atno 9247 bound_to 9231
  116.8611  235.9854  330.2470 H   0  0  0  0  0  0  0  0  0  0  0  0  # atno 9272 bound_to 9265
  116.1694  234.7591  332.5846 H   0  0  0  0  0  0  0  0  0  0  0  0  # atno 9298 bound_to 9282
  113.9153  236.9257  332.1188 H   0  0  0  0  0  0  0  0  0  0  0  0  # atno 9342 bound_to 9318
  112.7897  238.1419  329.8433 H   0  0  0  0  0  0  0  0  0  0  0  0  # atno 9375 bound_to 9363
  112.3269  235.1508  330.7244 H   0  0  0  0  0  0  0  0  0  0  0  0  # atno 9412 bound_to 9391
  125.6529  237.5998  325.9466 H   0  0  0  0  0  0  0  0  0  0  0  0  # atno 11075 bound_to 11068
  111.7799  252.0964  328.5110 H   0  0  0  0  0  0  0  0  0  0  0  0  # atno 12897 bound_to 12888
  110.3960  246.6074  337.5099 H   0  0  0  0  0  0  0  0  0  0  0  0  # atno 13469 bound_to 13450
  118.6956  243.6756  318.9611 LP  0  0  0  0  0  0  0  0  0  0  0  0  # atno 13485 bound_to 8425
  117.7514  245.0225  319.5036 LP  0  0  0  0  0  0  0  0  0  0  0  0  # atno 13486 bound_to 8425
  114.8613  243.0547  319.1882 LP  0  0  0  0  0  0  0  0  0  0  0  0  # atno 13487 bound_to 8448
  115.2324  247.1224  318.6369 LP  0  0  0  0  0  0  0  0  0  0  0  0  # atno 13488 bound_to 8470
  116.5153  247.8174  318.7453 LP  0  0  0  0  0  0  0  0  0  0  0  0  # atno 13489 bound_to 8965
  116.1477  246.9242  317.3075 LP  0  0  0  0  0  0  0  0  0  0  0  0  # atno 13490 bound_to 8965
  120.0939  245.6223  319.5492 LP  0  0  0  0  0  0  0  0  0  0  0  0  # atno 13491 bound_to 9017
  121.9052  243.1929  317.6555 LP  0  0  0  0  0  0  0  0  0  0  0  0  # atno 13492 bound_to 9020
  122.3462  241.8409  318.6443 LP  0  0  0  0  0  0  0  0  0  0  0  0  # atno 13493 bound_to 9020
  122.9643  243.8749  321.3788 LP  0  0  0  0  0  0  0  0  0  0  0  0  # atno 13494 bound_to 9041
  122.3712  243.5703  322.8528 LP  0  0  0  0  0  0  0  0  0  0  0  0  # atno 13495 bound_to 9044
  122.2435  242.5413  324.2402 LP  0  0  0  0  0  0  0  0  0  0  0  0  # atno 13496 bound_to 9044
  121.4411  240.9461  322.1806 LP  0  0  0  0  0  0  0  0  0  0  0  0  # atno 13497 bound_to 9087
  123.5051  239.0589  324.5110 LP  0  0  0  0  0  0  0  0  0  0  0  0  # atno 13498 bound_to 9090
  124.0746  239.9588  325.8770 LP  0  0  0  0  0  0  0  0  0  0  0  0  # atno 13499 bound_to 9090
  114.8381  239.1510  322.0328 LP  0  0  0  0  0  0  0  0  0  0  0  0  # atno 13500 bound_to 9098
  114.7059  240.3891  323.0894 LP  0  0  0  0  0  0  0  0  0  0  0  0  # atno 13501 bound_to 9098
  121.0040  241.3507  326.5071 LP  0  0  0  0  0  0  0  0  0  0  0  0  # atno 13502 bound_to 9125
  119.7133  238.3171  328.2103 LP  0  0  0  0  0  0  0  0  0  0  0  0  # atno 13503 bound_to 9128
  119.7864  240.0441  328.1000 LP  0  0  0  0  0  0  0  0  0  0  0  0  # atno 13504 bound_to 9128
  117.9047  238.5332  330.8983 LP  0  0  0  0  0  0  0  0  0  0  0  0  # atno 13505 bound_to 9202
  124.1481  248.1450  328.6385 LP  0  0  0  0  0  0  0  0  0  0  0  0  # atno 13514 bound_to 3592
  119.2403  248.4984  317.4850 LP  0  0  0  0  0  0  0  0  0  0  0  0  # atno 13515 bound_to 8997
  121.1369  247.8897  317.1191 LP  0  0  0  0  0  0  0  0  0  0  0  0  # atno 13516 bound_to 9000
  122.3533  246.7075  317.4695 LP  0  0  0  0  0  0  0  0  0  0  0  0  # atno 13517 bound_to 9000
  120.7374  238.6243  318.7676 LP  0  0  0  0  0  0  0  0  0  0  0  0  # atno 13518 bound_to 8370
  120.1194  237.8726  320.2003 LP  0  0  0  0  0  0  0  0  0  0  0  0  # atno 13519 bound_to 8370
  121.9099  238.8607  329.3185 LP  0  0  0  0  0  0  0  0  0  0  0  0  # atno 13520 bound_to 9155
  125.7583  239.2016  325.2664 LP  0  0  0  0  0  0  0  0  0  0  0  0  # atno 13521 bound_to 11068
  124.4578  239.3532  327.9165 LP  0  0  0  0  0  0  0  0  0  0  0  0  # atno 13522 bound_to 11071
  124.4974  238.3525  329.3296 LP  0  0  0  0  0  0  0  0  0  0  0  0  # atno 13523 bound_to 11071
  126.2680  247.0860  318.5107 LP  0  0  0  0  0  0  0  0  0  0  0  0  # atno 13524 bound_to 4888
  124.7959  246.3792  318.5213 LP  0  0  0  0  0  0  0  0  0  0  0  0  # atno 13525 bound_to 4888
  115.5180  239.8102  318.6776 LP  0  0  0  0  0  0  0  0  0  0  0  0  # atno 13526 bound_to 8388
  115.8625  240.6745  317.2168 LP  0  0  0  0  0  0  0  0  0  0  0  0  # atno 13527 bound_to 8388
  119.6508  244.4731  314.9289 LP  0  0  0  0  0  0  0  0  0  0  0  0  # atno 13528 bound_to 9002
  120.5673  245.5649  315.7255 LP  0  0  0  0  0  0  0  0  0  0  0  0  # atno 13529 bound_to 9002
  112.3177  245.5314  318.5302 LP  0  0  0  0  0  0  0  0  0  0  0  0  # atno 13530 bound_to 8451
  113.0474  244.7140  317.1888 LP  0  0  0  0  0  0  0  0  0  0  0  0  # atno 13531 bound_to 8451
  113.8113  250.0496  318.2330 LP  0  0  0  0  0  0  0  0  0  0  0  0  # atno 13532 bound_to 8473
  113.8987  248.8897  316.9496 LP  0  0  0  0  0  0  0  0  0  0  0  0  # atno 13533 bound_to 8473
  115.5887  250.4092  315.5718 LP  0  0  0  0  0  0  0  0  0  0  0  0  # atno 13534 bound_to 8962
  111.5545  247.3141  318.2774 LP  0  0  0  0  0  0  0  0  0  0  0  0  # atno 13535 bound_to 8501
  122.4861  248.4289  315.8263 LP  0  0  0  0  0  0  0  0  0  0  0  0  # atno 13538 bound_to 4907
  120.6413  248.8549  315.8321 LP  0  0  0  0  0  0  0  0  0  0  0  0  # atno 13539 bound_to 4910
  119.2405  249.2598  314.8972 LP  0  0  0  0  0  0  0  0  0  0  0  0  # atno 13540 bound_to 4910
  109.5670  247.6187  319.3741 LP  0  0  0  0  0  0  0  0  0  0  0  0  # atno 13543 bound_to 5549
  110.2831  246.4560  320.4396 LP  0  0  0  0  0  0  0  0  0  0  0  0  # atno 13544 bound_to 5549
  111.6562  238.3140  322.5743 LP  0  0  0  0  0  0  0  0  0  0  0  0  # atno 13545 bound_to 8344
  110.7401  238.8361  321.3274 LP  0  0  0  0  0  0  0  0  0  0  0  0  # atno 13546 bound_to 8344
  114.1498  239.1188  328.5699 LP  0  0  0  0  0  0  0  0  0  0  0  0  # atno 13547 bound_to 9205
  114.2998  238.1065  329.9673 LP  0  0  0  0  0  0  0  0  0  0  0  0  # atno 13548 bound_to 9205
  106.0376  244.0058  321.5730 LP  0  0  0  0  0  0  0  0  0  0  0  0  # atno 13553 bound_to 5551
  107.6112  244.2608  321.9272 LP  0  0  0  0  0  0  0  0  0  0  0  0  # atno 13554 bound_to 5551
  108.4322  245.3466  318.4141 LP  0  0  0  0  0  0  0  0  0  0  0  0  # atno 13555 bound_to 5571
  111.3696  239.2534  319.1921 LP  0  0  0  0  0  0  0  0  0  0  0  0  # atno 13556 bound_to 5645
  111.8391  240.6880  318.3427 LP  0  0  0  0  0  0  0  0  0  0  0  0  # atno 13557 bound_to 5645
  111.9034  237.2996  331.0947 LP  0  0  0  0  0  0  0  0  0  0  0  0  # atno 13560 bound_to 9363
  117.0986  237.4761  329.3297 LP  0  0  0  0  0  0  0  0  0  0  0  0  # atno 13561 bound_to 9231
  110.1599  237.3884  332.6163 LP  0  0  0  0  0  0  0  0  0  0  0  0  # atno 13562 bound_to 9321
  109.7092  237.3013  330.9462 LP  0  0  0  0  0  0  0  0  0  0  0  0  # atno 13563 bound_to 9321
  105.6379  246.0649  318.2337 LP  0  0  0  0  0  0  0  0  0  0  0  0  # atno 13566 bound_to 5546
  108.4634  242.8196  317.4395 LP  0  0  0  0  0  0  0  0  0  0  0  0  # atno 13567 bound_to 5574
  108.8884  243.1006  315.7841 LP  0  0  0  0  0  0  0  0  0  0  0  0  # atno 13568 bound_to 5574
  110.3925  243.7670  316.8876 LP  0  0  0  0  0  0  0  0  0  0  0  0  # atno 13569 bound_to 5604
  109.2855  249.1977  318.2828 LP  0  0  0  0  0  0  0  0  0  0  0  0  # atno 13570 bound_to 8525
  107.1942  247.8511  317.8869 LP  0  0  0  0  0  0  0  0  0  0  0  0  # atno 13571 bound_to 5523
  107.0811  247.4910  316.1964 LP  0  0  0  0  0  0  0  0  0  0  0  0  # atno 13572 bound_to 5523
  101.4613  242.0855  324.4773 LP  0  0  0  0  0  0  0  0  0  0  0  0  # atno 13573 bound_to 6144
  103.0345  242.4519  325.1024 LP  0  0  0  0  0  0  0  0  0  0  0  0  # atno 13574 bound_to 6144
  110.2734  246.1666  316.8921 LP  0  0  0  0  0  0  0  0  0  0  0  0  # atno 13575 bound_to 8506
  109.1367  246.5406  315.7809 LP  0  0  0  0  0  0  0  0  0  0  0  0  # atno 13576 bound_to 8506
  116.6822  238.2888  332.7492 LP  0  0  0  0  0  0  0  0  0  0  0  0  # atno 13577 bound_to 9175
  115.9811  237.9564  331.2007 LP  0  0  0  0  0  0  0  0  0  0  0  0  # atno 13578 bound_to 9175
  119.8833  240.7057  333.2271 LP  0  0  0  0  0  0  0  0  0  0  0  0  # atno 13579 bound_to 9178
  119.5459  240.2439  331.6975 LP  0  0  0  0  0  0  0  0  0  0  0  0  # atno 13580 bound_to 9178
  113.6672  235.2744  328.9897 LP  0  0  0  0  0  0  0  0  0  0  0  0  # atno 13581 bound_to 9234
  114.2878  234.3493  330.3159 LP  0  0  0  0  0  0  0  0  0  0  0  0  # atno 13582 bound_to 9234
  116.4866  234.7654  329.0496 LP  0  0  0  0  0  0  0  0  0  0  0  0  # atno 13583 bound_to 9265
  116.0639  236.3582  331.8928 LP  0  0  0  0  0  0  0  0  0  0  0  0  # atno 13584 bound_to 9282
  111.8257  236.7177  333.7312 LP  0  0  0  0  0  0  0  0  0  0  0  0  # atno 13585 bound_to 9285
  112.7784  235.6176  334.6704 LP  0  0  0  0  0  0  0  0  0  0  0  0  # atno 13586 bound_to 9285
  114.3750  238.1611  333.2661 LP  0  0  0  0  0  0  0  0  0  0  0  0  # atno 13587 bound_to 9318
  111.2590  235.0036  329.3480 LP  0  0  0  0  0  0  0  0  0  0  0  0  # atno 13588 bound_to 9391
  108.9519  235.0648  330.0577 LP  0  0  0  0  0  0  0  0  0  0  0  0  # atno 13592 bound_to 9366
  109.3592  234.7748  328.3994 LP  0  0  0  0  0  0  0  0  0  0  0  0  # atno 13593 bound_to 9366
  110.8286  252.3431  329.8080 LP  0  0  0  0  0  0  0  0  0  0  0  0  # atno 13594 bound_to 12888
  112.0236  253.3988  329.4555 LP  0  0  0  0  0  0  0  0  0  0  0  0  # atno 13595 bound_to 12888
  109.2261  246.4200  336.3938 LP  0  0  0  0  0  0  0  0  0  0  0  0  # atno 13596 bound_to 13450
  108.8587  246.9974  337.8764 LP  0  0  0  0  0  0  0  0  0  0  0  0  # atno 13597 bound_to 13450

> <Gold.Score>
     Fitness  S(hb_ext) S(vdw_ext)  S(hb_int)    S(int)      intcor
     38.03       5.37      24.00       0.00      -0.34      -0.76

> <Gold.Goldscore.Fitness>
38.0343

> <Gold.Goldscore.Internal.Vdw>
-0.4207

> <Gold.Goldscore.Internal.Torsion>
-0.6786

> <Gold.Goldscore.External.Vdw>
24.0035

> <Gold.Goldscore.Internal.HBond>
0.0000

> <Gold.Goldscore.External.HBond>
5.3703

> <Gold.Goldscore.Internal.Correction>
-0.7585

> <Gold.Goldscore.Hbonds>
donor molecule, donor type, donor heavy atom, donor atom, acceptor molecule, acceptor atom, score
      P1  H  5690  5702       L1    17  0.26
      P1  H  5693  5706       L1    17  0.34
      P1  H  9538  9550       L1    17  0.07
      L1  H    10    23       P1  9370  0.23

> <Gold.Goldscore.Internal.Vdw.Weighted>
-0.4207

> <Gold.Goldscore.Internal.Torsion.Weighted>
-0.6786

> <Gold.Goldscore.External.Vdw.Weighted>
33.0049

> <Gold.Goldscore.Internal.HBond.Weighted>
0.0000

> <Gold.Goldscore.External.HBond.Weighted>
5.3703

> <Gold.Goldscore.Internal.Correction.Weighted>
-0.7585

> <Gold.Rescore>
     Score     S(PLP)   S(hbond)     S(cho)   S(metal)  DE(clash)   DE(tors)     intcor
     27.95     -24.12       2.10       0.00       0.00       0.07       1.21       ----

> <Gold.PLP.Fitness>
27.9479

> <Gold.PLP.PLP>
-24.1240

> <Gold.PLP.part.hbond>
-5.3993

> <Gold.PLP.part.metal>
0.0000

> <Gold.PLP.part.buried>
6.4576

> <Gold.PLP.part.nonpolar>
-31.0542

> <Gold.PLP.part.repulsive>
5.7510

> <Gold.PLP.ligand.clash>
0.0726

> <Gold.PLP.ligand.torsion>
1.2060

> <Gold.PLP.Chemscore.Hbond>
2.1028

> <Gold.PLP.Chemscore.CHOScore>
0.0000

> <Gold.PLP.Chemscore.Metal>
0.0000

> <Gold.Chemscore.Hbonds>
donor molecule, donor type, donor heavy atom, donor atom, acceptor molecule, acceptor atom, score
      L1  H    10    23       P1  9370  0.74
      P1  H  5690  5702       L1    17  0.42
      P1  H  5693  5706       L1    17  0.27
      P1  H  9538  9550       L1    17  0.37

> <Gold.PLP.Chemscore.Internal.Correction>
   9.000000E+99

