#       Name:                CT1002167954
#       Creating user name   hitesit
#       Creation time:       Sun Apr 16 22:52:06 2023


#       File generated by GOLD software.
#

@<TRIPOS>MOLECULE
CT1002167954|ligand_prepared|mol2|1|dock4
    29    30     1
SMALL
NO_CHARGES


@<TRIPOS>ATOM
      1 C1         116.8597 245.4945 323.6924 C.3            1 RES1               0.0000
      2 C2         115.4325 245.8761 324.1352 C.ar           1 RES1               0.0000
      3 C3         116.9148 245.7189 322.1841 C.2            1 RES1               0.0000
      4 C4         117.8062 246.3858 324.4890 C.2            1 RES1               0.0000
      5 C5         117.2316 244.0220 323.9838 C.3            1 RES1               0.0000
      6 C6         114.3595 245.0290 323.8748 C.ar           1 RES1               0.0000
      7 C7         115.1741 247.0685 324.8061 C.ar           1 RES1               0.0000
      8 N8         117.6066 246.8036 321.7316 N.am           1 RES1               0.0000
      9 O9         116.3271 244.9778 321.4059 O.2            1 RES1               0.0000
     10 N10        118.5505 247.3082 323.8014 N.am           1 RES1               0.0000
     11 O11        117.9018 246.3089 325.7077 O.2            1 RES1               0.0000
     12 C12        118.7224 243.7366 323.8932 C.3            1 RES1               0.0000
     13 C13        113.0751 245.3604 324.2733 C.ar           1 RES1               0.0000
     14 C14        113.8888 247.3981 325.2035 C.ar           1 RES1               0.0000
     15 C15        118.4710 247.5785 322.4624 C.2            1 RES1               0.0000
     16 C16        112.8389 246.5448 324.9382 C.ar           1 RES1               0.0000
     17 O17        119.1341 248.4613 321.9257 O.2            1 RES1               0.0000
     18 H18        116.8830 243.7624 324.9910 H              1 RES1               0.0000
     19 H19        116.7046 243.3768 323.2700 H              1 RES1               0.0000
     20 H20        114.5256 244.0939 323.3505 H              1 RES1               0.0000
     21 H21        115.9845 247.7556 325.0246 H              1 RES1               0.0000
     22 H22        117.4683 247.0627 320.7599 H              1 RES1               0.0000
     23 H23        119.2267 247.8429 324.3374 H              1 RES1               0.0000
     24 H24        118.9284 242.6898 324.1063 H              1 RES1               0.0000
     25 H25        119.0980 243.9597 322.8967 H              1 RES1               0.0000
     26 H26        119.2753 244.3431 324.6075 H              1 RES1               0.0000
     27 H27        112.2520 244.6861 324.0608 H              1 RES1               0.0000
     28 H28        113.7075 248.3315 325.7260 H              1 RES1               0.0000
     29 H29        111.8327 246.8040 325.2505 H              1 RES1               0.0000
@<TRIPOS>BOND
    1    1    2 1     
    2    1    3 1     
    3    1    4 1     
    4    1    5 1     
    5    2    6 ar    
    6    2    7 ar    
    7    3    8 1     
    8    3    9 2     
    9    4   10 1     
   10    4   11 2     
   11    5   12 1     
   12    5   18 1     
   13    5   19 1     
   14    6   13 ar    
   15    6   20 1     
   16    7   14 ar    
   17    7   21 1     
   18    8   15 1     
   19    8   22 1     
   20   10   15 1     
   21   10   23 1     
   22   12   24 1     
   23   12   25 1     
   24   12   26 1     
   25   13   16 ar    
   26   13   27 1     
   27   14   16 ar    
   28   14   28 1     
   29   15   17 2     
   30   16   29 1     
@<TRIPOS>SUBSTRUCTURE
      1 RES1           1
@<TRIPOS>SET
DONOR_HYDROGENS      STATIC     ATOMS    <user>   **** ""
2 22 23
ATOM$RED        STATIC     ATOMS    COLORGROUP SYSTEM
2 22 23
@<TRIPOS>COMMENT
> <Gold.Version>
2022.3.0

> <Gold.Id.Protein>
unknown|4uh6_clean|pdb

> <Gold.Protein.RotatedTorsions>
[ 8453 8448 8449 8450 ] final -140.57 input   43.75 | X-H torsion
[ 8477 8470 8471 8472 ] final   21.55 input  101.27 | X-H torsion
[ 9021 9017 9018 9019 ] final   37.74 input   41.82 | X-H torsion
[ 9055 9041 9042 9043 ] final   14.47 input   38.00 | X-H torsion
[ 9099 9087 9088 9089 ] final -130.71 input   99.63 | X-H torsion
[ 9107 9098 9097 9095 ] final  179.69 input   60.00 | X-H torsion
[ 9133 9125 9126 9127 ] final  -12.11 input   87.39 | X-H torsion
[ 9211 9202 9203 9204 ] final -121.32 input  119.00 | X-H torsion
[ 3596 3592 3593 3594 ] final -104.92 input   87.50 | X-H torsion
[ 9003 8997 8998 8999 ] final   53.85 input   29.71 | X-H torsion
[ 9159 9155 9156 9157 ] final  -79.35 input  127.29 | X-H torsion
[ 11075 11068 11069 11070 ] final  -52.25 input   56.03 | X-H torsion
[ 4893 4888 4887 4884 ] final  118.91 input   60.01 | X-H torsion
[ 9007 9002 9001 8998 ] final  117.78 input   59.98 | X-H torsion
[ 8973 8962 8963 8964 ] final  -35.64 input   50.05 | X-H torsion
[ 8507 8501 8502 8503 ] final  -30.72 input   53.62 | X-H torsion
[ 4912 4907 4908 4909 ] final    4.14 input   25.27 | X-H torsion
[ 8353 8344 8343 8341 ] final  -84.76 input   59.99 | X-H torsion
[ 5556 5551 5550 5547 ] final -141.03 input   59.99 | X-H torsion
[ 5580 5571 5572 5573 ] final  -21.91 input   51.16 | X-H torsion
[ 9375 9363 9364 9365 ] final  -20.27 input  121.73 | X-H torsion
[ 9247 9231 9232 9233 ] final -147.20 input   97.49 | X-H torsion
[ 5552 5546 5547 5548 ] final  -90.00 input   98.49 | X-H torsion
[ 5612 5604 5605 5606 ] final -174.60 input  122.00 | X-H torsion
[ 8533 8525 8526 8527 ] final -177.47 input   68.51 | X-H torsion
[ 8511 8506 8505 8502 ] final   47.10 input   59.98 | X-H torsion
[ 9185 9178 9176 9173 ] final   24.77 input   60.02 | X-H torsion
[ 9272 9265 9266 9267 ] final  -31.66 input  106.17 | X-H torsion
[ 9298 9282 9283 9284 ] final  -93.17 input   76.97 | X-H torsion
[ 9342 9318 9319 9320 ] final -171.89 input  100.94 | X-H torsion
[ 9412 9391 9392 9393 ] final   98.06 input   95.23 | X-H torsion
[ 12897 12888 12887 12885 ] final  -16.15 input   60.01 | X-H torsion
[ 13469 13450 13449 13445 ] final -110.32 input   59.98 | X-H torsion
[ 3570 3563 3564 3565 ] final  -28.55 input   99.66 | X-H torsion
[ 13485 8425 8424 8423 ] final   55.90 input    0.00 | X-H torsion
[ 13489 8965 8964 8963 ] final -136.61 input    0.00 | X-H torsion
[ 13492 9020 9019 9018 ] final   87.02 input   -0.00 | X-H torsion
[ 13495 9044 9043 9042 ] final  -92.97 input    0.00 | X-H torsion
[ 13498 9090 9089 9088 ] final  171.44 input    0.00 | X-H torsion
[ 13503 9128 9127 9126 ] final  -73.24 input    0.00 | X-H torsion
[ 13516 9000 8999 8998 ] final -133.64 input    0.00 | X-H torsion
[ 13518 8370 8369 8368 ] final   16.81 input    0.00 | X-H torsion
[ 13522 11071 11070 11069 ] final   78.69 input   -0.00 | X-H torsion
[ 13526 8388 8387 8386 ] final  -52.37 input    0.00 | X-H torsion
[ 13530 8451 8450 8449 ] final   -9.29 input    0.00 | X-H torsion
[ 13532 8473 8472 8471 ] final   89.81 input    0.00 | X-H torsion
[ 13539 4910 4909 4908 ] final  -29.75 input   -0.00 | X-H torsion
[ 13543 5549 5548 5547 ] final  -70.47 input    0.00 | X-H torsion
[ 13547 9205 9204 9203 ] final  -69.45 input   -0.00 | X-H torsion
[ 13556 5645 5644 5643 ] final -145.47 input   -0.00 | X-H torsion
[ 13562 9321 9320 9319 ] final  -44.16 input    0.00 | X-H torsion
[ 13567 5574 5573 5572 ] final   47.20 input    0.00 | X-H torsion
[ 13571 5523 5522 5521 ] final -177.40 input    0.00 | X-H torsion
[ 13573 6144 6143 6142 ] final  137.53 input    0.00 | X-H torsion
[ 13577 9175 9174 9173 ] final   52.95 input    0.00 | X-H torsion
[ 13581 9234 9233 9232 ] final  144.27 input    0.00 | X-H torsion
[ 13585 9285 9284 9283 ] final  120.47 input    0.00 | X-H torsion
[ 13592 9366 9365 9364 ] final  -93.20 input   -0.00 | X-H torsion

> <Gold.Protein.ActiveResidues>
 TRP311  MET341  HIS342  TRP414  ARG419  CYS420  VAL421  GLY422  LEU429  LEU460 
 SER462  ALA463  ILE464  ASN481  SER482  GLN483  LEU484  ILE485  ARG486  ASP500 
 ALA502  ASN503  TRP566  TYR567  GLY568  LEU569  PRO570  ALA571  VAL572  SER573 
 ASN574  MET575  PRO588  PHE589  SER590  GLY591  TRP592  TYR593  MET594  GLY595 
 THR596  GLU597  ILE598  GLY599  VAL600  ARG601  ASP602  TYR603  ASP605  ARG608 
 ILE653  VAL654  TRP683  PRO687  SER691  PHE696  HIS697  TYR711  HEM750  H4B760 

> <Gold.Protein.RotatedAtoms>
  122.4746  250.0183  328.7656 H   0  0  0  0  0  0  0  0  0  0  0  0  # atno 3570 bound_to 3563
  124.5804  248.5905  328.8438 H   0  0  0  0  0  0  0  0  0  0  0  0  # atno 3596 bound_to 3592
  126.2435  247.4012  318.7108 H   0  0  0  0  0  0  0  0  0  0  0  0  # atno 4893 bound_to 4888
  122.1833  248.1088  315.7516 H   0  0  0  0  0  0  0  0  0  0  0  0  # atno 4912 bound_to 4907
  106.2733  246.1022  317.7434 H   0  0  0  0  0  0  0  0  0  0  0  0  # atno 5552 bound_to 5546
  106.1076  244.0394  321.7308 H   0  0  0  0  0  0  0  0  0  0  0  0  # atno 5556 bound_to 5551
  108.2754  244.9152  318.2364 H   0  0  0  0  0  0  0  0  0  0  0  0  # atno 5580 bound_to 5571
  111.3028  244.8292  316.4537 H   0  0  0  0  0  0  0  0  0  0  0  0  # atno 5612 bound_to 5604
  110.9726  239.2364  321.1671 H   0  0  0  0  0  0  0  0  0  0  0  0  # atno 8353 bound_to 8344
  116.5794  243.3582  319.2363 H   0  0  0  0  0  0  0  0  0  0  0  0  # atno 8453 bound_to 8448
  114.9652  246.9872  318.2832 H   0  0  0  0  0  0  0  0  0  0  0  0  # atno 8477 bound_to 8470
  111.4812  248.7725  319.1501 H   0  0  0  0  0  0  0  0  0  0  0  0  # atno 8507 bound_to 8501
  108.9720  247.3091  317.0445 H   0  0  0  0  0  0  0  0  0  0  0  0  # atno 8511 bound_to 8506
  109.2994  249.2277  318.1772 H   0  0  0  0  0  0  0  0  0  0  0  0  # atno 8533 bound_to 8525
  115.3828  248.8584  315.9064 H   0  0  0  0  0  0  0  0  0  0  0  0  # atno 8973 bound_to 8962
  119.3827  248.1010  316.3070 H   0  0  0  0  0  0  0  0  0  0  0  0  # atno 9003 bound_to 8997
  120.1269  244.4935  315.3273 H   0  0  0  0  0  0  0  0  0  0  0  0  # atno 9007 bound_to 9002
  120.0470  244.7571  319.2522 H   0  0  0  0  0  0  0  0  0  0  0  0  # atno 9021 bound_to 9017
  122.6547  243.8587  321.4418 H   0  0  0  0  0  0  0  0  0  0  0  0  # atno 9055 bound_to 9041
  121.5792  241.1929  322.2948 H   0  0  0  0  0  0  0  0  0  0  0  0  # atno 9099 bound_to 9087
  114.7992  238.9414  322.1408 H   0  0  0  0  0  0  0  0  0  0  0  0  # atno 9107 bound_to 9098
  121.0868  240.0872  326.0878 H   0  0  0  0  0  0  0  0  0  0  0  0  # atno 9133 bound_to 9125
  121.7485  238.6773  328.0608 H   0  0  0  0  0  0  0  0  0  0  0  0  # atno 9159 bound_to 9155
  119.6565  240.1726  331.6335 H   0  0  0  0  0  0  0  0  0  0  0  0  # atno 9185 bound_to 9178
  118.2364  239.3925  331.0458 H   0  0  0  0  0  0  0  0  0  0  0  0  # atno 9211 bound_to 9202
  116.3605  238.3396  328.0063 H   0  0  0  0  0  0  0  0  0  0  0  0  # atno 9247 bound_to 9231
  115.8954  235.6914  329.9274 H   0  0  0  0  0  0  0  0  0  0  0  0  # atno 9272 bound_to 9265
  115.7884  234.7561  332.3461 H   0  0  0  0  0  0  0  0  0  0  0  0  # atno 9298 bound_to 9282
  114.3435  238.1439  333.3251 H   0  0  0  0  0  0  0  0  0  0  0  0  # atno 9342 bound_to 9318
  111.9584  237.2016  331.0957 H   0  0  0  0  0  0  0  0  0  0  0  0  # atno 9375 bound_to 9363
  112.6102  234.9388  330.3203 H   0  0  0  0  0  0  0  0  0  0  0  0  # atno 9412 bound_to 9391
  125.6508  237.6005  325.9480 H   0  0  0  0  0  0  0  0  0  0  0  0  # atno 11075 bound_to 11068
  111.3760  251.8523  328.7353 H   0  0  0  0  0  0  0  0  0  0  0  0  # atno 12897 bound_to 12888
  108.8337  246.5635  336.6071 H   0  0  0  0  0  0  0  0  0  0  0  0  # atno 13469 bound_to 13450
  118.6569  243.7073  318.8446 LP  0  0  0  0  0  0  0  0  0  0  0  0  # atno 13485 bound_to 8425
  117.7901  244.9908  319.6201 LP  0  0  0  0  0  0  0  0  0  0  0  0  # atno 13486 bound_to 8425
  114.8529  243.0938  319.2411 LP  0  0  0  0  0  0  0  0  0  0  0  0  # atno 13487 bound_to 8448
  114.7157  245.8771  319.6114 LP  0  0  0  0  0  0  0  0  0  0  0  0  # atno 13488 bound_to 8470
  116.8794  247.2004  318.6750 LP  0  0  0  0  0  0  0  0  0  0  0  0  # atno 13489 bound_to 8965
  115.7836  247.5412  317.3777 LP  0  0  0  0  0  0  0  0  0  0  0  0  # atno 13490 bound_to 8965
  120.6181  246.0752  318.2542 LP  0  0  0  0  0  0  0  0  0  0  0  0  # atno 13491 bound_to 9017
  122.9431  242.6482  317.8958 LP  0  0  0  0  0  0  0  0  0  0  0  0  # atno 13492 bound_to 9020
  121.3082  242.3857  318.4040 LP  0  0  0  0  0  0  0  0  0  0  0  0  # atno 13493 bound_to 9020
  122.8108  243.4553  319.7454 LP  0  0  0  0  0  0  0  0  0  0  0  0  # atno 13494 bound_to 9041
  123.1001  242.8557  323.8319 LP  0  0  0  0  0  0  0  0  0  0  0  0  # atno 13495 bound_to 9044
  121.5146  243.2560  323.2611 LP  0  0  0  0  0  0  0  0  0  0  0  0  # atno 13496 bound_to 9044
  122.6781  239.8806  322.6518 LP  0  0  0  0  0  0  0  0  0  0  0  0  # atno 13497 bound_to 9087
  124.0083  239.7793  325.9872 LP  0  0  0  0  0  0  0  0  0  0  0  0  # atno 13498 bound_to 9090
  123.5715  239.2383  324.4008 LP  0  0  0  0  0  0  0  0  0  0  0  0  # atno 13499 bound_to 9090
  114.7591  240.4023  322.8559 LP  0  0  0  0  0  0  0  0  0  0  0  0  # atno 13500 bound_to 9098
  114.4525  239.0552  323.7264 LP  0  0  0  0  0  0  0  0  0  0  0  0  # atno 13501 bound_to 9098
  122.0270  241.5614  326.1150 LP  0  0  0  0  0  0  0  0  0  0  0  0  # atno 13502 bound_to 9125
  119.7196  239.7434  328.8127 LP  0  0  0  0  0  0  0  0  0  0  0  0  # atno 13503 bound_to 9128
  119.7801  238.6179  327.4976 LP  0  0  0  0  0  0  0  0  0  0  0  0  # atno 13504 bound_to 9128
  118.6036  238.4660  329.6135 LP  0  0  0  0  0  0  0  0  0  0  0  0  # atno 13505 bound_to 9202
  123.4550  249.2168  327.6652 LP  0  0  0  0  0  0  0  0  0  0  0  0  # atno 13514 bound_to 3592
  118.0609  248.2417  317.4333 LP  0  0  0  0  0  0  0  0  0  0  0  0  # atno 13515 bound_to 8997
  122.2640  246.6159  317.1735 LP  0  0  0  0  0  0  0  0  0  0  0  0  # atno 13516 bound_to 9000
  121.2261  247.9813  317.4151 LP  0  0  0  0  0  0  0  0  0  0  0  0  # atno 13517 bound_to 9000
  120.9005  237.5260  319.5565 LP  0  0  0  0  0  0  0  0  0  0  0  0  # atno 13518 bound_to 8370
  119.9563  238.9709  319.4113 LP  0  0  0  0  0  0  0  0  0  0  0  0  # atno 13519 bound_to 8370
  122.9436  238.3063  329.2839 LP  0  0  0  0  0  0  0  0  0  0  0  0  # atno 13520 bound_to 9155
  125.7603  239.2009  325.2651 LP  0  0  0  0  0  0  0  0  0  0  0  0  # atno 13521 bound_to 11068
  124.3304  238.1170  328.1908 LP  0  0  0  0  0  0  0  0  0  0  0  0  # atno 13522 bound_to 11071
  124.6249  239.5887  329.0553 LP  0  0  0  0  0  0  0  0  0  0  0  0  # atno 13523 bound_to 11071
  125.1192  246.2779  318.3596 LP  0  0  0  0  0  0  0  0  0  0  0  0  # atno 13524 bound_to 4888
  124.7280  247.5685  319.2805 LP  0  0  0  0  0  0  0  0  0  0  0  0  # atno 13525 bound_to 4888
  115.8915  240.4323  317.1266 LP  0  0  0  0  0  0  0  0  0  0  0  0  # atno 13526 bound_to 8388
  115.4890  240.0525  318.7678 LP  0  0  0  0  0  0  0  0  0  0  0  0  # atno 13527 bound_to 8388
  120.3096  246.0977  315.5291 LP  0  0  0  0  0  0  0  0  0  0  0  0  # atno 13528 bound_to 9002
  119.1426  245.5237  314.5416 LP  0  0  0  0  0  0  0  0  0  0  0  0  # atno 13529 bound_to 9002
  113.0470  244.5256  317.3490 LP  0  0  0  0  0  0  0  0  0  0  0  0  # atno 13530 bound_to 8451
  112.3180  245.7199  318.3700 LP  0  0  0  0  0  0  0  0  0  0  0  0  # atno 13531 bound_to 8451
  114.0134  248.8367  317.0219 LP  0  0  0  0  0  0  0  0  0  0  0  0  # atno 13532 bound_to 8473
  113.6966  250.1026  318.1607 LP  0  0  0  0  0  0  0  0  0  0  0  0  # atno 13533 bound_to 8473
  115.4596  250.5735  316.2353 LP  0  0  0  0  0  0  0  0  0  0  0  0  # atno 13534 bound_to 8962
  111.9061  247.4040  318.1558 LP  0  0  0  0  0  0  0  0  0  0  0  0  # atno 13535 bound_to 8501
  123.6118  247.6678  314.8499 LP  0  0  0  0  0  0  0  0  0  0  0  0  # atno 13538 bound_to 4907
  120.2123  248.2467  315.2264 LP  0  0  0  0  0  0  0  0  0  0  0  0  # atno 13539 bound_to 4910
  119.6695  249.8681  315.5029 LP  0  0  0  0  0  0  0  0  0  0  0  0  # atno 13540 bound_to 4910
  109.6948  247.5327  319.2348 LP  0  0  0  0  0  0  0  0  0  0  0  0  # atno 13543 bound_to 5549
  110.1552  246.5420  320.5789 LP  0  0  0  0  0  0  0  0  0  0  0  0  # atno 13544 bound_to 5549
  112.2729  239.4067  322.1308 LP  0  0  0  0  0  0  0  0  0  0  0  0  # atno 13545 bound_to 8344
  111.2428  238.1601  322.3576 LP  0  0  0  0  0  0  0  0  0  0  0  0  # atno 13546 bound_to 8344
  114.3460  238.5585  330.1244 LP  0  0  0  0  0  0  0  0  0  0  0  0  # atno 13547 bound_to 9205
  114.1037  238.6667  328.4128 LP  0  0  0  0  0  0  0  0  0  0  0  0  # atno 13548 bound_to 9205
  107.7195  244.2557  321.7882 LP  0  0  0  0  0  0  0  0  0  0  0  0  # atno 13553 bound_to 5551
  106.9827  243.9613  320.3610 LP  0  0  0  0  0  0  0  0  0  0  0  0  # atno 13554 bound_to 5551
  108.7110  244.7670  319.9291 LP  0  0  0  0  0  0  0  0  0  0  0  0  # atno 13555 bound_to 5571
  111.3320  239.2748  319.2050 LP  0  0  0  0  0  0  0  0  0  0  0  0  # atno 13556 bound_to 5645
  111.8767  240.6667  318.3298 LP  0  0  0  0  0  0  0  0  0  0  0  0  # atno 13557 bound_to 5645
  112.7095  238.2114  329.8802 LP  0  0  0  0  0  0  0  0  0  0  0  0  # atno 13560 bound_to 9363
  117.2123  237.4380  329.2418 LP  0  0  0  0  0  0  0  0  0  0  0  0  # atno 13561 bound_to 9231
  110.2226  237.0821  332.5546 LP  0  0  0  0  0  0  0  0  0  0  0  0  # atno 13562 bound_to 9321
  109.6465  237.6075  331.0079 LP  0  0  0  0  0  0  0  0  0  0  0  0  # atno 13563 bound_to 9321
  106.0734  244.6802  318.7369 LP  0  0  0  0  0  0  0  0  0  0  0  0  # atno 13566 bound_to 5546
  108.2247  243.6137  316.9569 LP  0  0  0  0  0  0  0  0  0  0  0  0  # atno 13567 bound_to 5574
  109.1271  242.3064  316.2666 LP  0  0  0  0  0  0  0  0  0  0  0  0  # atno 13568 bound_to 5574
  111.1256  243.2145  317.1002 LP  0  0  0  0  0  0  0  0  0  0  0  0  # atno 13569 bound_to 5604
  110.3551  250.4136  318.8973 LP  0  0  0  0  0  0  0  0  0  0  0  0  # atno 13570 bound_to 8525
  107.4697  247.6962  317.8411 LP  0  0  0  0  0  0  0  0  0  0  0  0  # atno 13571 bound_to 5523
  106.8056  247.6459  316.2422 LP  0  0  0  0  0  0  0  0  0  0  0  0  # atno 13572 bound_to 5523
  102.6188  242.2006  324.0103 LP  0  0  0  0  0  0  0  0  0  0  0  0  # atno 13573 bound_to 6144
  101.8769  242.3368  325.5695 LP  0  0  0  0  0  0  0  0  0  0  0  0  # atno 13574 bound_to 6144
  110.2449  246.2963  317.1052 LP  0  0  0  0  0  0  0  0  0  0  0  0  # atno 13575 bound_to 8506
  109.3248  246.3757  315.7584 LP  0  0  0  0  0  0  0  0  0  0  0  0  # atno 13576 bound_to 8506
  116.6435  238.4274  332.7232 LP  0  0  0  0  0  0  0  0  0  0  0  0  # atno 13577 bound_to 9175
  116.0198  237.8177  331.2268 LP  0  0  0  0  0  0  0  0  0  0  0  0  # atno 13578 bound_to 9175
  121.0279  239.9610  332.4839 LP  0  0  0  0  0  0  0  0  0  0  0  0  # atno 13579 bound_to 9178
  119.7556  240.7301  333.1593 LP  0  0  0  0  0  0  0  0  0  0  0  0  # atno 13580 bound_to 9178
  114.2962  234.0488  329.9100 LP  0  0  0  0  0  0  0  0  0  0  0  0  # atno 13581 bound_to 9234
  113.6588  235.5750  329.3956 LP  0  0  0  0  0  0  0  0  0  0  0  0  # atno 13582 bound_to 9234
  117.4211  235.0498  329.3588 LP  0  0  0  0  0  0  0  0  0  0  0  0  # atno 13583 bound_to 9265
  116.4388  236.3611  332.1275 LP  0  0  0  0  0  0  0  0  0  0  0  0  # atno 13584 bound_to 9282
  112.1352  236.9491  334.5347 LP  0  0  0  0  0  0  0  0  0  0  0  0  # atno 13585 bound_to 9285
  112.4690  235.3862  333.8669 LP  0  0  0  0  0  0  0  0  0  0  0  0  # atno 13586 bound_to 9285
  113.9569  236.9715  332.0882 LP  0  0  0  0  0  0  0  0  0  0  0  0  # atno 13587 bound_to 9318
  110.9828  235.2103  329.7421 LP  0  0  0  0  0  0  0  0  0  0  0  0  # atno 13588 bound_to 9391
  108.9161  235.2211  330.0043 LP  0  0  0  0  0  0  0  0  0  0  0  0  # atno 13592 bound_to 9366
  109.3950  234.6185  328.4527 LP  0  0  0  0  0  0  0  0  0  0  0  0  # atno 13593 bound_to 9366
  111.0148  252.7893  330.0157 LP  0  0  0  0  0  0  0  0  0  0  0  0  # atno 13594 bound_to 12888
  112.2443  253.1983  329.0219 LP  0  0  0  0  0  0  0  0  0  0  0  0  # atno 13595 bound_to 12888
  109.2661  247.0088  338.1119 LP  0  0  0  0  0  0  0  0  0  0  0  0  # atno 13596 bound_to 13450
  110.3912  246.4527  337.0671 LP  0  0  0  0  0  0  0  0  0  0  0  0  # atno 13597 bound_to 13450

> <Gold.Score>
     Fitness  S(hb_ext) S(vdw_ext)  S(hb_int)    S(int)      intcor
     40.44       0.55      30.13       0.00      -1.54      -0.76

> <Gold.Goldscore.Fitness>
40.4373

> <Gold.Goldscore.Internal.Vdw>
-1.5853

> <Gold.Goldscore.Internal.Torsion>
-0.7131

> <Gold.Goldscore.External.Vdw>
30.1315

> <Gold.Goldscore.Internal.HBond>
0.0000

> <Gold.Goldscore.External.HBond>
0.5465

> <Gold.Goldscore.Internal.Correction>
-0.7585

> <Gold.Goldscore.Hbonds>
donor molecule, donor type, donor heavy atom, donor atom, acceptor molecule, acceptor atom, score
      L1  H     8    22       P1  8965  0.27

> <Gold.Goldscore.Internal.Vdw.Weighted>
-1.5853

> <Gold.Goldscore.Internal.Torsion.Weighted>
-0.7131

> <Gold.Goldscore.External.Vdw.Weighted>
41.4308

> <Gold.Goldscore.Internal.HBond.Weighted>
0.0000

> <Gold.Goldscore.External.HBond.Weighted>
0.5465

> <Gold.Goldscore.Internal.Correction.Weighted>
-0.7585

> <Gold.Rescore>
     Score     S(PLP)   S(hbond)     S(cho)   S(metal)  DE(clash)   DE(tors)     intcor
     36.49     -33.35       0.31       0.00       0.70       0.85       0.57       ----

> <Gold.PLP.Fitness>
36.4881

> <Gold.PLP.PLP>
-33.3489

> <Gold.PLP.part.hbond>
-3.4489

> <Gold.PLP.part.metal>
-0.4350

> <Gold.PLP.part.buried>
16.4915

> <Gold.PLP.part.nonpolar>
-49.0520

> <Gold.PLP.part.repulsive>
2.6088

> <Gold.PLP.ligand.clash>
0.8497

> <Gold.PLP.ligand.torsion>
0.5689

> <Gold.PLP.Chemscore.Hbond>
0.3143

> <Gold.PLP.Chemscore.CHOScore>
0.0000

> <Gold.PLP.Chemscore.Metal>
0.6973

> <Gold.PLP.Chemscore.Internal.Correction>
   9.000000E+99

