#       Name:                CT1002167954
#       Creating user name   hitesit
#       Creation time:       Sun Apr 16 22:52:10 2023


#       File generated by GOLD software.
#

@<TRIPOS>MOLECULE
CT1002167954|ligand_prepared|mol2|1|dock8
    29    30     1
SMALL
NO_CHARGES


@<TRIPOS>ATOM
      1 C1         111.1643 242.6662 328.7365 C.3            1 RES1               0.0000
      2 C2         110.9911 242.9035 327.2224 C.ar           1 RES1               0.0000
      3 C3         111.8298 241.3010 328.8828 C.2            1 RES1               0.0000
      4 C4         112.0047 243.8270 329.2569 C.2            1 RES1               0.0000
      5 C5         109.8327 242.6503 329.5227 C.3            1 RES1               0.0000
      6 C6         111.8797 242.3413 326.3108 C.ar           1 RES1               0.0000
      7 C7         109.9480 243.6788 326.7229 C.ar           1 RES1               0.0000
      8 N8         113.1460 241.2746 329.2391 N.am           1 RES1               0.0000
      9 O9         111.2199 240.2645 328.6505 O.2            1 RES1               0.0000
     10 N10        113.2561 243.5476 329.7402 N.am           1 RES1               0.0000
     11 O11        111.6010 244.9833 329.2374 O.2            1 RES1               0.0000
     12 C12        109.9747 242.1730 330.9595 C.3            1 RES1               0.0000
     13 C13        111.7293 242.5442 324.9490 C.ar           1 RES1               0.0000
     14 C14        109.7995 243.8806 325.3606 C.ar           1 RES1               0.0000
     15 C15        113.8767 242.3282 329.7265 C.2            1 RES1               0.0000
     16 C16        110.6890 243.3135 324.4730 C.ar           1 RES1               0.0000
     17 O17        115.0251 242.1665 330.1294 O.2            1 RES1               0.0000
     18 H18        109.4131 243.6638 329.5272 H              1 RES1               0.0000
     19 H19        109.1229 241.9958 329.0019 H              1 RES1               0.0000
     20 H20        112.7059 241.7349 326.6669 H              1 RES1               0.0000
     21 H21        109.2368 244.1357 327.4027 H              1 RES1               0.0000
     22 H22        113.6318 240.3897 329.1334 H              1 RES1               0.0000
     23 H23        113.7729 244.3203 330.1481 H              1 RES1               0.0000
     24 H24        109.0116 242.1812 331.4656 H              1 RES1               0.0000
     25 H25        110.3660 241.1583 330.9920 H              1 RES1               0.0000
     26 H26        110.6545 242.8164 331.5142 H              1 RES1               0.0000
     27 H27        112.4328 242.0968 324.2546 H              1 RES1               0.0000
     28 H28        108.9797 244.4873 324.9905 H              1 RES1               0.0000
     29 H29        110.5712 243.4720 323.4061 H              1 RES1               0.0000
@<TRIPOS>BOND
    1    1    2 1     
    2    1    3 1     
    3    1    4 1     
    4    1    5 1     
    5    2    6 ar    
    6    2    7 ar    
    7    3    8 1     
    8    3    9 2     
    9    4   10 1     
   10    4   11 2     
   11    5   12 1     
   12    5   18 1     
   13    5   19 1     
   14    6   13 ar    
   15    6   20 1     
   16    7   14 ar    
   17    7   21 1     
   18    8   15 1     
   19    8   22 1     
   20   10   15 1     
   21   10   23 1     
   22   12   24 1     
   23   12   25 1     
   24   12   26 1     
   25   13   16 ar    
   26   13   27 1     
   27   14   16 ar    
   28   14   28 1     
   29   15   17 2     
   30   16   29 1     
@<TRIPOS>SUBSTRUCTURE
      1 RES1           1
@<TRIPOS>SET
DONOR_HYDROGENS      STATIC     ATOMS    <user>   **** ""
2 22 23
ATOM$RED        STATIC     ATOMS    COLORGROUP SYSTEM
2 22 23
@<TRIPOS>COMMENT
> <Gold.Version>
2022.3.0

> <Gold.Id.Protein>
unknown|4uh6_clean|pdb

> <Gold.Protein.RotatedTorsions>
[ 8453 8448 8449 8450 ] final -128.68 input   43.75 | X-H torsion
[ 8477 8470 8471 8472 ] final   15.50 input  101.27 | X-H torsion
[ 9021 9017 9018 9019 ] final  128.14 input   41.82 | X-H torsion
[ 9055 9041 9042 9043 ] final -121.98 input   38.00 | X-H torsion
[ 9099 9087 9088 9089 ] final  178.32 input   99.63 | X-H torsion
[ 9107 9098 9097 9095 ] final  140.44 input   60.00 | X-H torsion
[ 9133 9125 9126 9127 ] final   46.89 input   87.39 | X-H torsion
[ 9211 9202 9203 9204 ] final   24.33 input  119.00 | X-H torsion
[ 3596 3592 3593 3594 ] final -153.58 input   87.50 | X-H torsion
[ 9003 8997 8998 8999 ] final -136.98 input   29.71 | X-H torsion
[ 9159 9155 9156 9157 ] final   23.44 input  127.29 | X-H torsion
[ 11075 11068 11069 11070 ] final  -97.66 input   56.03 | X-H torsion
[ 4893 4888 4887 4884 ] final  141.69 input   60.01 | X-H torsion
[ 9007 9002 9001 8998 ] final   16.26 input   59.98 | X-H torsion
[ 8973 8962 8963 8964 ] final   57.91 input   50.05 | X-H torsion
[ 8507 8501 8502 8503 ] final  -67.75 input   53.62 | X-H torsion
[ 4912 4907 4908 4909 ] final  128.34 input   25.27 | X-H torsion
[ 8353 8344 8343 8341 ] final   53.63 input   59.99 | X-H torsion
[ 5556 5551 5550 5547 ] final  -92.99 input   59.99 | X-H torsion
[ 5580 5571 5572 5573 ] final -103.64 input   51.16 | X-H torsion
[ 9375 9363 9364 9365 ] final -150.78 input  121.73 | X-H torsion
[ 9247 9231 9232 9233 ] final  -42.99 input   97.49 | X-H torsion
[ 5552 5546 5547 5548 ] final -154.91 input   98.49 | X-H torsion
[ 5612 5604 5605 5606 ] final   83.10 input  122.00 | X-H torsion
[ 8533 8525 8526 8527 ] final  -14.15 input   68.51 | X-H torsion
[ 8511 8506 8505 8502 ] final   20.31 input   59.98 | X-H torsion
[ 9185 9178 9176 9173 ] final   73.18 input   60.02 | X-H torsion
[ 9272 9265 9266 9267 ] final -169.82 input  106.17 | X-H torsion
[ 9298 9282 9283 9284 ] final   61.42 input   76.97 | X-H torsion
[ 9342 9318 9319 9320 ] final   96.13 input  100.94 | X-H torsion
[ 9412 9391 9392 9393 ] final   64.47 input   95.23 | X-H torsion
[ 12897 12888 12887 12885 ] final   15.19 input   60.01 | X-H torsion
[ 13469 13450 13449 13445 ] final  145.87 input   59.98 | X-H torsion
[ 3570 3563 3564 3565 ] final  121.25 input   99.66 | X-H torsion
[ 13485 8425 8424 8423 ] final    9.53 input    0.00 | X-H torsion
[ 13489 8965 8964 8963 ] final  -41.88 input    0.00 | X-H torsion
[ 13492 9020 9019 9018 ] final   30.83 input   -0.00 | X-H torsion
[ 13495 9044 9043 9042 ] final  171.89 input    0.00 | X-H torsion
[ 13498 9090 9089 9088 ] final -156.79 input    0.00 | X-H torsion
[ 13503 9128 9127 9126 ] final   33.72 input    0.00 | X-H torsion
[ 13516 9000 8999 8998 ] final -165.84 input    0.00 | X-H torsion
[ 13518 8370 8369 8368 ] final  -74.88 input    0.00 | X-H torsion
[ 13522 11071 11070 11069 ] final   32.55 input   -0.00 | X-H torsion
[ 13526 8388 8387 8386 ] final  164.10 input    0.00 | X-H torsion
[ 13530 8451 8450 8449 ] final   73.07 input    0.00 | X-H torsion
[ 13532 8473 8472 8471 ] final -115.30 input    0.00 | X-H torsion
[ 13539 4910 4909 4908 ] final   92.24 input   -0.00 | X-H torsion
[ 13543 5549 5548 5547 ] final  109.77 input    0.00 | X-H torsion
[ 13547 9205 9204 9203 ] final   39.78 input   -0.00 | X-H torsion
[ 13556 5645 5644 5643 ] final  -36.59 input   -0.00 | X-H torsion
[ 13562 9321 9320 9319 ] final  -34.88 input    0.00 | X-H torsion
[ 13567 5574 5573 5572 ] final  -50.70 input    0.00 | X-H torsion
[ 13571 5523 5522 5521 ] final  -18.33 input    0.00 | X-H torsion
[ 13573 6144 6143 6142 ] final  -15.67 input    0.00 | X-H torsion
[ 13577 9175 9174 9173 ] final  106.08 input    0.00 | X-H torsion
[ 13581 9234 9233 9232 ] final  -52.97 input    0.00 | X-H torsion
[ 13585 9285 9284 9283 ] final    9.11 input    0.00 | X-H torsion
[ 13592 9366 9365 9364 ] final -170.85 input   -0.00 | X-H torsion

> <Gold.Protein.ActiveResidues>
 TRP311  MET341  HIS342  TRP414  ARG419  CYS420  VAL421  GLY422  LEU429  LEU460 
 SER462  ALA463  ILE464  ASN481  SER482  GLN483  LEU484  ILE485  ARG486  ASP500 
 ALA502  ASN503  TRP566  TYR567  GLY568  LEU569  PRO570  ALA571  VAL572  SER573 
 ASN574  MET575  PRO588  PHE589  SER590  GLY591  TRP592  TYR593  MET594  GLY595 
 THR596  GLU597  ILE598  GLY599  VAL600  ARG601  ASP602  TYR603  ASP605  ARG608 
 ILE653  VAL654  TRP683  PRO687  SER691  PHE696  HIS697  TYR711  HEM750  H4B760 

> <Gold.Protein.RotatedAtoms>
  121.5984  248.9848  329.8150 H   0  0  0  0  0  0  0  0  0  0  0  0  # atno 3570 bound_to 3563
  124.0915  248.1078  328.6116 H   0  0  0  0  0  0  0  0  0  0  0  0  # atno 3596 bound_to 3592
  126.0882  247.6631  318.9208 H   0  0  0  0  0  0  0  0  0  0  0  0  # atno 4893 bound_to 4888
  122.9709  247.1637  314.7985 H   0  0  0  0  0  0  0  0  0  0  0  0  # atno 4912 bound_to 4907
  105.5454  245.9965  318.3375 H   0  0  0  0  0  0  0  0  0  0  0  0  # atno 5552 bound_to 5546
  106.0675  243.9296  320.9774 H   0  0  0  0  0  0  0  0  0  0  0  0  # atno 5556 bound_to 5551
  108.7646  245.6861  318.9733 H   0  0  0  0  0  0  0  0  0  0  0  0  # atno 5580 bound_to 5571
  112.0546  243.7513  316.8727 H   0  0  0  0  0  0  0  0  0  0  0  0  # atno 5612 bound_to 5604
  111.4946  238.2337  322.5040 H   0  0  0  0  0  0  0  0  0  0  0  0  # atno 8353 bound_to 8344
  116.5445  243.4636  319.3814 H   0  0  0  0  0  0  0  0  0  0  0  0  # atno 8453 bound_to 8448
  114.9050  246.9348  318.2346 H   0  0  0  0  0  0  0  0  0  0  0  0  # atno 8477 bound_to 8470
  111.9931  248.8545  318.9454 H   0  0  0  0  0  0  0  0  0  0  0  0  # atno 8507 bound_to 8501
  109.2681  247.2192  317.3489 H   0  0  0  0  0  0  0  0  0  0  0  0  # atno 8511 bound_to 8506
  110.3730  250.4992  318.6594 H   0  0  0  0  0  0  0  0  0  0  0  0  # atno 8533 bound_to 8525
  115.2308  249.6269  316.9317 H   0  0  0  0  0  0  0  0  0  0  0  0  # atno 8973 bound_to 8962
  117.9627  248.1949  317.3085 H   0  0  0  0  0  0  0  0  0  0  0  0  # atno 9003 bound_to 8997
  120.4615  245.8666  315.6502 H   0  0  0  0  0  0  0  0  0  0  0  0  # atno 9007 bound_to 9002
  120.2231  245.9929  319.4189 H   0  0  0  0  0  0  0  0  0  0  0  0  # atno 9021 bound_to 9017
  122.1819  243.4533  319.9109 H   0  0  0  0  0  0  0  0  0  0  0  0  # atno 9055 bound_to 9041
  121.3440  240.5006  322.0799 H   0  0  0  0  0  0  0  0  0  0  0  0  # atno 9099 bound_to 9087
  114.8817  239.5481  321.9978 H   0  0  0  0  0  0  0  0  0  0  0  0  # atno 9107 bound_to 9098
  120.7536  240.8026  326.4605 H   0  0  0  0  0  0  0  0  0  0  0  0  # atno 9133 bound_to 9125
  121.9893  238.8193  329.4209 H   0  0  0  0  0  0  0  0  0  0  0  0  # atno 9159 bound_to 9155
  119.2751  240.5407  332.1890 H   0  0  0  0  0  0  0  0  0  0  0  0  # atno 9185 bound_to 9178
  118.3054  238.1626  329.9048 H   0  0  0  0  0  0  0  0  0  0  0  0  # atno 9211 bound_to 9202
  116.2668  237.9396  329.3498 H   0  0  0  0  0  0  0  0  0  0  0  0  # atno 9247 bound_to 9231
  116.9574  234.7398  329.0750 H   0  0  0  0  0  0  0  0  0  0  0  0  # atno 9272 bound_to 9265
  116.1215  236.3833  331.9120 H   0  0  0  0  0  0  0  0  0  0  0  0  # atno 9298 bound_to 9282
  114.5666  238.0216  332.0790 H   0  0  0  0  0  0  0  0  0  0  0  0  # atno 9342 bound_to 9318
  112.0812  238.4908  330.1335 H   0  0  0  0  0  0  0  0  0  0  0  0  # atno 9375 bound_to 9363
  112.3467  235.1404  330.7096 H   0  0  0  0  0  0  0  0  0  0  0  0  # atno 9412 bound_to 9391
  126.1681  237.6656  325.5172 H   0  0  0  0  0  0  0  0  0  0  0  0  # atno 11075 bound_to 11068
  111.7671  252.0852  328.5149 H   0  0  0  0  0  0  0  0  0  0  0  0  # atno 12897 bound_to 12888
  109.0271  247.0125  337.9981 H   0  0  0  0  0  0  0  0  0  0  0  0  # atno 13469 bound_to 13450
  118.7375  243.7149  319.5216 LP  0  0  0  0  0  0  0  0  0  0  0  0  # atno 13485 bound_to 8425
  117.7096  244.9832  318.9431 LP  0  0  0  0  0  0  0  0  0  0  0  0  # atno 13486 bound_to 8425
  114.8871  242.9905  319.0988 LP  0  0  0  0  0  0  0  0  0  0  0  0  # atno 13487 bound_to 8448
  114.7743  245.9281  319.6587 LP  0  0  0  0  0  0  0  0  0  0  0  0  # atno 13488 bound_to 8470
  116.0559  248.1206  318.3609 LP  0  0  0  0  0  0  0  0  0  0  0  0  # atno 13489 bound_to 8965
  116.6071  246.6210  317.6919 LP  0  0  0  0  0  0  0  0  0  0  0  0  # atno 13490 bound_to 8965
  120.4471  244.8749  318.0923 LP  0  0  0  0  0  0  0  0  0  0  0  0  # atno 13491 bound_to 9017
  122.3661  243.1473  317.6069 LP  0  0  0  0  0  0  0  0  0  0  0  0  # atno 13492 bound_to 9020
  121.8852  241.8866  318.6929 LP  0  0  0  0  0  0  0  0  0  0  0  0  # atno 13493 bound_to 9020
  123.2681  243.8475  321.2261 LP  0  0  0  0  0  0  0  0  0  0  0  0  # atno 13494 bound_to 9041
  121.8893  242.6007  324.1532 LP  0  0  0  0  0  0  0  0  0  0  0  0  # atno 13495 bound_to 9044
  122.7254  243.5109  322.9398 LP  0  0  0  0  0  0  0  0  0  0  0  0  # atno 13496 bound_to 9044
  122.9073  240.5551  322.8612 LP  0  0  0  0  0  0  0  0  0  0  0  0  # atno 13497 bound_to 9087
  123.8226  239.3468  326.0441 LP  0  0  0  0  0  0  0  0  0  0  0  0  # atno 13498 bound_to 9090
  123.7571  239.6709  324.3439 LP  0  0  0  0  0  0  0  0  0  0  0  0  # atno 13499 bound_to 9090
  114.6128  240.2337  323.4487 LP  0  0  0  0  0  0  0  0  0  0  0  0  # atno 13500 bound_to 9098
  114.5155  238.6126  323.2777 LP  0  0  0  0  0  0  0  0  0  0  0  0  # atno 13501 bound_to 9098
  122.3513  240.8652  325.7522 LP  0  0  0  0  0  0  0  0  0  0  0  0  # atno 13502 bound_to 9125
  119.8239  239.6453  327.4281 LP  0  0  0  0  0  0  0  0  0  0  0  0  # atno 13503 bound_to 9128
  119.6758  238.7160  328.8822 LP  0  0  0  0  0  0  0  0  0  0  0  0  # atno 13504 bound_to 9128
  118.5356  239.6783  330.7382 LP  0  0  0  0  0  0  0  0  0  0  0  0  # atno 13505 bound_to 9202
  123.9358  249.6915  327.8935 LP  0  0  0  0  0  0  0  0  0  0  0  0  # atno 13514 bound_to 3592
  119.4715  248.1484  316.4384 LP  0  0  0  0  0  0  0  0  0  0  0  0  # atno 13515 bound_to 8997
  122.3666  246.7854  317.6111 LP  0  0  0  0  0  0  0  0  0  0  0  0  # atno 13516 bound_to 9000
  121.1235  247.8117  316.9775 LP  0  0  0  0  0  0  0  0  0  0  0  0  # atno 13517 bound_to 9000
  119.9815  238.0591  320.2012 LP  0  0  0  0  0  0  0  0  0  0  0  0  # atno 13518 bound_to 8370
  120.8753  238.4378  318.7667 LP  0  0  0  0  0  0  0  0  0  0  0  0  # atno 13519 bound_to 8370
  122.7103  238.1687  327.9653 LP  0  0  0  0  0  0  0  0  0  0  0  0  # atno 13520 bound_to 9155
  125.2482  239.1364  325.6916 LP  0  0  0  0  0  0  0  0  0  0  0  0  # atno 13521 bound_to 11068
  124.3527  238.6625  327.7875 LP  0  0  0  0  0  0  0  0  0  0  0  0  # atno 13522 bound_to 11071
  124.6025  239.0432  329.4586 LP  0  0  0  0  0  0  0  0  0  0  0  0  # atno 13523 bound_to 11071
  125.4786  246.3034  318.2658 LP  0  0  0  0  0  0  0  0  0  0  0  0  # atno 13524 bound_to 4888
  124.5250  247.2794  319.1629 LP  0  0  0  0  0  0  0  0  0  0  0  0  # atno 13525 bound_to 4888
  115.4886  240.5917  318.7135 LP  0  0  0  0  0  0  0  0  0  0  0  0  # atno 13526 bound_to 8388
  115.8919  239.8930  317.1808 LP  0  0  0  0  0  0  0  0  0  0  0  0  # atno 13527 bound_to 8388
  119.2124  245.8104  314.6090 LP  0  0  0  0  0  0  0  0  0  0  0  0  # atno 13528 bound_to 9002
  119.9026  244.4275  315.1364 LP  0  0  0  0  0  0  0  0  0  0  0  0  # atno 13529 bound_to 9002
  112.6775  244.4681  318.4265 LP  0  0  0  0  0  0  0  0  0  0  0  0  # atno 13530 bound_to 8451
  112.6876  245.7774  317.2925 LP  0  0  0  0  0  0  0  0  0  0  0  0  # atno 13531 bound_to 8451
  113.4265  250.1543  317.9036 LP  0  0  0  0  0  0  0  0  0  0  0  0  # atno 13532 bound_to 8473
  114.2835  248.7849  317.2790 LP  0  0  0  0  0  0  0  0  0  0  0  0  # atno 13533 bound_to 8473
  115.6076  249.8247  315.2362 LP  0  0  0  0  0  0  0  0  0  0  0  0  # atno 13534 bound_to 8962
  111.4004  247.3230  318.3579 LP  0  0  0  0  0  0  0  0  0  0  0  0  # atno 13535 bound_to 8501
  122.8376  248.5968  315.7867 LP  0  0  0  0  0  0  0  0  0  0  0  0  # atno 13538 bound_to 4907
  120.3448  249.5885  315.9167 LP  0  0  0  0  0  0  0  0  0  0  0  0  # atno 13539 bound_to 4910
  119.5370  248.5262  314.8126 LP  0  0  0  0  0  0  0  0  0  0  0  0  # atno 13540 bound_to 4910
  110.1576  246.5403  320.5768 LP  0  0  0  0  0  0  0  0  0  0  0  0  # atno 13543 bound_to 5549
  109.6925  247.5344  319.2369 LP  0  0  0  0  0  0  0  0  0  0  0  0  # atno 13544 bound_to 5549
  110.8071  238.9970  321.2417 LP  0  0  0  0  0  0  0  0  0  0  0  0  # atno 13545 bound_to 8344
  112.1830  239.5794  321.9007 LP  0  0  0  0  0  0  0  0  0  0  0  0  # atno 13546 bound_to 8344
  114.2336  239.4455  329.0314 LP  0  0  0  0  0  0  0  0  0  0  0  0  # atno 13547 bound_to 9205
  114.2160  237.7798  329.5058 LP  0  0  0  0  0  0  0  0  0  0  0  0  # atno 13548 bound_to 9205
  107.0813  244.2313  322.2141 LP  0  0  0  0  0  0  0  0  0  0  0  0  # atno 13553 bound_to 5551
  107.6613  244.0962  320.6936 LP  0  0  0  0  0  0  0  0  0  0  0  0  # atno 13554 bound_to 5551
  108.2435  244.0302  319.2249 LP  0  0  0  0  0  0  0  0  0  0  0  0  # atno 13555 bound_to 5571
  112.3689  239.7908  318.4026 LP  0  0  0  0  0  0  0  0  0  0  0  0  # atno 13556 bound_to 5645
  110.8398  240.1506  319.1322 LP  0  0  0  0  0  0  0  0  0  0  0  0  # atno 13557 bound_to 5645
  112.5905  236.9612  330.8133 LP  0  0  0  0  0  0  0  0  0  0  0  0  # atno 13560 bound_to 9363
  117.3028  237.8247  327.9433 LP  0  0  0  0  0  0  0  0  0  0  0  0  # atno 13561 bound_to 9231
  110.1995  237.2142  332.5953 LP  0  0  0  0  0  0  0  0  0  0  0  0  # atno 13562 bound_to 9321
  109.6695  237.4755  330.9672 LP  0  0  0  0  0  0  0  0  0  0  0  0  # atno 13563 bound_to 9321
  106.7882  244.7839  318.1534 LP  0  0  0  0  0  0  0  0  0  0  0  0  # atno 13566 bound_to 5546
  108.6968  242.4482  317.3100 LP  0  0  0  0  0  0  0  0  0  0  0  0  # atno 13567 bound_to 5574
  108.6549  243.4720  315.9135 LP  0  0  0  0  0  0  0  0  0  0  0  0  # atno 13568 bound_to 5574
  110.3932  244.2647  316.6919 LP  0  0  0  0  0  0  0  0  0  0  0  0  # atno 13569 bound_to 5604
  109.2911  249.1534  318.4193 LP  0  0  0  0  0  0  0  0  0  0  0  0  # atno 13570 bound_to 8525
  107.0767  247.4933  316.1963 LP  0  0  0  0  0  0  0  0  0  0  0  0  # atno 13571 bound_to 5523
  107.1986  247.8489  317.8870 LP  0  0  0  0  0  0  0  0  0  0  0  0  # atno 13572 bound_to 5523
  102.2638  242.4136  325.6436 LP  0  0  0  0  0  0  0  0  0  0  0  0  # atno 13573 bound_to 6144
  102.2320  242.1237  323.9362 LP  0  0  0  0  0  0  0  0  0  0  0  0  # atno 13574 bound_to 6144
  110.2593  246.0919  316.7194 LP  0  0  0  0  0  0  0  0  0  0  0  0  # atno 13575 bound_to 8506
  109.0124  246.6706  315.8379 LP  0  0  0  0  0  0  0  0  0  0  0  0  # atno 13576 bound_to 8506
  116.3137  238.9438  332.2492 LP  0  0  0  0  0  0  0  0  0  0  0  0  # atno 13577 bound_to 9175
  116.3496  237.3013  331.7007 LP  0  0  0  0  0  0  0  0  0  0  0  0  # atno 13578 bound_to 9175
  120.6875  239.8307  331.8021 LP  0  0  0  0  0  0  0  0  0  0  0  0  # atno 13579 bound_to 9178
  120.4801  240.4897  333.2818 LP  0  0  0  0  0  0  0  0  0  0  0  0  # atno 13580 bound_to 9178
  113.6975  235.6313  329.6461 LP  0  0  0  0  0  0  0  0  0  0  0  0  # atno 13581 bound_to 9234
  114.2575  233.9924  329.6595 LP  0  0  0  0  0  0  0  0  0  0  0  0  # atno 13582 bound_to 9234
  116.3934  235.9707  330.1837 LP  0  0  0  0  0  0  0  0  0  0  0  0  # atno 13583 bound_to 9265
  116.1111  234.7603  332.5546 LP  0  0  0  0  0  0  0  0  0  0  0  0  # atno 13584 bound_to 9282
  112.7827  235.6902  334.7403 LP  0  0  0  0  0  0  0  0  0  0  0  0  # atno 13585 bound_to 9285
  111.8215  236.6451  333.6614 LP  0  0  0  0  0  0  0  0  0  0  0  0  # atno 13586 bound_to 9285
  113.7391  237.0909  333.3050 LP  0  0  0  0  0  0  0  0  0  0  0  0  # atno 13587 bound_to 9318
  111.2397  235.0138  329.3624 LP  0  0  0  0  0  0  0  0  0  0  0  0  # atno 13588 bound_to 9391
  109.2615  234.2269  329.7372 LP  0  0  0  0  0  0  0  0  0  0  0  0  # atno 13592 bound_to 9366
  109.0496  235.6127  328.7199 LP  0  0  0  0  0  0  0  0  0  0  0  0  # atno 13593 bound_to 9366
  110.8314  252.3572  329.8181 LP  0  0  0  0  0  0  0  0  0  0  0  0  # atno 13594 bound_to 12888
  112.0338  253.3960  329.4415 LP  0  0  0  0  0  0  0  0  0  0  0  0  # atno 13595 bound_to 12888
  110.4260  246.5336  337.3175 LP  0  0  0  0  0  0  0  0  0  0  0  0  # atno 13596 bound_to 13450
  109.0367  246.4760  336.4613 LP  0  0  0  0  0  0  0  0  0  0  0  0  # atno 13597 bound_to 13450

> <Gold.Score>
     Fitness  S(hb_ext) S(vdw_ext)  S(hb_int)    S(int)      intcor
     31.56       3.89      20.60       0.00      -0.65      -0.76

> <Gold.Goldscore.Fitness>
31.5646

> <Gold.Goldscore.Internal.Vdw>
-0.8702

> <Gold.Goldscore.Internal.Torsion>
-0.5396

> <Gold.Goldscore.External.Vdw>
20.6028

> <Gold.Goldscore.Internal.HBond>
0.0000

> <Gold.Goldscore.External.HBond>
3.8870

> <Gold.Goldscore.Internal.Correction>
-0.7585

> <Gold.Goldscore.Hbonds>
donor molecule, donor type, donor heavy atom, donor atom, acceptor molecule, acceptor atom, score
      P1  H  9537  9548       L1     9  0.06
      P1  H  9363  9375       L1     9  0.03
      L1  H     8    22       P1  9205  1.00
      L1  H    10    23       P1 13334  0.24

> <Gold.Goldscore.Internal.Vdw.Weighted>
-0.8702

> <Gold.Goldscore.Internal.Torsion.Weighted>
-0.5396

> <Gold.Goldscore.External.Vdw.Weighted>
28.3289

> <Gold.Goldscore.Internal.HBond.Weighted>
0.0000

> <Gold.Goldscore.External.HBond.Weighted>
3.8870

> <Gold.Goldscore.Internal.Correction.Weighted>
-0.7585

> <Gold.Rescore>
     Score     S(PLP)   S(hbond)     S(cho)   S(metal)  DE(clash)   DE(tors)     intcor
      6.71      -2.02       2.51       0.00       0.00       0.00       1.42       ----

> <Gold.PLP.Fitness>
6.7059

> <Gold.PLP.PLP>
-2.0206

> <Gold.PLP.part.hbond>
-3.8826

> <Gold.PLP.part.metal>
0.0000

> <Gold.PLP.part.buried>
9.4352

> <Gold.PLP.part.nonpolar>
-19.4613

> <Gold.PLP.part.repulsive>
11.4516

> <Gold.PLP.ligand.clash>
0.0000

> <Gold.PLP.ligand.torsion>
1.4197

> <Gold.PLP.Chemscore.Hbond>
2.5083

> <Gold.PLP.Chemscore.CHOScore>
0.0000

> <Gold.PLP.Chemscore.Metal>
0.0000

> <Gold.Chemscore.Hbonds>
donor molecule, donor type, donor heavy atom, donor atom, acceptor molecule, acceptor atom, score
      L1  H     8    22       P1  9205  0.99
      L1  H    10    23       P1 13334  0.60
      P1  H  9537  9548       L1     9  0.58
      P1  H  9363  9375       L1     9  0.06

> <Gold.PLP.Chemscore.Internal.Correction>
   9.000000E+99

