#       Name:                CT1002167954
#       Creating user name   hitesit
#       Creation time:       Sun Apr 16 22:52:09 2023


#       File generated by GOLD software.
#

@<TRIPOS>MOLECULE
CT1002167954|ligand_prepared|mol2|1|dock7
    29    30     1
SMALL
NO_CHARGES


@<TRIPOS>ATOM
      1 C1         112.5249 243.5295 325.7012 C.3            1 RES1               0.0000
      2 C2         111.7768 244.6241 324.9131 C.ar           1 RES1               0.0000
      3 C3         111.4790 242.8360 326.5693 C.2            1 RES1               0.0000
      4 C4         113.1714 242.6214 324.6611 C.2            1 RES1               0.0000
      5 C5         113.6427 244.0748 326.6202 C.3            1 RES1               0.0000
      6 C6         110.8624 244.2832 323.9209 C.ar           1 RES1               0.0000
      7 C7         111.9881 245.9764 325.1683 C.ar           1 RES1               0.0000
      8 N8         111.0771 241.5869 326.1977 N.am           1 RES1               0.0000
      9 O9         110.9855 243.3925 327.5424 O.2            1 RES1               0.0000
     10 N10        112.7277 241.3278 324.5734 N.am           1 RES1               0.0000
     11 O11        114.0495 243.0189 323.9053 O.2            1 RES1               0.0000
     12 C12        114.5229 242.9918 327.2240 C.3            1 RES1               0.0000
     13 C13        110.1817 245.2588 323.2115 C.ar           1 RES1               0.0000
     14 C14        111.3065 246.9504 324.4576 C.ar           1 RES1               0.0000
     15 C15        111.6886 240.7782 325.2737 C.2            1 RES1               0.0000
     16 C16        110.4029 246.5929 323.4796 C.ar           1 RES1               0.0000
     17 O17        111.3128 239.6224 325.1004 O.2            1 RES1               0.0000
     18 H18        114.2735 244.7601 326.0406 H              1 RES1               0.0000
     19 H19        113.1824 244.6496 327.4333 H              1 RES1               0.0000
     20 H20        110.6771 243.2385 323.6942 H              1 RES1               0.0000
     21 H21        112.6951 246.2810 325.9325 H              1 RES1               0.0000
     22 H22        110.2449 241.2202 326.6485 H              1 RES1               0.0000
     23 H23        113.2175 240.7182 323.9263 H              1 RES1               0.0000
     24 H24        115.2903 243.4284 327.8598 H              1 RES1               0.0000
     25 H25        113.9318 242.3066 327.8280 H              1 RES1               0.0000
     26 H26        115.0165 242.4164 326.4435 H              1 RES1               0.0000
     27 H27        109.4727 244.9722 322.4419 H              1 RES1               0.0000
     28 H28        111.4842 247.9992 324.6715 H              1 RES1               0.0000
     29 H29        109.8693 247.3569 322.9241 H              1 RES1               0.0000
@<TRIPOS>BOND
    1    1    2 1     
    2    1    3 1     
    3    1    4 1     
    4    1    5 1     
    5    2    6 ar    
    6    2    7 ar    
    7    3    8 1     
    8    3    9 2     
    9    4   10 1     
   10    4   11 2     
   11    5   12 1     
   12    5   18 1     
   13    5   19 1     
   14    6   13 ar    
   15    6   20 1     
   16    7   14 ar    
   17    7   21 1     
   18    8   15 1     
   19    8   22 1     
   20   10   15 1     
   21   10   23 1     
   22   12   24 1     
   23   12   25 1     
   24   12   26 1     
   25   13   16 ar    
   26   13   27 1     
   27   14   16 ar    
   28   14   28 1     
   29   15   17 2     
   30   16   29 1     
@<TRIPOS>SUBSTRUCTURE
      1 RES1           1
@<TRIPOS>SET
DONOR_HYDROGENS      STATIC     ATOMS    <user>   **** ""
2 22 23
ATOM$RED        STATIC     ATOMS    COLORGROUP SYSTEM
2 22 23
@<TRIPOS>COMMENT
> <Gold.Version>
2022.3.0

> <Gold.Id.Protein>
unknown|4uh6_clean|pdb

> <Gold.Protein.RotatedTorsions>
[ 8453 8448 8449 8450 ] final  -93.20 input   43.75 | X-H torsion
[ 8477 8470 8471 8472 ] final -118.02 input  101.27 | X-H torsion
[ 9021 9017 9018 9019 ] final -153.00 input   41.82 | X-H torsion
[ 9055 9041 9042 9043 ] final  -76.22 input   38.00 | X-H torsion
[ 9099 9087 9088 9089 ] final -136.30 input   99.63 | X-H torsion
[ 9107 9098 9097 9095 ] final  100.45 input   60.00 | X-H torsion
[ 9133 9125 9126 9127 ] final -161.25 input   87.39 | X-H torsion
[ 9211 9202 9203 9204 ] final  136.43 input  119.00 | X-H torsion
[ 3596 3592 3593 3594 ] final  -76.88 input   87.50 | X-H torsion
[ 9003 8997 8998 8999 ] final   50.78 input   29.71 | X-H torsion
[ 9159 9155 9156 9157 ] final  166.87 input  127.29 | X-H torsion
[ 11075 11068 11069 11070 ] final  146.35 input   56.03 | X-H torsion
[ 4893 4888 4887 4884 ] final  -12.78 input   60.01 | X-H torsion
[ 9007 9002 9001 8998 ] final  -90.25 input   59.98 | X-H torsion
[ 8973 8962 8963 8964 ] final   69.78 input   50.05 | X-H torsion
[ 8507 8501 8502 8503 ] final   29.66 input   53.62 | X-H torsion
[ 4912 4907 4908 4909 ] final   52.06 input   25.27 | X-H torsion
[ 8353 8344 8343 8341 ] final   30.10 input   59.99 | X-H torsion
[ 5556 5551 5550 5547 ] final  158.03 input   59.99 | X-H torsion
[ 5580 5571 5572 5573 ] final -124.71 input   51.16 | X-H torsion
[ 9375 9363 9364 9365 ] final   96.43 input  121.73 | X-H torsion
[ 9247 9231 9232 9233 ] final  -23.51 input   97.49 | X-H torsion
[ 5552 5546 5547 5548 ] final   82.91 input   98.49 | X-H torsion
[ 5612 5604 5605 5606 ] final  -69.36 input  122.00 | X-H torsion
[ 8533 8525 8526 8527 ] final  137.18 input   68.51 | X-H torsion
[ 8511 8506 8505 8502 ] final  121.69 input   59.98 | X-H torsion
[ 9185 9178 9176 9173 ] final  -57.03 input   60.02 | X-H torsion
[ 9272 9265 9266 9267 ] final -102.39 input  106.17 | X-H torsion
[ 9298 9282 9283 9284 ] final  -51.34 input   76.97 | X-H torsion
[ 9342 9318 9319 9320 ] final  -79.46 input  100.94 | X-H torsion
[ 9412 9391 9392 9393 ] final  173.61 input   95.23 | X-H torsion
[ 12897 12888 12887 12885 ] final  -31.98 input   60.01 | X-H torsion
[ 13469 13450 13449 13445 ] final  152.28 input   59.98 | X-H torsion
[ 3570 3563 3564 3565 ] final   82.17 input   99.66 | X-H torsion
[ 13485 8425 8424 8423 ] final  -38.54 input    0.00 | X-H torsion
[ 13489 8965 8964 8963 ] final   85.15 input    0.00 | X-H torsion
[ 13492 9020 9019 9018 ] final  130.13 input   -0.00 | X-H torsion
[ 13495 9044 9043 9042 ] final   27.45 input    0.00 | X-H torsion
[ 13498 9090 9089 9088 ] final   37.40 input    0.00 | X-H torsion
[ 13503 9128 9127 9126 ] final  -79.65 input    0.00 | X-H torsion
[ 13516 9000 8999 8998 ] final   78.06 input    0.00 | X-H torsion
[ 13518 8370 8369 8368 ] final   99.24 input    0.00 | X-H torsion
[ 13522 11071 11070 11069 ] final  130.08 input   -0.00 | X-H torsion
[ 13526 8388 8387 8386 ] final  -92.23 input    0.00 | X-H torsion
[ 13530 8451 8450 8449 ] final  -47.18 input    0.00 | X-H torsion
[ 13532 8473 8472 8471 ] final -131.70 input    0.00 | X-H torsion
[ 13539 4910 4909 4908 ] final   25.71 input   -0.00 | X-H torsion
[ 13543 5549 5548 5547 ] final  -89.49 input    0.00 | X-H torsion
[ 13547 9205 9204 9203 ] final   -3.75 input   -0.00 | X-H torsion
[ 13556 5645 5644 5643 ] final  -78.40 input   -0.00 | X-H torsion
[ 13562 9321 9320 9319 ] final  142.36 input    0.00 | X-H torsion
[ 13567 5574 5573 5572 ] final   93.22 input    0.00 | X-H torsion
[ 13571 5523 5522 5521 ] final   85.88 input    0.00 | X-H torsion
[ 13573 6144 6143 6142 ] final  178.54 input    0.00 | X-H torsion
[ 13577 9175 9174 9173 ] final   10.26 input    0.00 | X-H torsion
[ 13581 9234 9233 9232 ] final   64.65 input    0.00 | X-H torsion
[ 13585 9285 9284 9283 ] final   29.80 input    0.00 | X-H torsion
[ 13592 9366 9365 9364 ] final  114.01 input   -0.00 | X-H torsion

> <Gold.Protein.ActiveResidues>
 TRP311  MET341  HIS342  TRP414  ARG419  CYS420  VAL421  GLY422  LEU429  LEU460 
 SER462  ALA463  ILE464  ASN481  SER482  GLN483  LEU484  ILE485  ARG486  ASP500 
 ALA502  ASN503  TRP566  TYR567  GLY568  LEU569  PRO570  ALA571  VAL572  SER573 
 ASN574  MET575  PRO588  PHE589  SER590  GLY591  TRP592  TYR593  MET594  GLY595 
 THR596  GLU597  ILE598  GLY599  VAL600  ARG601  ASP602  TYR603  ASP605  ARG608 
 ILE653  VAL654  TRP683  PRO687  SER691  PHE696  HIS697  TYR711  HEM750  H4B760 

> <Gold.Protein.RotatedAtoms>
  121.7927  248.8317  329.2751 H   0  0  0  0  0  0  0  0  0  0  0  0  # atno 3570 bound_to 3563
  124.6988  248.9972  328.7938 H   0  0  0  0  0  0  0  0  0  0  0  0  # atno 3596 bound_to 3592
  124.9483  246.3203  318.4351 H   0  0  0  0  0  0  0  0  0  0  0  0  # atno 4893 bound_to 4888
  122.1169  247.5003  315.3817 H   0  0  0  0  0  0  0  0  0  0  0  0  # atno 4912 bound_to 4907
  106.1619  244.6295  318.6981 H   0  0  0  0  0  0  0  0  0  0  0  0  # atno 5552 bound_to 5546
  106.9021  244.2115  322.2216 H   0  0  0  0  0  0  0  0  0  0  0  0  # atno 5556 bound_to 5551
  108.8486  245.6439  319.2875 H   0  0  0  0  0  0  0  0  0  0  0  0  # atno 5580 bound_to 5571
  110.3394  243.8767  316.8346 H   0  0  0  0  0  0  0  0  0  0  0  0  # atno 5612 bound_to 5604
  111.1796  238.1586  322.3014 H   0  0  0  0  0  0  0  0  0  0  0  0  # atno 8353 bound_to 8344
  116.2402  243.7017  319.7550 H   0  0  0  0  0  0  0  0  0  0  0  0  # atno 8453 bound_to 8448
  114.3691  245.6980  319.1493 H   0  0  0  0  0  0  0  0  0  0  0  0  # atno 8477 bound_to 8470
  110.9144  248.1036  319.0503 H   0  0  0  0  0  0  0  0  0  0  0  0  # atno 8507 bound_to 8501
  108.8610  246.8785  315.9999 H   0  0  0  0  0  0  0  0  0  0  0  0  # atno 8511 bound_to 8506
  109.4031  249.1183  318.8351 H   0  0  0  0  0  0  0  0  0  0  0  0  # atno 8533 bound_to 8525
  115.2466  249.8092  316.9370 H   0  0  0  0  0  0  0  0  0  0  0  0  # atno 8973 bound_to 8962
  119.4109  248.1191  316.3398 H   0  0  0  0  0  0  0  0  0  0  0  0  # atno 9003 bound_to 8997
  119.3092  245.9880  314.6977 H   0  0  0  0  0  0  0  0  0  0  0  0  # atno 9007 bound_to 9002
  120.6119  246.1852  318.3787 H   0  0  0  0  0  0  0  0  0  0  0  0  # atno 9021 bound_to 9017
  121.8497  243.5907  320.5021 H   0  0  0  0  0  0  0  0  0  0  0  0  # atno 9055 bound_to 9041
  121.5266  241.1339  322.2602 H   0  0  0  0  0  0  0  0  0  0  0  0  # atno 9099 bound_to 9087
  114.8686  240.1257  322.2731 H   0  0  0  0  0  0  0  0  0  0  0  0  # atno 9107 bound_to 9098
  122.3147  241.2611  325.9049 H   0  0  0  0  0  0  0  0  0  0  0  0  # atno 9133 bound_to 9125
  123.0594  238.0447  328.3716 H   0  0  0  0  0  0  0  0  0  0  0  0  # atno 9159 bound_to 9155
  120.7976  239.8337  331.9281 H   0  0  0  0  0  0  0  0  0  0  0  0  # atno 9185 bound_to 9178
  118.9405  239.4746  329.8755 H   0  0  0  0  0  0  0  0  0  0  0  0  # atno 9211 bound_to 9202
  116.4878  237.7691  329.4630 H   0  0  0  0  0  0  0  0  0  0  0  0  # atno 9247 bound_to 9231
  116.0038  234.9447  329.2271 H   0  0  0  0  0  0  0  0  0  0  0  0  # atno 9272 bound_to 9265
  115.4159  235.1004  331.9755 H   0  0  0  0  0  0  0  0  0  0  0  0  # atno 9298 bound_to 9282
  113.7087  237.0376  333.2699 H   0  0  0  0  0  0  0  0  0  0  0  0  # atno 9342 bound_to 9318
  113.0906  237.4093  330.1150 H   0  0  0  0  0  0  0  0  0  0  0  0  # atno 9375 bound_to 9363
  112.2113  234.7256  329.3347 H   0  0  0  0  0  0  0  0  0  0  0  0  # atno 9412 bound_to 9391
  125.9746  239.0850  325.1227 H   0  0  0  0  0  0  0  0  0  0  0  0  # atno 11075 bound_to 11068
  111.1901  251.8172  328.9104 H   0  0  0  0  0  0  0  0  0  0  0  0  # atno 12897 bound_to 12888
  108.9411  247.0067  337.9386 H   0  0  0  0  0  0  0  0  0  0  0  0  # atno 13469 bound_to 13450
  118.4860  244.1350  320.0294 LP  0  0  0  0  0  0  0  0  0  0  0  0  # atno 13485 bound_to 8425
  117.9610  244.5630  318.4353 LP  0  0  0  0  0  0  0  0  0  0  0  0  # atno 13486 bound_to 8425
  115.1853  242.7571  318.7326 LP  0  0  0  0  0  0  0  0  0  0  0  0  # atno 13487 bound_to 8448
  115.2959  247.1316  318.7686 LP  0  0  0  0  0  0  0  0  0  0  0  0  # atno 13488 bound_to 8470
  116.0769  247.0062  317.2833 LP  0  0  0  0  0  0  0  0  0  0  0  0  # atno 13489 bound_to 8965
  116.5862  247.7354  318.7695 LP  0  0  0  0  0  0  0  0  0  0  0  0  # atno 13490 bound_to 8965
  120.0694  244.6881  319.1027 LP  0  0  0  0  0  0  0  0  0  0  0  0  # atno 13491 bound_to 9017
  122.8988  242.1544  318.2946 LP  0  0  0  0  0  0  0  0  0  0  0  0  # atno 13492 bound_to 9020
  121.3526  242.8794  318.0052 LP  0  0  0  0  0  0  0  0  0  0  0  0  # atno 13493 bound_to 9020
  123.5894  243.7145  320.6542 LP  0  0  0  0  0  0  0  0  0  0  0  0  # atno 13494 bound_to 9041
  122.2065  243.5667  322.8546 LP  0  0  0  0  0  0  0  0  0  0  0  0  # atno 13495 bound_to 9044
  122.4082  242.5449  324.2385 LP  0  0  0  0  0  0  0  0  0  0  0  0  # atno 13496 bound_to 9044
  122.7293  239.9382  322.6855 LP  0  0  0  0  0  0  0  0  0  0  0  0  # atno 13497 bound_to 9087
  123.8468  239.8559  324.4026 LP  0  0  0  0  0  0  0  0  0  0  0  0  # atno 13498 bound_to 9090
  123.7329  239.1618  325.9854 LP  0  0  0  0  0  0  0  0  0  0  0  0  # atno 13499 bound_to 9090
  114.4906  239.7067  323.7992 LP  0  0  0  0  0  0  0  0  0  0  0  0  # atno 13500 bound_to 9098
  114.6510  238.5579  322.6498 LP  0  0  0  0  0  0  0  0  0  0  0  0  # atno 13501 bound_to 9098
  120.8320  240.4190  326.2929 LP  0  0  0  0  0  0  0  0  0  0  0  0  # atno 13502 bound_to 9125
  119.7122  239.6665  328.8711 LP  0  0  0  0  0  0  0  0  0  0  0  0  # atno 13503 bound_to 9128
  119.7875  238.6948  327.4392 LP  0  0  0  0  0  0  0  0  0  0  0  0  # atno 13504 bound_to 9128
  117.9095  238.3851  330.7670 LP  0  0  0  0  0  0  0  0  0  0  0  0  # atno 13505 bound_to 9202
  123.3386  248.8170  327.7144 LP  0  0  0  0  0  0  0  0  0  0  0  0  # atno 13514 bound_to 3592
  118.0329  248.2237  317.4007 LP  0  0  0  0  0  0  0  0  0  0  0  0  # atno 13515 bound_to 8997
  121.4835  247.9431  317.8102 LP  0  0  0  0  0  0  0  0  0  0  0  0  # atno 13516 bound_to 9000
  122.0067  246.6541  316.7784 LP  0  0  0  0  0  0  0  0  0  0  0  0  # atno 13517 bound_to 9000
  120.9200  238.3621  318.7801 LP  0  0  0  0  0  0  0  0  0  0  0  0  # atno 13518 bound_to 8370
  119.9368  238.1348  320.1878 LP  0  0  0  0  0  0  0  0  0  0  0  0  # atno 13519 bound_to 8370
  121.6728  238.9197  328.9826 LP  0  0  0  0  0  0  0  0  0  0  0  0  # atno 13520 bound_to 9155
  125.4397  237.7312  326.0822 LP  0  0  0  0  0  0  0  0  0  0  0  0  # atno 13521 bound_to 11068
  124.4105  238.0475  328.9342 LP  0  0  0  0  0  0  0  0  0  0  0  0  # atno 13522 bound_to 11071
  124.5448  239.6583  328.3119 LP  0  0  0  0  0  0  0  0  0  0  0  0  # atno 13523 bound_to 11071
  124.8735  247.6899  319.3114 LP  0  0  0  0  0  0  0  0  0  0  0  0  # atno 13524 bound_to 4888
  126.2773  247.2443  318.6061 LP  0  0  0  0  0  0  0  0  0  0  0  0  # atno 13525 bound_to 4888
  115.8018  240.9295  317.4321 LP  0  0  0  0  0  0  0  0  0  0  0  0  # atno 13526 bound_to 8388
  115.5787  239.5552  318.4623 LP  0  0  0  0  0  0  0  0  0  0  0  0  # atno 13527 bound_to 8388
  119.7325  244.4454  314.9958 LP  0  0  0  0  0  0  0  0  0  0  0  0  # atno 13528 bound_to 9002
  120.5435  245.6702  315.7092 LP  0  0  0  0  0  0  0  0  0  0  0  0  # atno 13529 bound_to 9002
  113.0033  245.0078  317.0633 LP  0  0  0  0  0  0  0  0  0  0  0  0  # atno 13530 bound_to 8451
  112.3617  245.2376  318.6557 LP  0  0  0  0  0  0  0  0  0  0  0  0  # atno 13531 bound_to 8451
  113.2912  250.1179  317.7002 LP  0  0  0  0  0  0  0  0  0  0  0  0  # atno 13532 bound_to 8473
  114.4188  248.8214  317.4824 LP  0  0  0  0  0  0  0  0  0  0  0  0  # atno 13533 bound_to 8473
  115.5923  249.6471  315.2311 LP  0  0  0  0  0  0  0  0  0  0  0  0  # atno 13534 bound_to 8962
  112.4659  248.0647  318.2543 LP  0  0  0  0  0  0  0  0  0  0  0  0  # atno 13535 bound_to 8501
  123.6770  248.2659  315.2134 LP  0  0  0  0  0  0  0  0  0  0  0  0  # atno 13538 bound_to 4907
  120.6266  248.6964  315.7513 LP  0  0  0  0  0  0  0  0  0  0  0  0  # atno 13539 bound_to 4910
  119.2552  249.4183  314.9780 LP  0  0  0  0  0  0  0  0  0  0  0  0  # atno 13540 bound_to 4910
  109.8914  247.3683  319.1073 LP  0  0  0  0  0  0  0  0  0  0  0  0  # atno 13543 bound_to 5549
  109.9586  246.7063  320.7064 LP  0  0  0  0  0  0  0  0  0  0  0  0  # atno 13544 bound_to 5549
  111.0232  239.3030  321.1548 LP  0  0  0  0  0  0  0  0  0  0  0  0  # atno 13545 bound_to 8344
  112.2840  239.3490  322.1916 LP  0  0  0  0  0  0  0  0  0  0  0  0  # atno 13546 bound_to 8344
  114.3217  239.3771  329.6638 LP  0  0  0  0  0  0  0  0  0  0  0  0  # atno 13547 bound_to 9205
  114.1279  237.8481  328.8734 LP  0  0  0  0  0  0  0  0  0  0  0  0  # atno 13548 bound_to 9205
  107.7604  244.1297  320.8413 LP  0  0  0  0  0  0  0  0  0  0  0  0  # atno 13553 bound_to 5551
  106.1419  243.9141  320.8137 LP  0  0  0  0  0  0  0  0  0  0  0  0  # atno 13554 bound_to 5551
  108.1632  244.0706  318.9246 LP  0  0  0  0  0  0  0  0  0  0  0  0  # atno 13555 bound_to 5571
  112.1566  239.3053  318.7206 LP  0  0  0  0  0  0  0  0  0  0  0  0  # atno 13556 bound_to 5645
  111.0521  240.6362  318.8142 LP  0  0  0  0  0  0  0  0  0  0  0  0  # atno 13557 bound_to 5645
  111.6116  238.0100  330.8312 LP  0  0  0  0  0  0  0  0  0  0  0  0  # atno 13560 bound_to 9363
  117.0892  237.9895  327.8338 LP  0  0  0  0  0  0  0  0  0  0  0  0  # atno 13561 bound_to 9231
  109.6619  237.5153  330.9771 LP  0  0  0  0  0  0  0  0  0  0  0  0  # atno 13562 bound_to 9321
  110.2071  237.1744  332.5854 LP  0  0  0  0  0  0  0  0  0  0  0  0  # atno 13563 bound_to 9321
  106.1828  246.1264  317.7993 LP  0  0  0  0  0  0  0  0  0  0  0  0  # atno 13566 bound_to 5546
  108.3924  243.7206  316.3097 LP  0  0  0  0  0  0  0  0  0  0  0  0  # atno 13567 bound_to 5574
  108.9594  242.1996  316.9138 LP  0  0  0  0  0  0  0  0  0  0  0  0  # atno 13568 bound_to 5574
  112.0642  244.1425  316.7290 LP  0  0  0  0  0  0  0  0  0  0  0  0  # atno 13569 bound_to 5604
  110.2523  250.5220  318.2452 LP  0  0  0  0  0  0  0  0  0  0  0  0  # atno 13570 bound_to 8525
  106.4058  248.0973  317.2225 LP  0  0  0  0  0  0  0  0  0  0  0  0  # atno 13571 bound_to 5523
  107.8695  247.2449  316.8608 LP  0  0  0  0  0  0  0  0  0  0  0  0  # atno 13572 bound_to 5523
  102.0228  242.0948  323.9719 LP  0  0  0  0  0  0  0  0  0  0  0  0  # atno 13573 bound_to 6144
  102.4730  242.4425  325.6079 LP  0  0  0  0  0  0  0  0  0  0  0  0  # atno 13574 bound_to 6144
  109.5077  247.0851  317.4793 LP  0  0  0  0  0  0  0  0  0  0  0  0  # atno 13575 bound_to 8506
  110.1737  246.0203  316.4356 LP  0  0  0  0  0  0  0  0  0  0  0  0  # atno 13576 bound_to 8506
  116.7346  237.8056  332.6730 LP  0  0  0  0  0  0  0  0  0  0  0  0  # atno 13577 bound_to 9175
  115.9287  238.4395  331.2770 LP  0  0  0  0  0  0  0  0  0  0  0  0  # atno 13578 bound_to 9175
  120.3297  240.5595  333.3075 LP  0  0  0  0  0  0  0  0  0  0  0  0  # atno 13579 bound_to 9178
  119.3049  240.4728  332.0391 LP  0  0  0  0  0  0  0  0  0  0  0  0  # atno 13580 bound_to 9178
  113.9541  234.3734  328.9063 LP  0  0  0  0  0  0  0  0  0  0  0  0  # atno 13581 bound_to 9234
  114.0009  235.2503  330.3993 LP  0  0  0  0  0  0  0  0  0  0  0  0  # atno 13582 bound_to 9234
  117.3162  235.7724  330.0365 LP  0  0  0  0  0  0  0  0  0  0  0  0  # atno 13583 bound_to 9265
  116.8052  236.0224  332.4921 LP  0  0  0  0  0  0  0  0  0  0  0  0  # atno 13584 bound_to 9282
  112.7548  235.9515  334.9067 LP  0  0  0  0  0  0  0  0  0  0  0  0  # atno 13585 bound_to 9285
  111.8494  236.3838  333.4949 LP  0  0  0  0  0  0  0  0  0  0  0  0  # atno 13586 bound_to 9285
  114.5769  238.0517  332.1421 LP  0  0  0  0  0  0  0  0  0  0  0  0  # atno 13587 bound_to 9318
  111.3718  235.4182  330.7030 LP  0  0  0  0  0  0  0  0  0  0  0  0  # atno 13588 bound_to 9391
  109.4421  234.2972  328.6991 LP  0  0  0  0  0  0  0  0  0  0  0  0  # atno 13592 bound_to 9366
  108.8690  235.5423  329.7580 LP  0  0  0  0  0  0  0  0  0  0  0  0  # atno 13593 bound_to 9366
  111.1717  252.9956  330.0324 LP  0  0  0  0  0  0  0  0  0  0  0  0  # atno 13594 bound_to 12888
  112.2747  253.0275  328.8287 LP  0  0  0  0  0  0  0  0  0  0  0  0  # atno 13595 bound_to 12888
  110.4194  246.5691  337.4165 LP  0  0  0  0  0  0  0  0  0  0  0  0  # atno 13596 bound_to 13450
  109.1299  246.4464  336.4221 LP  0  0  0  0  0  0  0  0  0  0  0  0  # atno 13597 bound_to 13450

> <Gold.Score>
     Fitness  S(hb_ext) S(vdw_ext)  S(hb_int)    S(int)      intcor
     36.78       7.79      21.32       0.00      -0.33      -0.76

> <Gold.Goldscore.Fitness>
36.7775

> <Gold.Goldscore.Internal.Vdw>
-0.5867

> <Gold.Goldscore.Internal.Torsion>
-0.4994

> <Gold.Goldscore.External.Vdw>
21.3210

> <Gold.Goldscore.Internal.HBond>
0.0000

> <Gold.Goldscore.External.HBond>
7.7887

> <Gold.Goldscore.Internal.Correction>
-0.7585

> <Gold.Goldscore.Hbonds>
donor molecule, donor type, donor heavy atom, donor atom, acceptor molecule, acceptor atom, score
      P1  H  5693  5706       L1    17  0.15
      P1  H  9538  9550       L1    17  1.00
      L1  H    10    23       P1  9098  0.46

> <Gold.Goldscore.Internal.Vdw.Weighted>
-0.5867

> <Gold.Goldscore.Internal.Torsion.Weighted>
-0.4994

> <Gold.Goldscore.External.Vdw.Weighted>
29.3163

> <Gold.Goldscore.Internal.HBond.Weighted>
0.0000

> <Gold.Goldscore.External.HBond.Weighted>
7.7887

> <Gold.Goldscore.Internal.Correction.Weighted>
-0.7585

> <Gold.Rescore>
     Score     S(PLP)   S(hbond)     S(cho)   S(metal)  DE(clash)   DE(tors)     intcor
     22.94     -19.61       1.12       0.00       0.00       0.00       0.02       ----

> <Gold.PLP.Fitness>
22.9376

> <Gold.PLP.PLP>
-19.6112

> <Gold.PLP.part.hbond>
-5.3327

> <Gold.PLP.part.metal>
0.0000

> <Gold.PLP.part.buried>
1.8916

> <Gold.PLP.part.nonpolar>
-21.7982

> <Gold.PLP.part.repulsive>
6.5200

> <Gold.PLP.ligand.clash>
0.0000

> <Gold.PLP.ligand.torsion>
0.0172

> <Gold.PLP.Chemscore.Hbond>
1.1202

> <Gold.PLP.Chemscore.CHOScore>
0.0000

> <Gold.PLP.Chemscore.Metal>
0.0000

> <Gold.Chemscore.Hbonds>
donor molecule, donor type, donor heavy atom, donor atom, acceptor molecule, acceptor atom, score
      P1  H  9538  9550       L1    17  0.93

> <Gold.PLP.Chemscore.Internal.Correction>
   9.000000E+99

