#       Name:                CT1002167954
#       Creating user name   hitesit
#       Creation time:       Sun Apr 16 22:52:03 2023


#       File generated by GOLD software.
#

@<TRIPOS>MOLECULE
CT1002167954|ligand_prepared|mol2|1|dock1
    29    30     1
SMALL
NO_CHARGES


@<TRIPOS>ATOM
      1 C1         112.9785 242.5227 326.3825 C.3            1 RES1               0.0000
      2 C2         112.4566 242.6000 327.8318 C.ar           1 RES1               0.0000
      3 C3         113.4548 241.0881 326.1747 C.2            1 RES1               0.0000
      4 C4         111.8127 242.9271 325.4871 C.2            1 RES1               0.0000
      5 C5         114.1585 243.4790 326.0915 C.3            1 RES1               0.0000
      6 C6         111.1502 242.2286 328.1352 C.ar           1 RES1               0.0000
      7 C7         113.2690 243.0374 328.8745 C.ar           1 RES1               0.0000
      8 N8         112.6804 240.2704 325.4055 N.am           1 RES1               0.0000
      9 O9         114.4738 240.6692 326.7099 O.2            1 RES1               0.0000
     10 N10        111.2881 241.9787 324.6485 N.am           1 RES1               0.0000
     11 O11        111.3327 244.0537 325.5121 O.2            1 RES1               0.0000
     12 C12        114.5102 243.5876 324.6162 C.3            1 RES1               0.0000
     13 C13        110.6740 242.2894 329.4344 C.ar           1 RES1               0.0000
     14 C14        112.7907 243.0976 330.1730 C.ar           1 RES1               0.0000
     15 C15        111.6491 240.6602 324.5893 C.2            1 RES1               0.0000
     16 C16        111.4939 242.7235 330.4541 C.ar           1 RES1               0.0000
     17 O17        111.0932 239.8553 323.8475 O.2            1 RES1               0.0000
     18 H18        113.9050 244.4775 326.4685 H              1 RES1               0.0000
     19 H19        115.0412 243.1277 326.6400 H              1 RES1               0.0000
     20 H20        110.4895 241.8868 327.3454 H              1 RES1               0.0000
     21 H21        114.2923 243.3378 328.6766 H              1 RES1               0.0000
     22 H22        112.8872 239.2773 325.4404 H              1 RES1               0.0000
     23 H23        110.5612 242.2839 324.0091 H              1 RES1               0.0000
     24 H24        115.3440 244.2706 324.4677 H              1 RES1               0.0000
     25 H25        114.7919 242.6166 324.2143 H              1 RES1               0.0000
     26 H26        113.6624 243.9583 324.0438 H              1 RES1               0.0000
     27 H27        109.6522 241.9951 329.6502 H              1 RES1               0.0000
     28 H28        113.4394 243.4405 330.9724 H              1 RES1               0.0000
     29 H29        111.1208 242.7706 331.4719 H              1 RES1               0.0000
@<TRIPOS>BOND
    1    1    2 1     
    2    1    3 1     
    3    1    4 1     
    4    1    5 1     
    5    2    6 ar    
    6    2    7 ar    
    7    3    8 1     
    8    3    9 2     
    9    4   10 1     
   10    4   11 2     
   11    5   12 1     
   12    5   18 1     
   13    5   19 1     
   14    6   13 ar    
   15    6   20 1     
   16    7   14 ar    
   17    7   21 1     
   18    8   15 1     
   19    8   22 1     
   20   10   15 1     
   21   10   23 1     
   22   12   24 1     
   23   12   25 1     
   24   12   26 1     
   25   13   16 ar    
   26   13   27 1     
   27   14   16 ar    
   28   14   28 1     
   29   15   17 2     
   30   16   29 1     
@<TRIPOS>SUBSTRUCTURE
      1 RES1           1
@<TRIPOS>SET
DONOR_HYDROGENS      STATIC     ATOMS    <user>   **** ""
2 22 23
ATOM$RED        STATIC     ATOMS    COLORGROUP SYSTEM
2 22 23
@<TRIPOS>COMMENT
> <Gold.Version>
2022.3.0

> <Gold.Id.Protein>
unknown|4uh6_clean|pdb

> <Gold.Protein.RotatedTorsions>
[ 8453 8448 8449 8450 ] final -151.10 input   43.75 | X-H torsion
[ 8477 8470 8471 8472 ] final   33.12 input  101.27 | X-H torsion
[ 9021 9017 9018 9019 ] final   37.99 input   41.82 | X-H torsion
[ 9055 9041 9042 9043 ] final -133.21 input   38.00 | X-H torsion
[ 9099 9087 9088 9089 ] final  109.85 input   99.63 | X-H torsion
[ 9107 9098 9097 9095 ] final   63.17 input   60.00 | X-H torsion
[ 9133 9125 9126 9127 ] final  145.33 input   87.39 | X-H torsion
[ 9211 9202 9203 9204 ] final  -21.28 input  119.00 | X-H torsion
[ 3596 3592 3593 3594 ] final  -54.33 input   87.50 | X-H torsion
[ 9003 8997 8998 8999 ] final   28.53 input   29.71 | X-H torsion
[ 9159 9155 9156 9157 ] final  168.32 input  127.29 | X-H torsion
[ 11075 11068 11069 11070 ] final   51.64 input   56.03 | X-H torsion
[ 4893 4888 4887 4884 ] final    1.22 input   60.01 | X-H torsion
[ 9007 9002 9001 8998 ] final -170.38 input   59.98 | X-H torsion
[ 8973 8962 8963 8964 ] final  -55.89 input   50.05 | X-H torsion
[ 8507 8501 8502 8503 ] final   62.11 input   53.62 | X-H torsion
[ 4912 4907 4908 4909 ] final   78.75 input   25.27 | X-H torsion
[ 8353 8344 8343 8341 ] final -150.16 input   59.99 | X-H torsion
[ 5556 5551 5550 5547 ] final  -42.59 input   59.99 | X-H torsion
[ 5580 5571 5572 5573 ] final  -65.29 input   51.16 | X-H torsion
[ 9375 9363 9364 9365 ] final -176.88 input  121.73 | X-H torsion
[ 9247 9231 9232 9233 ] final    9.12 input   97.49 | X-H torsion
[ 5552 5546 5547 5548 ] final  140.75 input   98.49 | X-H torsion
[ 5612 5604 5605 5606 ] final   30.67 input  122.00 | X-H torsion
[ 8533 8525 8526 8527 ] final  -74.78 input   68.51 | X-H torsion
[ 8511 8506 8505 8502 ] final   36.18 input   59.98 | X-H torsion
[ 9185 9178 9176 9173 ] final   12.28 input   60.02 | X-H torsion
[ 9272 9265 9266 9267 ] final  -49.86 input  106.17 | X-H torsion
[ 9298 9282 9283 9284 ] final  122.01 input   76.97 | X-H torsion
[ 9342 9318 9319 9320 ] final   36.27 input  100.94 | X-H torsion
[ 9412 9391 9392 9393 ] final  -81.97 input   95.23 | X-H torsion
[ 12897 12888 12887 12885 ] final  156.92 input   60.01 | X-H torsion
[ 13469 13450 13449 13445 ] final  111.98 input   59.98 | X-H torsion
[ 3570 3563 3564 3565 ] final  -22.80 input   99.66 | X-H torsion
[ 13485 8425 8424 8423 ] final -161.86 input    0.00 | X-H torsion
[ 13489 8965 8964 8963 ] final  103.89 input    0.00 | X-H torsion
[ 13492 9020 9019 9018 ] final -118.34 input   -0.00 | X-H torsion
[ 13495 9044 9043 9042 ] final  -91.63 input    0.00 | X-H torsion
[ 13498 9090 9089 9088 ] final   54.54 input    0.00 | X-H torsion
[ 13503 9128 9127 9126 ] final    3.14 input    0.00 | X-H torsion
[ 13516 9000 8999 8998 ] final -166.30 input    0.00 | X-H torsion
[ 13518 8370 8369 8368 ] final  -10.22 input    0.00 | X-H torsion
[ 13522 11071 11070 11069 ] final  166.90 input   -0.00 | X-H torsion
[ 13526 8388 8387 8386 ] final  -98.87 input    0.00 | X-H torsion
[ 13530 8451 8450 8449 ] final  159.83 input    0.00 | X-H torsion
[ 13532 8473 8472 8471 ] final  165.09 input    0.00 | X-H torsion
[ 13539 4910 4909 4908 ] final -151.17 input   -0.00 | X-H torsion
[ 13543 5549 5548 5547 ] final   65.44 input    0.00 | X-H torsion
[ 13547 9205 9204 9203 ] final -169.36 input   -0.00 | X-H torsion
[ 13556 5645 5644 5643 ] final -103.40 input   -0.00 | X-H torsion
[ 13562 9321 9320 9319 ] final -130.13 input    0.00 | X-H torsion
[ 13567 5574 5573 5572 ] final   44.13 input    0.00 | X-H torsion
[ 13571 5523 5522 5521 ] final  -65.55 input    0.00 | X-H torsion
[ 13573 6144 6143 6142 ] final  163.59 input    0.00 | X-H torsion
[ 13577 9175 9174 9173 ] final  -86.65 input    0.00 | X-H torsion
[ 13581 9234 9233 9232 ] final   46.91 input    0.00 | X-H torsion
[ 13585 9285 9284 9283 ] final -165.34 input    0.00 | X-H torsion
[ 13592 9366 9365 9364 ] final -158.33 input   -0.00 | X-H torsion

> <Gold.Protein.ActiveResidues>
 TRP311  MET341  HIS342  TRP414  ARG419  CYS420  VAL421  GLY422  LEU429  LEU460 
 SER462  ALA463  ILE464  ASN481  SER482  GLN483  LEU484  ILE485  ARG486  ASP500 
 ALA502  ASN503  TRP566  TYR567  GLY568  LEU569  PRO570  ALA571  VAL572  SER573 
 ASN574  MET575  PRO588  PHE589  SER590  GLY591  TRP592  TYR593  MET594  GLY595 
 THR596  GLU597  ILE598  GLY599  VAL600  ARG601  ASP602  TYR603  ASP605  ARG608 
 ILE653  VAL654  TRP683  PRO687  SER691  PHE696  HIS697  TYR711  HEM750  H4B760 

> <Gold.Protein.RotatedAtoms>
  122.4643  249.9400  328.7247 H   0  0  0  0  0  0  0  0  0  0  0  0  # atno 3570 bound_to 3563
  124.6771  249.3134  328.6595 H   0  0  0  0  0  0  0  0  0  0  0  0  # atno 3596 bound_to 3592
  125.1555  246.2812  318.3475 H   0  0  0  0  0  0  0  0  0  0  0  0  # atno 4893 bound_to 4888
  122.3179  247.2499  315.1325 H   0  0  0  0  0  0  0  0  0  0  0  0  # atno 4912 bound_to 4907
  105.5350  245.1930  318.8217 H   0  0  0  0  0  0  0  0  0  0  0  0  # atno 5552 bound_to 5546
  106.6380  243.9270  320.4204 H   0  0  0  0  0  0  0  0  0  0  0  0  # atno 5556 bound_to 5551
  108.5375  245.4765  318.4719 H   0  0  0  0  0  0  0  0  0  0  0  0  # atno 5580 bound_to 5571
  111.5078  243.2318  317.0806 H   0  0  0  0  0  0  0  0  0  0  0  0  # atno 5612 bound_to 5604
  111.8149  239.7101  321.4665 H   0  0  0  0  0  0  0  0  0  0  0  0  # atno 8353 bound_to 8344
  116.5791  243.2599  319.1076 H   0  0  0  0  0  0  0  0  0  0  0  0  # atno 8453 bound_to 8448
  115.0760  247.0697  318.3967 H   0  0  0  0  0  0  0  0  0  0  0  0  # atno 8477 bound_to 8470
  110.9311  247.6804  318.8032 H   0  0  0  0  0  0  0  0  0  0  0  0  # atno 8507 bound_to 8501
  109.0818  247.2888  317.1834 H   0  0  0  0  0  0  0  0  0  0  0  0  # atno 8511 bound_to 8506
  110.0308  250.3389  317.8604 H   0  0  0  0  0  0  0  0  0  0  0  0  # atno 8533 bound_to 8525
  115.4543  248.9653  315.6230 H   0  0  0  0  0  0  0  0  0  0  0  0  # atno 8973 bound_to 8962
  119.5515  248.2520  316.6161 H   0  0  0  0  0  0  0  0  0  0  0  0  # atno 9003 bound_to 8997
  119.3073  244.7838  314.6565 H   0  0  0  0  0  0  0  0  0  0  0  0  # atno 9007 bound_to 9002
  120.0464  244.7596  319.2552 H   0  0  0  0  0  0  0  0  0  0  0  0  # atno 9021 bound_to 9017
  122.3282  243.4352  319.8182 H   0  0  0  0  0  0  0  0  0  0  0  0  # atno 9055 bound_to 9041
  121.9124  239.7006  322.2530 H   0  0  0  0  0  0  0  0  0  0  0  0  # atno 9099 bound_to 9087
  114.7728  240.3896  322.8016 H   0  0  0  0  0  0  0  0  0  0  0  0  # atno 9107 bound_to 9098
  121.7545  241.6797  326.2865 H   0  0  0  0  0  0  0  0  0  0  0  0  # atno 9133 bound_to 9125
  123.0504  238.0453  328.3510 H   0  0  0  0  0  0  0  0  0  0  0  0  # atno 9159 bound_to 9155
  119.8258  240.0799  331.5685 H   0  0  0  0  0  0  0  0  0  0  0  0  # atno 9185 bound_to 9178
  117.9780  238.1881  330.5016 H   0  0  0  0  0  0  0  0  0  0  0  0  # atno 9211 bound_to 9202
  116.9203  237.5193  329.4380 H   0  0  0  0  0  0  0  0  0  0  0  0  # atno 9247 bound_to 9231
  115.7983  235.5016  329.7440 H   0  0  0  0  0  0  0  0  0  0  0  0  # atno 9272 bound_to 9265
  116.7811  236.1053  332.4370 H   0  0  0  0  0  0  0  0  0  0  0  0  # atno 9298 bound_to 9282
  114.1726  237.2620  331.8639 H   0  0  0  0  0  0  0  0  0  0  0  0  # atno 9342 bound_to 9318
  112.4206  238.4119  329.9348 H   0  0  0  0  0  0  0  0  0  0  0  0  # atno 9375 bound_to 9363
  110.9604  235.2064  329.7367 H   0  0  0  0  0  0  0  0  0  0  0  0  # atno 9412 bound_to 9391
  125.0293  238.8321  325.9614 H   0  0  0  0  0  0  0  0  0  0  0  0  # atno 11075 bound_to 11068
  111.7955  253.3947  329.7035 H   0  0  0  0  0  0  0  0  0  0  0  0  # atno 12897 bound_to 12888
  109.5511  246.9737  338.1465 H   0  0  0  0  0  0  0  0  0  0  0  0  # atno 13469 bound_to 13450
  117.6991  245.0183  319.0678 LP  0  0  0  0  0  0  0  0  0  0  0  0  # atno 13485 bound_to 8425
  118.7479  243.6798  319.3969 LP  0  0  0  0  0  0  0  0  0  0  0  0  # atno 13486 bound_to 8425
  114.8532  243.1902  319.3672 LP  0  0  0  0  0  0  0  0  0  0  0  0  # atno 13487 bound_to 8448
  114.6080  245.7967  319.5010 LP  0  0  0  0  0  0  0  0  0  0  0  0  # atno 13488 bound_to 8470
  116.2630  246.8122  317.3682 LP  0  0  0  0  0  0  0  0  0  0  0  0  # atno 13489 bound_to 8965
  116.4001  247.9295  318.6846 LP  0  0  0  0  0  0  0  0  0  0  0  0  # atno 13490 bound_to 8965
  120.6186  246.0728  318.2513 LP  0  0  0  0  0  0  0  0  0  0  0  0  # atno 13491 bound_to 9017
  121.4975  242.1110  318.5866 LP  0  0  0  0  0  0  0  0  0  0  0  0  # atno 13492 bound_to 9020
  122.7538  242.9228  317.7133 LP  0  0  0  0  0  0  0  0  0  0  0  0  # atno 13493 bound_to 9020
  123.1266  243.8649  321.3158 LP  0  0  0  0  0  0  0  0  0  0  0  0  # atno 13494 bound_to 9041
  123.1080  242.8668  323.8170 LP  0  0  0  0  0  0  0  0  0  0  0  0  # atno 13495 bound_to 9044
  121.5067  243.2448  323.2760 LP  0  0  0  0  0  0  0  0  0  0  0  0  # atno 13496 bound_to 9044
  122.3535  241.3345  322.6925 LP  0  0  0  0  0  0  0  0  0  0  0  0  # atno 13497 bound_to 9087
  123.9500  240.0504  324.5374 LP  0  0  0  0  0  0  0  0  0  0  0  0  # atno 13498 bound_to 9090
  123.6297  238.9673  325.8506 LP  0  0  0  0  0  0  0  0  0  0  0  0  # atno 13499 bound_to 9090
  114.4515  239.1072  323.7502 LP  0  0  0  0  0  0  0  0  0  0  0  0  # atno 13500 bound_to 9098
  114.7866  238.8916  322.1666 LP  0  0  0  0  0  0  0  0  0  0  0  0  # atno 13501 bound_to 9098
  121.3772  240.0116  325.9215 LP  0  0  0  0  0  0  0  0  0  0  0  0  # atno 13502 bound_to 9125
  119.8090  239.9521  327.7661 LP  0  0  0  0  0  0  0  0  0  0  0  0  # atno 13503 bound_to 9128
  119.6907  238.4091  328.5442 LP  0  0  0  0  0  0  0  0  0  0  0  0  # atno 13504 bound_to 9128
  118.8582  239.6532  330.1499 LP  0  0  0  0  0  0  0  0  0  0  0  0  # atno 13505 bound_to 9202
  123.3600  248.5060  327.8464 LP  0  0  0  0  0  0  0  0  0  0  0  0  # atno 13514 bound_to 3592
  117.8933  248.0916  317.1262 LP  0  0  0  0  0  0  0  0  0  0  0  0  # atno 13515 bound_to 8997
  122.3667  246.7891  317.6169 LP  0  0  0  0  0  0  0  0  0  0  0  0  # atno 13516 bound_to 9000
  121.1235  247.8080  316.9717 LP  0  0  0  0  0  0  0  0  0  0  0  0  # atno 13517 bound_to 9000
  120.6520  237.5092  319.8757 LP  0  0  0  0  0  0  0  0  0  0  0  0  # atno 13518 bound_to 8370
  120.2048  238.9877  319.0922 LP  0  0  0  0  0  0  0  0  0  0  0  0  # atno 13519 bound_to 8370
  121.6815  238.9190  329.0026 LP  0  0  0  0  0  0  0  0  0  0  0  0  # atno 13520 bound_to 9155
  126.3756  237.9815  325.2518 LP  0  0  0  0  0  0  0  0  0  0  0  0  # atno 13521 bound_to 11068
  124.5047  238.3870  329.3526 LP  0  0  0  0  0  0  0  0  0  0  0  0  # atno 13522 bound_to 11071
  124.4506  239.3187  327.8935 LP  0  0  0  0  0  0  0  0  0  0  0  0  # atno 13523 bound_to 11071
  124.7022  247.5419  319.2718 LP  0  0  0  0  0  0  0  0  0  0  0  0  # atno 13524 bound_to 4888
  126.2401  247.4317  318.7339 LP  0  0  0  0  0  0  0  0  0  0  0  0  # atno 13525 bound_to 4888
  115.7801  240.9858  317.5123 LP  0  0  0  0  0  0  0  0  0  0  0  0  # atno 13526 bound_to 8388
  115.6003  239.4989  318.3821 LP  0  0  0  0  0  0  0  0  0  0  0  0  # atno 13527 bound_to 8388
  120.5425  245.0278  315.6872 LP  0  0  0  0  0  0  0  0  0  0  0  0  # atno 13528 bound_to 9002
  119.7355  246.3010  315.0593 LP  0  0  0  0  0  0  0  0  0  0  0  0  # atno 13529 bound_to 9002
  112.3144  245.5997  318.4816 LP  0  0  0  0  0  0  0  0  0  0  0  0  # atno 13530 bound_to 8451
  113.0506  244.6458  317.2374 LP  0  0  0  0  0  0  0  0  0  0  0  0  # atno 13531 bound_to 8451
  113.2455  249.5631  316.9832 LP  0  0  0  0  0  0  0  0  0  0  0  0  # atno 13532 bound_to 8473
  114.4645  249.3762  318.1994 LP  0  0  0  0  0  0  0  0  0  0  0  0  # atno 13533 bound_to 8473
  115.3899  250.4694  316.5115 LP  0  0  0  0  0  0  0  0  0  0  0  0  # atno 13534 bound_to 8962
  112.4494  248.4828  318.4984 LP  0  0  0  0  0  0  0  0  0  0  0  0  # atno 13535 bound_to 8501
  123.4795  248.5120  315.4584 LP  0  0  0  0  0  0  0  0  0  0  0  0  # atno 13538 bound_to 4907
  119.2485  249.3778  314.9550 LP  0  0  0  0  0  0  0  0  0  0  0  0  # atno 13539 bound_to 4910
  120.6334  248.7369  315.7743 LP  0  0  0  0  0  0  0  0  0  0  0  0  # atno 13540 bound_to 4910
  109.6975  246.9745  320.7401 LP  0  0  0  0  0  0  0  0  0  0  0  0  # atno 13543 bound_to 5549
  110.1526  247.1001  319.0736 LP  0  0  0  0  0  0  0  0  0  0  0  0  # atno 13544 bound_to 5549
  111.9629  238.5650  322.6135 LP  0  0  0  0  0  0  0  0  0  0  0  0  # atno 13545 bound_to 8344
  110.7046  238.5250  321.5735 LP  0  0  0  0  0  0  0  0  0  0  0  0  # atno 13546 bound_to 8344
  114.1531  237.7716  329.0748 LP  0  0  0  0  0  0  0  0  0  0  0  0  # atno 13547 bound_to 9205
  114.2965  239.4536  329.4623 LP  0  0  0  0  0  0  0  0  0  0  0  0  # atno 13548 bound_to 9205
  106.3168  244.1024  322.0061 LP  0  0  0  0  0  0  0  0  0  0  0  0  # atno 13553 bound_to 5551
  107.8514  244.2277  321.4624 LP  0  0  0  0  0  0  0  0  0  0  0  0  # atno 13554 bound_to 5551
  108.4605  244.2305  319.7040 LP  0  0  0  0  0  0  0  0  0  0  0  0  # atno 13555 bound_to 5571
  111.8812  239.1672  318.9342 LP  0  0  0  0  0  0  0  0  0  0  0  0  # atno 13556 bound_to 5645
  111.3275  240.7742  318.6007 LP  0  0  0  0  0  0  0  0  0  0  0  0  # atno 13557 bound_to 5645
  112.2613  237.0377  331.0059 LP  0  0  0  0  0  0  0  0  0  0  0  0  # atno 13560 bound_to 9363
  116.6712  238.2310  327.8580 LP  0  0  0  0  0  0  0  0  0  0  0  0  # atno 13561 bound_to 9231
  110.0739  236.5307  331.5209 LP  0  0  0  0  0  0  0  0  0  0  0  0  # atno 13562 bound_to 9321
  109.7951  238.1590  332.0416 LP  0  0  0  0  0  0  0  0  0  0  0  0  # atno 13563 bound_to 9321
  106.7984  245.5730  317.6779 LP  0  0  0  0  0  0  0  0  0  0  0  0  # atno 13566 bound_to 5546
  108.2231  243.5900  316.9967 LP  0  0  0  0  0  0  0  0  0  0  0  0  # atno 13567 bound_to 5574
  109.1287  242.3301  316.2269 LP  0  0  0  0  0  0  0  0  0  0  0  0  # atno 13568 bound_to 5574
  110.9259  244.7708  316.4894 LP  0  0  0  0  0  0  0  0  0  0  0  0  # atno 13569 bound_to 5604
  109.6302  249.3122  319.2113 LP  0  0  0  0  0  0  0  0  0  0  0  0  # atno 13570 bound_to 8525
  107.6618  247.2607  316.4877 LP  0  0  0  0  0  0  0  0  0  0  0  0  # atno 13571 bound_to 5523
  106.6135  248.0815  317.5956 LP  0  0  0  0  0  0  0  0  0  0  0  0  # atno 13572 bound_to 5523
  102.2430  242.1255  323.9358 LP  0  0  0  0  0  0  0  0  0  0  0  0  # atno 13573 bound_to 6144
  102.2528  242.4118  325.6440 LP  0  0  0  0  0  0  0  0  0  0  0  0  # atno 13574 bound_to 6144
  110.2707  246.2006  316.9557 LP  0  0  0  0  0  0  0  0  0  0  0  0  # atno 13575 bound_to 8506
  109.1885  246.4919  315.7681 LP  0  0  0  0  0  0  0  0  0  0  0  0  # atno 13576 bound_to 8506
  116.2602  237.3732  331.5467 LP  0  0  0  0  0  0  0  0  0  0  0  0  # atno 13577 bound_to 9175
  116.4030  238.8719  332.4033 LP  0  0  0  0  0  0  0  0  0  0  0  0  # atno 13578 bound_to 9175
  121.0198  240.0382  332.6737 LP  0  0  0  0  0  0  0  0  0  0  0  0  # atno 13579 bound_to 9178
  119.5933  240.7462  333.0350 LP  0  0  0  0  0  0  0  0  0  0  0  0  # atno 13580 bound_to 9178
  113.8552  234.6062  328.8205 LP  0  0  0  0  0  0  0  0  0  0  0  0  # atno 13581 bound_to 9234
  114.0998  235.0175  330.4851 LP  0  0  0  0  0  0  0  0  0  0  0  0  # atno 13582 bound_to 9234
  117.5151  235.2335  329.5363 LP  0  0  0  0  0  0  0  0  0  0  0  0  # atno 13583 bound_to 9265
  115.4621  235.0338  332.0381 LP  0  0  0  0  0  0  0  0  0  0  0  0  # atno 13584 bound_to 9282
  111.8229  236.5798  333.6088 LP  0  0  0  0  0  0  0  0  0  0  0  0  # atno 13585 bound_to 9285
  112.7813  235.7555  334.7928 LP  0  0  0  0  0  0  0  0  0  0  0  0  # atno 13586 bound_to 9285
  114.1238  237.8326  333.5150 LP  0  0  0  0  0  0  0  0  0  0  0  0  # atno 13587 bound_to 9318
  112.5915  234.9494  330.3111 LP  0  0  0  0  0  0  0  0  0  0  0  0  # atno 13588 bound_to 9391
  109.2008  234.3432  329.8731 LP  0  0  0  0  0  0  0  0  0  0  0  0  # atno 13592 bound_to 9366
  109.1103  235.4964  328.5839 LP  0  0  0  0  0  0  0  0  0  0  0  0  # atno 13593 bound_to 9366
  112.0109  252.3401  328.4831 LP  0  0  0  0  0  0  0  0  0  0  0  0  # atno 13594 bound_to 12888
  110.8257  252.0940  329.5792 LP  0  0  0  0  0  0  0  0  0  0  0  0  # atno 13595 bound_to 12888
  110.2721  246.3846  336.8114 LP  0  0  0  0  0  0  0  0  0  0  0  0  # atno 13596 bound_to 13450
  108.6632  246.6640  336.8179 LP  0  0  0  0  0  0  0  0  0  0  0  0  # atno 13597 bound_to 13450

> <Gold.Score>
     Fitness  S(hb_ext) S(vdw_ext)  S(hb_int)    S(int)      intcor
     41.39       4.39      27.06       0.00      -0.21      -0.79

> <Gold.Goldscore.Fitness>
41.3869

> <Gold.Goldscore.Internal.Vdw>
-0.4624

> <Gold.Goldscore.Internal.Torsion>
-0.5326

> <Gold.Goldscore.External.Vdw>
27.0623

> <Gold.Goldscore.Internal.HBond>
0.0000

> <Gold.Goldscore.External.HBond>
4.3853

> <Gold.Goldscore.Internal.Correction>
-0.7859

> <Gold.Goldscore.Hbonds>
donor molecule, donor type, donor heavy atom, donor atom, acceptor molecule, acceptor atom, score
      P1  H  5690  5702       L1    17  0.47
      P1  H  5693  5706       L1    17  0.04
      L1  H     8    22       P1  9370  0.22

> <Gold.Goldscore.Internal.Vdw.Weighted>
-0.4624

> <Gold.Goldscore.Internal.Torsion.Weighted>
-0.5326

> <Gold.Goldscore.External.Vdw.Weighted>
37.2107

> <Gold.Goldscore.Internal.HBond.Weighted>
0.0000

> <Gold.Goldscore.External.HBond.Weighted>
4.3853

> <Gold.Goldscore.Internal.Correction.Weighted>
-0.7859

> <Gold.Rescore>
     Score     S(PLP)   S(hbond)     S(cho)   S(metal)  DE(clash)   DE(tors)     intcor
     14.34     -12.98       1.18       0.00       0.00       0.00       1.10       ----

> <Gold.PLP.Fitness>
14.3427

> <Gold.PLP.PLP>
-12.9823

> <Gold.PLP.part.hbond>
-4.2954

> <Gold.PLP.part.metal>
0.0000

> <Gold.PLP.part.buried>
11.1686

> <Gold.PLP.part.nonpolar>
-23.9339

> <Gold.PLP.part.repulsive>
4.3305

> <Gold.PLP.ligand.clash>
0.0000

> <Gold.PLP.ligand.torsion>
1.0958

> <Gold.PLP.Chemscore.Hbond>
1.1840

> <Gold.PLP.Chemscore.CHOScore>
0.0000

> <Gold.PLP.Chemscore.Metal>
0.0000

> <Gold.Chemscore.Hbonds>
donor molecule, donor type, donor heavy atom, donor atom, acceptor molecule, acceptor atom, score
      L1  H     8    22       P1  9370  0.56
      P1  H  5690  5702       L1    17  0.59

> <Gold.PLP.Chemscore.Internal.Correction>
   9.000000E+99

