#       Name:                CT1002167954
#       Creating user name   hitesit
#       Creation time:       Sun Apr 16 22:52:04 2023


#       File generated by GOLD software.
#

@<TRIPOS>MOLECULE
CT1002167954|ligand_prepared|mol2|1|dock2
    29    30     1
SMALL
NO_CHARGES


@<TRIPOS>ATOM
      1 C1         113.1684 243.0999 326.1554 C.3            1 RES1               0.0000
      2 C2         114.2325 244.0673 325.5979 C.ar           1 RES1               0.0000
      3 C3         112.2978 242.6918 324.9707 C.2            1 RES1               0.0000
      4 C4         113.9336 241.9451 326.7922 C.2            1 RES1               0.0000
      5 C5         112.2607 243.7268 327.2392 C.3            1 RES1               0.0000
      6 C6         115.3623 243.5797 324.9479 C.ar           1 RES1               0.0000
      7 C7         114.0971 245.4473 325.7235 C.ar           1 RES1               0.0000
      8 N8         112.4565 241.4314 324.4745 N.am           1 RES1               0.0000
      9 O9         111.5122 243.4770 324.4545 O.2            1 RES1               0.0000
     10 N10        113.8113 240.7036 326.2251 N.am           1 RES1               0.0000
     11 O11        114.6544 242.1022 327.7700 O.2            1 RES1               0.0000
     12 C12        111.4263 242.7107 328.0030 C.3            1 RES1               0.0000
     13 C13        116.3207 244.4405 324.4391 C.ar           1 RES1               0.0000
     14 C14        115.0568 246.3064 325.2141 C.ar           1 RES1               0.0000
     15 C15        113.1318 240.4004 325.0768 C.2            1 RES1               0.0000
     16 C16        116.1684 245.8043 324.5715 C.ar           1 RES1               0.0000
     17 O17        113.1130 239.2698 324.5988 O.2            1 RES1               0.0000
     18 H18        112.8888 244.2752 327.9519 H              1 RES1               0.0000
     19 H19        111.5871 244.4488 326.7612 H              1 RES1               0.0000
     20 H20        115.5005 242.5094 324.8364 H              1 RES1               0.0000
     21 H21        113.2313 245.8648 326.2262 H              1 RES1               0.0000
     22 H22        112.0340 241.2375 323.5721 H              1 RES1               0.0000
     23 H23        114.2692 239.9342 326.7033 H              1 RES1               0.0000
     24 H24        110.8081 243.2031 328.7506 H              1 RES1               0.0000
     25 H25        110.7710 242.1641 327.3280 H              1 RES1               0.0000
     26 H26        112.0650 241.9915 328.5117 H              1 RES1               0.0000
     27 H27        117.1943 244.0403 323.9354 H              1 RES1               0.0000
     28 H28        114.9332 247.3790 325.3211 H              1 RES1               0.0000
     29 H29        116.9191 246.4785 324.1725 H              1 RES1               0.0000
@<TRIPOS>BOND
    1    1    2 1     
    2    1    3 1     
    3    1    4 1     
    4    1    5 1     
    5    2    6 ar    
    6    2    7 ar    
    7    3    8 1     
    8    3    9 2     
    9    4   10 1     
   10    4   11 2     
   11    5   12 1     
   12    5   18 1     
   13    5   19 1     
   14    6   13 ar    
   15    6   20 1     
   16    7   14 ar    
   17    7   21 1     
   18    8   15 1     
   19    8   22 1     
   20   10   15 1     
   21   10   23 1     
   22   12   24 1     
   23   12   25 1     
   24   12   26 1     
   25   13   16 ar    
   26   13   27 1     
   27   14   16 ar    
   28   14   28 1     
   29   15   17 2     
   30   16   29 1     
@<TRIPOS>SUBSTRUCTURE
      1 RES1           1
@<TRIPOS>SET
DONOR_HYDROGENS      STATIC     ATOMS    <user>   **** ""
2 22 23
ATOM$RED        STATIC     ATOMS    COLORGROUP SYSTEM
2 22 23
@<TRIPOS>COMMENT
> <Gold.Version>
2022.3.0

> <Gold.Id.Protein>
unknown|4uh6_clean|pdb

> <Gold.Protein.RotatedTorsions>
[ 8453 8448 8449 8450 ] final  -66.88 input   43.75 | X-H torsion
[ 8477 8470 8471 8472 ] final  170.94 input  101.27 | X-H torsion
[ 9021 9017 9018 9019 ] final  141.33 input   41.82 | X-H torsion
[ 9055 9041 9042 9043 ] final   33.09 input   38.00 | X-H torsion
[ 9099 9087 9088 9089 ] final   85.94 input   99.63 | X-H torsion
[ 9107 9098 9097 9095 ] final   63.98 input   60.00 | X-H torsion
[ 9133 9125 9126 9127 ] final   24.16 input   87.39 | X-H torsion
[ 9211 9202 9203 9204 ] final  141.51 input  119.00 | X-H torsion
[ 3596 3592 3593 3594 ] final  -33.20 input   87.50 | X-H torsion
[ 9003 8997 8998 8999 ] final  -18.24 input   29.71 | X-H torsion
[ 9159 9155 9156 9157 ] final   41.24 input  127.29 | X-H torsion
[ 11075 11068 11069 11070 ] final  -56.90 input   56.03 | X-H torsion
[ 4893 4888 4887 4884 ] final   17.23 input   60.01 | X-H torsion
[ 9007 9002 9001 8998 ] final  -28.87 input   59.98 | X-H torsion
[ 8973 8962 8963 8964 ] final  -88.23 input   50.05 | X-H torsion
[ 8507 8501 8502 8503 ] final  -89.91 input   53.62 | X-H torsion
[ 4912 4907 4908 4909 ] final -108.84 input   25.27 | X-H torsion
[ 8353 8344 8343 8341 ] final  120.39 input   59.99 | X-H torsion
[ 5556 5551 5550 5547 ] final  -28.81 input   59.99 | X-H torsion
[ 5580 5571 5572 5573 ] final  159.72 input   51.16 | X-H torsion
[ 9375 9363 9364 9365 ] final  -82.22 input  121.73 | X-H torsion
[ 9247 9231 9232 9233 ] final  -37.24 input   97.49 | X-H torsion
[ 5552 5546 5547 5548 ] final   49.72 input   98.49 | X-H torsion
[ 5612 5604 5605 5606 ] final  108.19 input  122.00 | X-H torsion
[ 8533 8525 8526 8527 ] final   98.13 input   68.51 | X-H torsion
[ 8511 8506 8505 8502 ] final   12.26 input   59.98 | X-H torsion
[ 9185 9178 9176 9173 ] final   79.58 input   60.02 | X-H torsion
[ 9272 9265 9266 9267 ] final -128.65 input  106.17 | X-H torsion
[ 9298 9282 9283 9284 ] final -146.67 input   76.97 | X-H torsion
[ 9342 9318 9319 9320 ] final  138.86 input  100.94 | X-H torsion
[ 9412 9391 9392 9393 ] final -122.86 input   95.23 | X-H torsion
[ 12897 12888 12887 12885 ] final -178.21 input   60.01 | X-H torsion
[ 13469 13450 13449 13445 ] final   21.79 input   59.98 | X-H torsion
[ 3570 3563 3564 3565 ] final  -46.71 input   99.66 | X-H torsion
[ 13485 8425 8424 8423 ] final  -62.14 input    0.00 | X-H torsion
[ 13489 8965 8964 8963 ] final   96.71 input    0.00 | X-H torsion
[ 13492 9020 9019 9018 ] final  150.13 input   -0.00 | X-H torsion
[ 13495 9044 9043 9042 ] final  -30.79 input    0.00 | X-H torsion
[ 13498 9090 9089 9088 ] final  112.41 input    0.00 | X-H torsion
[ 13503 9128 9127 9126 ] final  134.85 input    0.00 | X-H torsion
[ 13516 9000 8999 8998 ] final -142.19 input    0.00 | X-H torsion
[ 13518 8370 8369 8368 ] final  104.08 input    0.00 | X-H torsion
[ 13522 11071 11070 11069 ] final  -80.29 input   -0.00 | X-H torsion
[ 13526 8388 8387 8386 ] final -106.61 input    0.00 | X-H torsion
[ 13530 8451 8450 8449 ] final   -5.90 input    0.00 | X-H torsion
[ 13532 8473 8472 8471 ] final   49.34 input    0.00 | X-H torsion
[ 13539 4910 4909 4908 ] final   83.07 input   -0.00 | X-H torsion
[ 13543 5549 5548 5547 ] final  136.34 input    0.00 | X-H torsion
[ 13547 9205 9204 9203 ] final  -15.54 input   -0.00 | X-H torsion
[ 13556 5645 5644 5643 ] final -173.67 input   -0.00 | X-H torsion
[ 13562 9321 9320 9319 ] final   15.04 input    0.00 | X-H torsion
[ 13567 5574 5573 5572 ] final  -38.02 input    0.00 | X-H torsion
[ 13571 5523 5522 5521 ] final  -59.04 input    0.00 | X-H torsion
[ 13573 6144 6143 6142 ] final -114.20 input    0.00 | X-H torsion
[ 13577 9175 9174 9173 ] final  -58.04 input    0.00 | X-H torsion
[ 13581 9234 9233 9232 ] final -115.25 input    0.00 | X-H torsion
[ 13585 9285 9284 9283 ] final   20.80 input    0.00 | X-H torsion
[ 13592 9366 9365 9364 ] final  137.45 input   -0.00 | X-H torsion

> <Gold.Protein.ActiveResidues>
 TRP311  MET341  HIS342  TRP414  ARG419  CYS420  VAL421  GLY422  LEU429  LEU460 
 SER462  ALA463  ILE464  ASN481  SER482  GLN483  LEU484  ILE485  ARG486  ASP500 
 ALA502  ASN503  TRP566  TYR567  GLY568  LEU569  PRO570  ALA571  VAL572  SER573 
 ASN574  MET575  PRO588  PHE589  SER590  GLY591  TRP592  TYR593  MET594  GLY595 
 THR596  GLU597  ILE598  GLY599  VAL600  ARG601  ASP602  TYR603  ASP605  ARG608 
 ILE653  VAL654  TRP683  PRO687  SER691  PHE696  HIS697  TYR711  HEM750  H4B760 

> <Gold.Protein.RotatedAtoms>
  122.4772  250.2393  328.9376 H   0  0  0  0  0  0  0  0  0  0  0  0  # atno 3570 bound_to 3563
  124.5640  249.5541  328.4766 H   0  0  0  0  0  0  0  0  0  0  0  0  # atno 3596 bound_to 3592
  125.4070  246.2949  318.2793 H   0  0  0  0  0  0  0  0  0  0  0  0  # atno 4893 bound_to 4888
  123.5634  248.4611  315.3954 H   0  0  0  0  0  0  0  0  0  0  0  0  # atno 4912 bound_to 4907
  106.5719  244.6164  318.4065 H   0  0  0  0  0  0  0  0  0  0  0  0  # atno 5552 bound_to 5546
  106.8563  243.9487  320.3713 H   0  0  0  0  0  0  0  0  0  0  0  0  # atno 5556 bound_to 5551
  108.7658  244.7755  319.9556 H   0  0  0  0  0  0  0  0  0  0  0  0  # atno 5580 bound_to 5571
  112.0920  244.1076  316.7323 H   0  0  0  0  0  0  0  0  0  0  0  0  # atno 5612 bound_to 5604
  112.2203  238.9647  322.4750 H   0  0  0  0  0  0  0  0  0  0  0  0  # atno 8353 bound_to 8344
  115.8769  243.7666  319.9137 H   0  0  0  0  0  0  0  0  0  0  0  0  # atno 8453 bound_to 8448
  115.0102  246.1843  319.7922 H   0  0  0  0  0  0  0  0  0  0  0  0  # atno 8477 bound_to 8470
  112.2544  248.7512  318.7590 H   0  0  0  0  0  0  0  0  0  0  0  0  # atno 8507 bound_to 8501
  109.3706  247.1672  317.4127 H   0  0  0  0  0  0  0  0  0  0  0  0  # atno 8511 bound_to 8506
  109.7057  249.3621  319.2728 H   0  0  0  0  0  0  0  0  0  0  0  0  # atno 8533 bound_to 8525
  115.5579  249.3213  315.2980 H   0  0  0  0  0  0  0  0  0  0  0  0  # atno 8973 bound_to 8962
  119.4398  248.4748  317.2635 H   0  0  0  0  0  0  0  0  0  0  0  0  # atno 9003 bound_to 8997
  120.0039  246.2819  315.2840 H   0  0  0  0  0  0  0  0  0  0  0  0  # atno 9007 bound_to 9002
  120.2941  246.1291  319.2852 H   0  0  0  0  0  0  0  0  0  0  0  0  # atno 9021 bound_to 9017
  122.9417  243.8636  321.4189 H   0  0  0  0  0  0  0  0  0  0  0  0  # atno 9055 bound_to 9041
  122.2401  239.6511  322.4105 H   0  0  0  0  0  0  0  0  0  0  0  0  # atno 9099 bound_to 9087
  114.7755  240.3877  322.7888 H   0  0  0  0  0  0  0  0  0  0  0  0  # atno 9107 bound_to 9098
  120.7894  240.4758  326.3424 H   0  0  0  0  0  0  0  0  0  0  0  0  # atno 9133 bound_to 9125
  122.2207  238.7183  329.5296 H   0  0  0  0  0  0  0  0  0  0  0  0  # atno 9159 bound_to 9155
  119.2672  240.5813  332.2851 H   0  0  0  0  0  0  0  0  0  0  0  0  # atno 9185 bound_to 9178
  118.9314  239.5254  329.9337 H   0  0  0  0  0  0  0  0  0  0  0  0  # atno 9211 bound_to 9202
  116.3269  237.8892  329.3925 H   0  0  0  0  0  0  0  0  0  0  0  0  # atno 9247 bound_to 9231
  116.3327  234.7672  329.0737 H   0  0  0  0  0  0  0  0  0  0  0  0  # atno 9272 bound_to 9265
  116.4719  234.9167  332.7126 H   0  0  0  0  0  0  0  0  0  0  0  0  # atno 9298 bound_to 9282
  114.5993  238.3097  332.6544 H   0  0  0  0  0  0  0  0  0  0  0  0  # atno 9342 bound_to 9318
  111.5790  237.9939  330.8420 H   0  0  0  0  0  0  0  0  0  0  0  0  # atno 9375 bound_to 9363
  111.3107  234.9617  329.2897 H   0  0  0  0  0  0  0  0  0  0  0  0  # atno 9412 bound_to 9391
  125.7082  237.5833  325.9096 H   0  0  0  0  0  0  0  0  0  0  0  0  # atno 11075 bound_to 11068
  111.4864  253.2628  329.9262 H   0  0  0  0  0  0  0  0  0  0  0  0  # atno 12897 bound_to 12888
  110.4184  246.5146  337.2535 H   0  0  0  0  0  0  0  0  0  0  0  0  # atno 13469 bound_to 13450
  118.2818  244.4174  320.0937 LP  0  0  0  0  0  0  0  0  0  0  0  0  # atno 13485 bound_to 8425
  118.1652  244.2807  318.3710 LP  0  0  0  0  0  0  0  0  0  0  0  0  # atno 13486 bound_to 8425
  115.5415  242.6935  318.5770 LP  0  0  0  0  0  0  0  0  0  0  0  0  # atno 13487 bound_to 8448
  114.6720  246.6584  318.1430 LP  0  0  0  0  0  0  0  0  0  0  0  0  # atno 13488 bound_to 8470
  116.1897  246.8805  317.3268 LP  0  0  0  0  0  0  0  0  0  0  0  0  # atno 13489 bound_to 8965
  116.4733  247.8611  318.7260 LP  0  0  0  0  0  0  0  0  0  0  0  0  # atno 13490 bound_to 8965
  120.3781  244.7426  318.2221 LP  0  0  0  0  0  0  0  0  0  0  0  0  # atno 13491 bound_to 9017
  122.7254  241.9781  318.4660 LP  0  0  0  0  0  0  0  0  0  0  0  0  # atno 13492 bound_to 9020
  121.5259  243.0558  317.8338 LP  0  0  0  0  0  0  0  0  0  0  0  0  # atno 13493 bound_to 9020
  122.5332  243.4506  319.7674 LP  0  0  0  0  0  0  0  0  0  0  0  0  # atno 13494 bound_to 9041
  122.9855  243.3825  323.1182 LP  0  0  0  0  0  0  0  0  0  0  0  0  # atno 13495 bound_to 9044
  121.6292  242.7291  323.9748 LP  0  0  0  0  0  0  0  0  0  0  0  0  # atno 13496 bound_to 9044
  122.0343  241.3827  322.5392 LP  0  0  0  0  0  0  0  0  0  0  0  0  # atno 13497 bound_to 9087
  124.1512  240.2864  325.3158 LP  0  0  0  0  0  0  0  0  0  0  0  0  # atno 13498 bound_to 9090
  123.4285  238.7313  325.0721 LP  0  0  0  0  0  0  0  0  0  0  0  0  # atno 13499 bound_to 9090
  114.4514  239.1195  323.7553 LP  0  0  0  0  0  0  0  0  0  0  0  0  # atno 13500 bound_to 9098
  114.7840  238.8811  322.1744 LP  0  0  0  0  0  0  0  0  0  0  0  0  # atno 13501 bound_to 9098
  122.3164  241.1832  325.8672 LP  0  0  0  0  0  0  0  0  0  0  0  0  # atno 13502 bound_to 9125
  119.7444  238.3745  327.8386 LP  0  0  0  0  0  0  0  0  0  0  0  0  # atno 13503 bound_to 9128
  119.7553  239.9867  328.4717 LP  0  0  0  0  0  0  0  0  0  0  0  0  # atno 13504 bound_to 9128
  117.9185  238.3350  330.7096 LP  0  0  0  0  0  0  0  0  0  0  0  0  # atno 13505 bound_to 9202
  123.4711  248.2694  328.0263 LP  0  0  0  0  0  0  0  0  0  0  0  0  # atno 13514 bound_to 3592
  118.0042  247.8703  316.4831 LP  0  0  0  0  0  0  0  0  0  0  0  0  # atno 13515 bound_to 8997
  122.3092  246.6415  317.2917 LP  0  0  0  0  0  0  0  0  0  0  0  0  # atno 13516 bound_to 9000
  121.1810  247.9557  317.2969 LP  0  0  0  0  0  0  0  0  0  0  0  0  # atno 13517 bound_to 9000
  120.8836  238.4245  318.7686 LP  0  0  0  0  0  0  0  0  0  0  0  0  # atno 13518 bound_to 8370
  119.9732  238.0725  320.1993 LP  0  0  0  0  0  0  0  0  0  0  0  0  # atno 13519 bound_to 8370
  122.4859  238.2666  327.8600 LP  0  0  0  0  0  0  0  0  0  0  0  0  # atno 13520 bound_to 9155
  125.7035  239.2179  325.3031 LP  0  0  0  0  0  0  0  0  0  0  0  0  # atno 13521 bound_to 11068
  124.6037  239.6986  328.7599 LP  0  0  0  0  0  0  0  0  0  0  0  0  # atno 13522 bound_to 11071
  124.3515  238.0071  328.4861 LP  0  0  0  0  0  0  0  0  0  0  0  0  # atno 13523 bound_to 11071
  124.5551  247.3398  319.1913 LP  0  0  0  0  0  0  0  0  0  0  0  0  # atno 13524 bound_to 4888
  126.1341  247.6200  318.8831 LP  0  0  0  0  0  0  0  0  0  0  0  0  # atno 13525 bound_to 4888
  115.7535  241.0388  317.6130 LP  0  0  0  0  0  0  0  0  0  0  0  0  # atno 13526 bound_to 8388
  115.6270  239.4459  318.2814 LP  0  0  0  0  0  0  0  0  0  0  0  0  # atno 13527 bound_to 8388
  119.1724  245.0901  314.5521 LP  0  0  0  0  0  0  0  0  0  0  0  0  # atno 13528 bound_to 9002
  120.4037  244.7294  315.5622 LP  0  0  0  0  0  0  0  0  0  0  0  0  # atno 13529 bound_to 9002
  113.0431  244.4923  317.3878 LP  0  0  0  0  0  0  0  0  0  0  0  0  # atno 13530 bound_to 8451
  112.3219  245.7532  318.3312 LP  0  0  0  0  0  0  0  0  0  0  0  0  # atno 13531 bound_to 8451
  114.4116  248.8175  317.4692 LP  0  0  0  0  0  0  0  0  0  0  0  0  # atno 13532 bound_to 8473
  113.2984  250.1218  317.7134 LP  0  0  0  0  0  0  0  0  0  0  0  0  # atno 13533 bound_to 8473
  115.2889  250.1225  316.8282 LP  0  0  0  0  0  0  0  0  0  0  0  0  # atno 13534 bound_to 8962
  111.1424  247.4251  318.5420 LP  0  0  0  0  0  0  0  0  0  0  0  0  # atno 13535 bound_to 8501
  122.2552  247.3215  315.1999 LP  0  0  0  0  0  0  0  0  0  0  0  0  # atno 13538 bound_to 4907
  120.4308  249.4822  315.9387 LP  0  0  0  0  0  0  0  0  0  0  0  0  # atno 13539 bound_to 4910
  119.4510  248.6325  314.7907 LP  0  0  0  0  0  0  0  0  0  0  0  0  # atno 13540 bound_to 4910
  110.3852  246.4053  320.2794 LP  0  0  0  0  0  0  0  0  0  0  0  0  # atno 13543 bound_to 5549
  109.4648  247.6693  319.5343 LP  0  0  0  0  0  0  0  0  0  0  0  0  # atno 13544 bound_to 5549
  110.8574  238.2441  321.9535 LP  0  0  0  0  0  0  0  0  0  0  0  0  # atno 13545 bound_to 8344
  111.4021  239.5964  321.2180 LP  0  0  0  0  0  0  0  0  0  0  0  0  # atno 13546 bound_to 8344
  114.3379  239.2783  329.8109 LP  0  0  0  0  0  0  0  0  0  0  0  0  # atno 13547 bound_to 9205
  114.1117  237.9469  328.7263 LP  0  0  0  0  0  0  0  0  0  0  0  0  # atno 13548 bound_to 9205
  106.1674  244.0600  321.8415 LP  0  0  0  0  0  0  0  0  0  0  0  0  # atno 13553 bound_to 5551
  107.7811  244.2482  321.6765 LP  0  0  0  0  0  0  0  0  0  0  0  0  # atno 13554 bound_to 5551
  108.2424  244.9005  318.2861 LP  0  0  0  0  0  0  0  0  0  0  0  0  # atno 13555 bound_to 5571
  111.0265  239.5597  319.2646 LP  0  0  0  0  0  0  0  0  0  0  0  0  # atno 13556 bound_to 5645
  112.1822  240.3817  318.2703 LP  0  0  0  0  0  0  0  0  0  0  0  0  # atno 13557 bound_to 5645
  113.0775  237.4431  330.1262 LP  0  0  0  0  0  0  0  0  0  0  0  0  # atno 13560 bound_to 9363
  117.2448  237.8734  327.9019 LP  0  0  0  0  0  0  0  0  0  0  0  0  # atno 13561 bound_to 9231
  109.9794  237.8954  332.4482 LP  0  0  0  0  0  0  0  0  0  0  0  0  # atno 13562 bound_to 9321
  109.8896  236.7943  331.1143 LP  0  0  0  0  0  0  0  0  0  0  0  0  # atno 13563 bound_to 9321
  105.7802  246.1393  318.0857 LP  0  0  0  0  0  0  0  0  0  0  0  0  # atno 13566 bound_to 5546
  108.5970  242.5899  317.3907 LP  0  0  0  0  0  0  0  0  0  0  0  0  # atno 13567 bound_to 5574
  108.7548  243.3303  315.8328 LP  0  0  0  0  0  0  0  0  0  0  0  0  # atno 13568 bound_to 5574
  110.3567  243.9176  316.8287 LP  0  0  0  0  0  0  0  0  0  0  0  0  # atno 13569 bound_to 5604
  109.9524  250.2803  317.8114 LP  0  0  0  0  0  0  0  0  0  0  0  0  # atno 13570 bound_to 8525
  107.5940  247.2789  316.4188 LP  0  0  0  0  0  0  0  0  0  0  0  0  # atno 13571 bound_to 5523
  106.6813  248.0632  317.6645 LP  0  0  0  0  0  0  0  0  0  0  0  0  # atno 13572 bound_to 5523
  101.4006  242.1128  324.7018 LP  0  0  0  0  0  0  0  0  0  0  0  0  # atno 13573 bound_to 6144
  103.0952  242.4246  324.8779 LP  0  0  0  0  0  0  0  0  0  0  0  0  # atno 13574 bound_to 6144
  110.2315  246.0531  316.5960 LP  0  0  0  0  0  0  0  0  0  0  0  0  # atno 13575 bound_to 8506
  108.9370  246.7617  315.8971 LP  0  0  0  0  0  0  0  0  0  0  0  0  # atno 13576 bound_to 8506
  116.4592  237.2684  331.9108 LP  0  0  0  0  0  0  0  0  0  0  0  0  # atno 13577 bound_to 9175
  116.2041  238.9767  332.0391 LP  0  0  0  0  0  0  0  0  0  0  0  0  # atno 13578 bound_to 9175
  120.6062  239.8371  331.7355 LP  0  0  0  0  0  0  0  0  0  0  0  0  # atno 13579 bound_to 9178
  120.5693  240.4425  333.2516 LP  0  0  0  0  0  0  0  0  0  0  0  0  # atno 13580 bound_to 9178
  114.0003  235.2515  330.3986 LP  0  0  0  0  0  0  0  0  0  0  0  0  # atno 13581 bound_to 9234
  113.9547  234.3722  328.9070 LP  0  0  0  0  0  0  0  0  0  0  0  0  # atno 13582 bound_to 9234
  116.9979  235.9442  330.1849 LP  0  0  0  0  0  0  0  0  0  0  0  0  # atno 13583 bound_to 9265
  115.7663  236.2031  331.7669 LP  0  0  0  0  0  0  0  0  0  0  0  0  # atno 13584 bound_to 9282
  112.7745  235.8323  334.8445 LP  0  0  0  0  0  0  0  0  0  0  0  0  # atno 13585 bound_to 9285
  111.8297  236.5030  333.5571 LP  0  0  0  0  0  0  0  0  0  0  0  0  # atno 13586 bound_to 9285
  113.7072  236.8096  332.7431 LP  0  0  0  0  0  0  0  0  0  0  0  0  # atno 13587 bound_to 9318
  112.2499  235.1880  330.7469 LP  0  0  0  0  0  0  0  0  0  0  0  0  # atno 13588 bound_to 9391
  109.4318  234.1292  329.0079 LP  0  0  0  0  0  0  0  0  0  0  0  0  # atno 13592 bound_to 9366
  108.8793  235.7104  329.4492 LP  0  0  0  0  0  0  0  0  0  0  0  0  # atno 13593 bound_to 9366
  112.2039  252.6822  328.5861 LP  0  0  0  0  0  0  0  0  0  0  0  0  # atno 13594 bound_to 12888
  110.9440  251.8847  329.2519 LP  0  0  0  0  0  0  0  0  0  0  0  0  # atno 13595 bound_to 12888
  108.9801  246.4962  336.4915 LP  0  0  0  0  0  0  0  0  0  0  0  0  # atno 13596 bound_to 13450
  109.0820  247.0145  338.0367 LP  0  0  0  0  0  0  0  0  0  0  0  0  # atno 13597 bound_to 13450

> <Gold.Score>
     Fitness  S(hb_ext) S(vdw_ext)  S(hb_int)    S(int)      intcor
     40.89       8.00      24.06       0.00      -0.18      -0.78

> <Gold.Goldscore.Fitness>
40.8897

> <Gold.Goldscore.Internal.Vdw>
-0.3484

> <Gold.Goldscore.Internal.Torsion>
-0.6173

> <Gold.Goldscore.External.Vdw>
24.0555

> <Gold.Goldscore.Internal.HBond>
0.0000

> <Gold.Goldscore.External.HBond>
7.9972

> <Gold.Goldscore.Internal.Correction>
-0.7819

> <Gold.Goldscore.Hbonds>
donor molecule, donor type, donor heavy atom, donor atom, acceptor molecule, acceptor atom, score
      P1  H  8344  8353       L1    17  1.00
      L1  H     8    22       P1  5579  1.00

> <Gold.Goldscore.Internal.Vdw.Weighted>
-0.3484

> <Gold.Goldscore.Internal.Torsion.Weighted>
-0.6173

> <Gold.Goldscore.External.Vdw.Weighted>
33.0763

> <Gold.Goldscore.Internal.HBond.Weighted>
0.0000

> <Gold.Goldscore.External.HBond.Weighted>
7.9972

> <Gold.Goldscore.Internal.Correction.Weighted>
-0.7819

> <Gold.Rescore>
     Score     S(PLP)   S(hbond)     S(cho)   S(metal)  DE(clash)   DE(tors)     intcor
     24.71     -19.11       2.42       0.00       0.00       0.00       0.84       ----

> <Gold.PLP.Fitness>
24.7079

> <Gold.PLP.PLP>
-19.1130

> <Gold.PLP.part.hbond>
-3.8645

> <Gold.PLP.part.metal>
0.0000

> <Gold.PLP.part.buried>
7.4454

> <Gold.PLP.part.nonpolar>
-27.5333

> <Gold.PLP.part.repulsive>
4.3490

> <Gold.PLP.ligand.clash>
0.0000

> <Gold.PLP.ligand.torsion>
0.8385

> <Gold.PLP.Chemscore.Hbond>
2.4240

> <Gold.PLP.Chemscore.CHOScore>
0.0000

> <Gold.PLP.Chemscore.Metal>
0.0000

> <Gold.Chemscore.Hbonds>
donor molecule, donor type, donor heavy atom, donor atom, acceptor molecule, acceptor atom, score
      L1  H     8    22       P1  5579  1.00
      L1  H    10    23       P1  9370  0.37
      P1  H  8344  8353       L1    17  0.44

> <Gold.PLP.Chemscore.Internal.Correction>
   9.000000E+99

