#       Name:                CT1002167954
#       Creating user name   hitesit
#       Creation time:       Sun Apr 16 22:52:07 2023


#       File generated by GOLD software.
#

@<TRIPOS>MOLECULE
CT1002167954|ligand_prepared|mol2|1|dock5
    29    30     1
SMALL
NO_CHARGES


@<TRIPOS>ATOM
      1 C1         112.6306 242.6930 326.1771 C.3            1 RES1               0.0000
      2 C2         112.2026 242.6881 327.6588 C.ar           1 RES1               0.0000
      3 C3         112.8356 241.2325 325.7855 C.2            1 RES1               0.0000
      4 C4         111.5115 243.3910 325.4121 C.2            1 RES1               0.0000
      5 C5         113.9449 243.4626 325.9089 C.3            1 RES1               0.0000
      6 C6         110.8605 242.5729 328.0084 C.ar           1 RES1               0.0000
      7 C7         113.1369 242.7950 328.6856 C.ar           1 RES1               0.0000
      8 N8         111.8921 240.6535 324.9889 N.am           1 RES1               0.0000
      9 O9         113.7899 240.5873 326.2017 O.2            1 RES1               0.0000
     10 N10        110.7872 242.6498 324.5156 N.am           1 RES1               0.0000
     11 O11        111.2396 244.5720 325.5898 O.2            1 RES1               0.0000
     12 C12        114.2175 243.7152 324.4344 C.3            1 RES1               0.0000
     13 C13        110.4668 242.5620 329.3363 C.ar           1 RES1               0.0000
     14 C14        112.7411 242.7842 330.0129 C.ar           1 RES1               0.0000
     15 C15        110.9067 241.3052 324.2918 C.2            1 RES1               0.0000
     16 C16        111.4068 242.6672 330.3393 C.ar           1 RES1               0.0000
     17 O17        110.1817 240.6985 323.5086 O.2            1 RES1               0.0000
     18 H18        113.9022 244.4267 326.4304 H              1 RES1               0.0000
     19 H19        114.7811 242.8906 326.3296 H              1 RES1               0.0000
     20 H20        110.1063 242.4916 327.2327 H              1 RES1               0.0000
     21 H21        114.1921 242.8891 328.4523 H              1 RES1               0.0000
     22 H22        111.9220 239.6425 324.9037 H              1 RES1               0.0000
     23 H23        110.0949 243.1464 323.9639 H              1 RES1               0.0000
     24 H24        115.1511 244.2580 324.3023 H              1 RES1               0.0000
     25 H25        114.2913 242.7764 323.8894 H              1 RES1               0.0000
     26 H26        113.4175 244.3035 323.9896 H              1 RES1               0.0000
     27 H27        109.4153 242.4712 329.5879 H              1 RES1               0.0000
     28 H28        113.4842 242.8679 330.7990 H              1 RES1               0.0000
     29 H29        111.0982 242.6583 331.3794 H              1 RES1               0.0000
@<TRIPOS>BOND
    1    1    2 1     
    2    1    3 1     
    3    1    4 1     
    4    1    5 1     
    5    2    6 ar    
    6    2    7 ar    
    7    3    8 1     
    8    3    9 2     
    9    4   10 1     
   10    4   11 2     
   11    5   12 1     
   12    5   18 1     
   13    5   19 1     
   14    6   13 ar    
   15    6   20 1     
   16    7   14 ar    
   17    7   21 1     
   18    8   15 1     
   19    8   22 1     
   20   10   15 1     
   21   10   23 1     
   22   12   24 1     
   23   12   25 1     
   24   12   26 1     
   25   13   16 ar    
   26   13   27 1     
   27   14   16 ar    
   28   14   28 1     
   29   15   17 2     
   30   16   29 1     
@<TRIPOS>SUBSTRUCTURE
      1 RES1           1
@<TRIPOS>SET
DONOR_HYDROGENS      STATIC     ATOMS    <user>   **** ""
2 22 23
ATOM$RED        STATIC     ATOMS    COLORGROUP SYSTEM
2 22 23
@<TRIPOS>COMMENT
> <Gold.Version>
2022.3.0

> <Gold.Id.Protein>
unknown|4uh6_clean|pdb

> <Gold.Protein.RotatedTorsions>
[ 8453 8448 8449 8450 ] final   26.63 input   43.75 | X-H torsion
[ 8477 8470 8471 8472 ] final -104.25 input  101.27 | X-H torsion
[ 9021 9017 9018 9019 ] final -139.26 input   41.82 | X-H torsion
[ 9055 9041 9042 9043 ] final -155.65 input   38.00 | X-H torsion
[ 9099 9087 9088 9089 ] final  161.80 input   99.63 | X-H torsion
[ 9107 9098 9097 9095 ] final  -26.78 input   60.00 | X-H torsion
[ 9133 9125 9126 9127 ] final  -68.56 input   87.39 | X-H torsion
[ 9211 9202 9203 9204 ] final  111.65 input  119.00 | X-H torsion
[ 3596 3592 3593 3594 ] final -105.33 input   87.50 | X-H torsion
[ 9003 8997 8998 8999 ] final  104.38 input   29.71 | X-H torsion
[ 9159 9155 9156 9157 ] final  173.85 input  127.29 | X-H torsion
[ 11075 11068 11069 11070 ] final -164.76 input   56.03 | X-H torsion
[ 4893 4888 4887 4884 ] final   50.59 input   60.01 | X-H torsion
[ 9007 9002 9001 8998 ] final -178.17 input   59.98 | X-H torsion
[ 8973 8962 8963 8964 ] final  -76.14 input   50.05 | X-H torsion
[ 8507 8501 8502 8503 ] final  145.10 input   53.62 | X-H torsion
[ 4912 4907 4908 4909 ] final -175.55 input   25.27 | X-H torsion
[ 8353 8344 8343 8341 ] final  -45.28 input   59.99 | X-H torsion
[ 5556 5551 5550 5547 ] final  -30.82 input   59.99 | X-H torsion
[ 5580 5571 5572 5573 ] final -110.38 input   51.16 | X-H torsion
[ 9375 9363 9364 9365 ] final -171.43 input  121.73 | X-H torsion
[ 9247 9231 9232 9233 ] final  107.38 input   97.49 | X-H torsion
[ 5552 5546 5547 5548 ] final   77.79 input   98.49 | X-H torsion
[ 5612 5604 5605 5606 ] final    5.63 input  122.00 | X-H torsion
[ 8533 8525 8526 8527 ] final  154.48 input   68.51 | X-H torsion
[ 8511 8506 8505 8502 ] final  -63.74 input   59.98 | X-H torsion
[ 9185 9178 9176 9173 ] final -119.52 input   60.02 | X-H torsion
[ 9272 9265 9266 9267 ] final  -78.58 input  106.17 | X-H torsion
[ 9298 9282 9283 9284 ] final   98.85 input   76.97 | X-H torsion
[ 9342 9318 9319 9320 ] final  108.92 input  100.94 | X-H torsion
[ 9412 9391 9392 9393 ] final  -96.16 input   95.23 | X-H torsion
[ 12897 12888 12887 12885 ] final -128.07 input   60.01 | X-H torsion
[ 13469 13450 13449 13445 ] final   43.89 input   59.98 | X-H torsion
[ 3570 3563 3564 3565 ] final -105.25 input   99.66 | X-H torsion
[ 13485 8425 8424 8423 ] final  143.98 input    0.00 | X-H torsion
[ 13489 8965 8964 8963 ] final   28.85 input    0.00 | X-H torsion
[ 13492 9020 9019 9018 ] final   54.82 input   -0.00 | X-H torsion
[ 13495 9044 9043 9042 ] final  137.60 input    0.00 | X-H torsion
[ 13498 9090 9089 9088 ] final  -72.09 input    0.00 | X-H torsion
[ 13503 9128 9127 9126 ] final  -55.36 input    0.00 | X-H torsion
[ 13516 9000 8999 8998 ] final  102.19 input    0.00 | X-H torsion
[ 13518 8370 8369 8368 ] final  139.79 input    0.00 | X-H torsion
[ 13522 11071 11070 11069 ] final    8.92 input   -0.00 | X-H torsion
[ 13526 8388 8387 8386 ] final  -75.25 input    0.00 | X-H torsion
[ 13530 8451 8450 8449 ] final  -26.86 input    0.00 | X-H torsion
[ 13532 8473 8472 8471 ] final  -70.87 input    0.00 | X-H torsion
[ 13539 4910 4909 4908 ] final  160.61 input   -0.00 | X-H torsion
[ 13543 5549 5548 5547 ] final  -91.46 input    0.00 | X-H torsion
[ 13547 9205 9204 9203 ] final   -0.95 input   -0.00 | X-H torsion
[ 13556 5645 5644 5643 ] final  137.38 input   -0.00 | X-H torsion
[ 13562 9321 9320 9319 ] final  176.34 input    0.00 | X-H torsion
[ 13567 5574 5573 5572 ] final -146.63 input    0.00 | X-H torsion
[ 13571 5523 5522 5521 ] final -121.48 input    0.00 | X-H torsion
[ 13573 6144 6143 6142 ] final -142.84 input    0.00 | X-H torsion
[ 13577 9175 9174 9173 ] final  -52.84 input    0.00 | X-H torsion
[ 13581 9234 9233 9232 ] final   89.88 input    0.00 | X-H torsion
[ 13585 9285 9284 9283 ] final  -19.80 input    0.00 | X-H torsion
[ 13592 9366 9365 9364 ] final  -17.10 input   -0.00 | X-H torsion

> <Gold.Protein.ActiveResidues>
 TRP311  MET341  HIS342  TRP414  ARG419  CYS420  VAL421  GLY422  LEU429  LEU460 
 SER462  ALA463  ILE464  ASN481  SER482  GLN483  LEU484  ILE485  ARG486  ASP500 
 ALA502  ASN503  TRP566  TYR567  GLY568  LEU569  PRO570  ALA571  VAL572  SER573 
 ASN574  MET575  PRO588  PHE589  SER590  GLY591  TRP592  TYR593  MET594  GLY595 
 THR596  GLU597  ILE598  GLY599  VAL600  ARG601  ASP602  TYR603  ASP605  ARG608 
 ILE653  VAL654  TRP683  PRO687  SER691  PHE696  HIS697  TYR711  HEM750  H4B760 

> <Gold.Protein.RotatedAtoms>
  122.2074  250.4948  329.7218 H   0  0  0  0  0  0  0  0  0  0  0  0  # atno 3570 bound_to 3563
  124.5776  248.5850  328.8435 H   0  0  0  0  0  0  0  0  0  0  0  0  # atno 3596 bound_to 3592
  125.8981  246.5132  318.2649 H   0  0  0  0  0  0  0  0  0  0  0  0  # atno 4893 bound_to 4888
  123.6279  247.6655  314.8475 H   0  0  0  0  0  0  0  0  0  0  0  0  # atno 4912 bound_to 4907
  106.2286  244.6103  318.6608 H   0  0  0  0  0  0  0  0  0  0  0  0  # atno 5552 bound_to 5546
  106.8239  243.9450  320.3752 H   0  0  0  0  0  0  0  0  0  0  0  0  # atno 5556 bound_to 5551
  108.7957  245.6850  319.0740 H   0  0  0  0  0  0  0  0  0  0  0  0  # atno 5580 bound_to 5571
  111.1268  243.1896  317.0997 H   0  0  0  0  0  0  0  0  0  0  0  0  # atno 5612 bound_to 5604
  110.7163  238.7130  321.4130 H   0  0  0  0  0  0  0  0  0  0  0  0  # atno 8353 bound_to 8344
  114.8399  243.2109  319.3969 H   0  0  0  0  0  0  0  0  0  0  0  0  # atno 8453 bound_to 8448
  114.3002  245.7206  318.9495 H   0  0  0  0  0  0  0  0  0  0  0  0  # atno 8477 bound_to 8470
  111.8557  247.3656  318.1723 H   0  0  0  0  0  0  0  0  0  0  0  0  # atno 8507 bound_to 8501
  110.1997  246.3905  317.2132 H   0  0  0  0  0  0  0  0  0  0  0  0  # atno 8511 bound_to 8506
  109.3255  249.1087  318.5836 H   0  0  0  0  0  0  0  0  0  0  0  0  # atno 8533 bound_to 8525
  115.5224  249.1664  315.3952 H   0  0  0  0  0  0  0  0  0  0  0  0  # atno 8973 bound_to 8962
  118.7206  247.8710  316.0513 H   0  0  0  0  0  0  0  0  0  0  0  0  # atno 9003 bound_to 8997
  119.3751  244.6903  314.7097 H   0  0  0  0  0  0  0  0  0  0  0  0  # atno 9007 bound_to 9002
  120.6459  246.0615  318.2096 H   0  0  0  0  0  0  0  0  0  0  0  0  # atno 9021 bound_to 9017
  122.6610  243.4234  319.7229 H   0  0  0  0  0  0  0  0  0  0  0  0  # atno 9055 bound_to 9041
  121.3975  240.2519  322.0720 H   0  0  0  0  0  0  0  0  0  0  0  0  # atno 9099 bound_to 9087
  114.4802  239.5893  323.8139 H   0  0  0  0  0  0  0  0  0  0  0  0  # atno 9107 bound_to 9098
  121.8506  240.0767  325.7426 H   0  0  0  0  0  0  0  0  0  0  0  0  # atno 9133 bound_to 9125
  123.0121  238.0505  328.2746 H   0  0  0  0  0  0  0  0  0  0  0  0  # atno 9159 bound_to 9155
  120.9677  240.1214  332.8401 H   0  0  0  0  0  0  0  0  0  0  0  0  # atno 9185 bound_to 9178
  118.9268  239.1730  329.6495 H   0  0  0  0  0  0  0  0  0  0  0  0  # atno 9211 bound_to 9202
  117.5246  237.5663  328.2360 H   0  0  0  0  0  0  0  0  0  0  0  0  # atno 9247 bound_to 9231
  115.8232  235.1808  329.4422 H   0  0  0  0  0  0  0  0  0  0  0  0  # atno 9272 bound_to 9265
  116.5823  236.3115  332.2303 H   0  0  0  0  0  0  0  0  0  0  0  0  # atno 9298 bound_to 9282
  114.6033  238.1446  332.2284 H   0  0  0  0  0  0  0  0  0  0  0  0  # atno 9342 bound_to 9318
  112.3487  238.4413  329.9684 H   0  0  0  0  0  0  0  0  0  0  0  0  # atno 9375 bound_to 9363
  111.0414  235.1229  329.5515 H   0  0  0  0  0  0  0  0  0  0  0  0  # atno 9412 bound_to 9391
  126.3724  238.4842  325.0419 H   0  0  0  0  0  0  0  0  0  0  0  0  # atno 11075 bound_to 11068
  110.9526  252.6782  329.9784 H   0  0  0  0  0  0  0  0  0  0  0  0  # atno 12897 bound_to 12888
  110.3726  246.6383  337.5874 H   0  0  0  0  0  0  0  0  0  0  0  0  # atno 13469 bound_to 13450
  117.9413  244.5918  318.4504 LP  0  0  0  0  0  0  0  0  0  0  0  0  # atno 13485 bound_to 8425
  118.5057  244.1063  320.0143 LP  0  0  0  0  0  0  0  0  0  0  0  0  # atno 13486 bound_to 8425
  116.5579  243.2382  319.0836 LP  0  0  0  0  0  0  0  0  0  0  0  0  # atno 13487 bound_to 8448
  115.3629  247.1096  318.9631 LP  0  0  0  0  0  0  0  0  0  0  0  0  # atno 13488 bound_to 8470
  115.7431  247.7211  317.4962 LP  0  0  0  0  0  0  0  0  0  0  0  0  # atno 13489 bound_to 8965
  116.9199  247.0206  318.5566 LP  0  0  0  0  0  0  0  0  0  0  0  0  # atno 13490 bound_to 8965
  120.0364  244.8083  319.2669 LP  0  0  0  0  0  0  0  0  0  0  0  0  # atno 13491 bound_to 9017
  122.6799  242.9854  317.6773 LP  0  0  0  0  0  0  0  0  0  0  0  0  # atno 13492 bound_to 9020
  121.5714  242.0484  318.6225 LP  0  0  0  0  0  0  0  0  0  0  0  0  # atno 13493 bound_to 9020
  122.8047  243.8763  321.4079 LP  0  0  0  0  0  0  0  0  0  0  0  0  # atno 13494 bound_to 9041
  121.5347  242.8161  323.8556 LP  0  0  0  0  0  0  0  0  0  0  0  0  # atno 13495 bound_to 9044
  123.0800  243.2955  323.2375 LP  0  0  0  0  0  0  0  0  0  0  0  0  # atno 13496 bound_to 9044
  122.8551  240.7974  322.8689 LP  0  0  0  0  0  0  0  0  0  0  0  0  # atno 13497 bound_to 9087
  123.4326  238.7218  325.1394 LP  0  0  0  0  0  0  0  0  0  0  0  0  # atno 13498 bound_to 9090
  124.1472  240.2958  325.2486 LP  0  0  0  0  0  0  0  0  0  0  0  0  # atno 13499 bound_to 9090
  114.6785  238.5959  322.5406 LP  0  0  0  0  0  0  0  0  0  0  0  0  # atno 13500 bound_to 9098
  114.8542  240.2089  322.3566 LP  0  0  0  0  0  0  0  0  0  0  0  0  # atno 13501 bound_to 9098
  121.2836  241.5716  326.4509 LP  0  0  0  0  0  0  0  0  0  0  0  0  # atno 13502 bound_to 9125
  119.7420  239.9181  328.6091 LP  0  0  0  0  0  0  0  0  0  0  0  0  # atno 13503 bound_to 9128
  119.7577  238.4431  327.7012 LP  0  0  0  0  0  0  0  0  0  0  0  0  # atno 13504 bound_to 9128
  117.9230  238.6824  330.9898 LP  0  0  0  0  0  0  0  0  0  0  0  0  # atno 13505 bound_to 9202
  123.4578  249.2223  327.6655 LP  0  0  0  0  0  0  0  0  0  0  0  0  # atno 13514 bound_to 3592
  118.7186  248.4701  317.6873 LP  0  0  0  0  0  0  0  0  0  0  0  0  # atno 13515 bound_to 8997
  121.7369  247.7822  318.0127 LP  0  0  0  0  0  0  0  0  0  0  0  0  # atno 13516 bound_to 9000
  121.7533  246.8150  316.5759 LP  0  0  0  0  0  0  0  0  0  0  0  0  # atno 13517 bound_to 9000
  120.5349  238.8184  318.8407 LP  0  0  0  0  0  0  0  0  0  0  0  0  # atno 13518 bound_to 8370
  120.3219  237.6785  320.1272 LP  0  0  0  0  0  0  0  0  0  0  0  0  # atno 13519 bound_to 8370
  121.7187  238.9140  329.0767 LP  0  0  0  0  0  0  0  0  0  0  0  0  # atno 13520 bound_to 9155
  125.0459  238.3260  326.1622 LP  0  0  0  0  0  0  0  0  0  0  0  0  # atno 13521 bound_to 11068
  124.3970  239.0141  327.7760 LP  0  0  0  0  0  0  0  0  0  0  0  0  # atno 13522 bound_to 11071
  124.5583  238.6916  329.4701 LP  0  0  0  0  0  0  0  0  0  0  0  0  # atno 13523 bound_to 11071
  124.4581  246.8748  318.9321 LP  0  0  0  0  0  0  0  0  0  0  0  0  # atno 13524 bound_to 4888
  125.7368  247.8653  319.1567 LP  0  0  0  0  0  0  0  0  0  0  0  0  # atno 13525 bound_to 4888
  115.8496  240.7458  317.2608 LP  0  0  0  0  0  0  0  0  0  0  0  0  # atno 13526 bound_to 8388
  115.5309  239.7389  318.6336 LP  0  0  0  0  0  0  0  0  0  0  0  0  # atno 13527 bound_to 8388
  120.5699  245.1500  315.7140 LP  0  0  0  0  0  0  0  0  0  0  0  0  # atno 13528 bound_to 9002
  119.6397  246.2730  314.9789 LP  0  0  0  0  0  0  0  0  0  0  0  0  # atno 13529 bound_to 9002
  113.0463  244.7287  317.1795 LP  0  0  0  0  0  0  0  0  0  0  0  0  # atno 13530 bound_to 8451
  112.3188  245.5168  318.5395 LP  0  0  0  0  0  0  0  0  0  0  0  0  # atno 13531 bound_to 8451
  113.9277  249.9800  318.2872 LP  0  0  0  0  0  0  0  0  0  0  0  0  # atno 13532 bound_to 8473
  113.7823  248.9593  316.8954 LP  0  0  0  0  0  0  0  0  0  0  0  0  # atno 13533 bound_to 8473
  115.3235  250.2734  316.7334 LP  0  0  0  0  0  0  0  0  0  0  0  0  # atno 13534 bound_to 8962
  111.5362  248.7936  319.1215 LP  0  0  0  0  0  0  0  0  0  0  0  0  # atno 13535 bound_to 8501
  122.1918  248.1035  315.7385 LP  0  0  0  0  0  0  0  0  0  0  0  0  # atno 13538 bound_to 4907
  119.5579  249.8333  315.3991 LP  0  0  0  0  0  0  0  0  0  0  0  0  # atno 13539 bound_to 4910
  120.3239  248.2814  315.3302 LP  0  0  0  0  0  0  0  0  0  0  0  0  # atno 13540 bound_to 4910
  109.9124  247.3490  319.0989 LP  0  0  0  0  0  0  0  0  0  0  0  0  # atno 13543 bound_to 5549
  109.9377  246.7257  320.7148 LP  0  0  0  0  0  0  0  0  0  0  0  0  # atno 13544 bound_to 5549
  111.9944  239.6955  321.6363 LP  0  0  0  0  0  0  0  0  0  0  0  0  # atno 13545 bound_to 8344
  111.7792  238.3983  322.6046 LP  0  0  0  0  0  0  0  0  0  0  0  0  # atno 13546 bound_to 8344
  114.3172  239.3959  329.6263 LP  0  0  0  0  0  0  0  0  0  0  0  0  # atno 13547 bound_to 9205
  114.1324  237.8293  328.9109 LP  0  0  0  0  0  0  0  0  0  0  0  0  # atno 13548 bound_to 9205
  106.1866  244.0662  321.8677 LP  0  0  0  0  0  0  0  0  0  0  0  0  # atno 13553 bound_to 5551
  107.7945  244.2458  321.6463 LP  0  0  0  0  0  0  0  0  0  0  0  0  # atno 13554 bound_to 5551
  108.2138  244.0312  319.1286 LP  0  0  0  0  0  0  0  0  0  0  0  0  # atno 13555 bound_to 5571
  110.8468  240.2333  319.0948 LP  0  0  0  0  0  0  0  0  0  0  0  0  # atno 13556 bound_to 5645
  112.3619  239.7082  318.4400 LP  0  0  0  0  0  0  0  0  0  0  0  0  # atno 13557 bound_to 5645
  112.3310  237.0093  330.9734 LP  0  0  0  0  0  0  0  0  0  0  0  0  # atno 13560 bound_to 9363
  116.0870  238.1855  329.0199 LP  0  0  0  0  0  0  0  0  0  0  0  0  # atno 13561 bound_to 9231
  109.7931  237.0266  330.9883 LP  0  0  0  0  0  0  0  0  0  0  0  0  # atno 13562 bound_to 9321
  110.0760  237.6631  332.5742 LP  0  0  0  0  0  0  0  0  0  0  0  0  # atno 13563 bound_to 9321
  106.1173  246.1453  317.8359 LP  0  0  0  0  0  0  0  0  0  0  0  0  # atno 13566 bound_to 5546
  109.1239  242.4272  316.0967 LP  0  0  0  0  0  0  0  0  0  0  0  0  # atno 13567 bound_to 5574
  108.2279  243.4929  317.1269 LP  0  0  0  0  0  0  0  0  0  0  0  0  # atno 13568 bound_to 5574
  111.2971  244.8119  316.4708 LP  0  0  0  0  0  0  0  0  0  0  0  0  # atno 13569 bound_to 5604
  110.3292  250.5315  318.4945 LP  0  0  0  0  0  0  0  0  0  0  0  0  # atno 13570 bound_to 8525
  107.9017  247.3273  317.2607 LP  0  0  0  0  0  0  0  0  0  0  0  0  # atno 13571 bound_to 5523
  106.3736  248.0149  316.8226 LP  0  0  0  0  0  0  0  0  0  0  0  0  # atno 13572 bound_to 5523
  101.5574  242.0728  324.3053 LP  0  0  0  0  0  0  0  0  0  0  0  0  # atno 13573 bound_to 6144
  102.9384  242.4645  325.2745 LP  0  0  0  0  0  0  0  0  0  0  0  0  # atno 13574 bound_to 6144
  109.4447  246.2860  315.7749 LP  0  0  0  0  0  0  0  0  0  0  0  0  # atno 13575 bound_to 8506
  108.8895  247.3105  316.9189 LP  0  0  0  0  0  0  0  0  0  0  0  0  # atno 13576 bound_to 8506
  116.4934  237.2718  331.9814 LP  0  0  0  0  0  0  0  0  0  0  0  0  # atno 13577 bound_to 9175
  116.1699  238.9733  331.9685 LP  0  0  0  0  0  0  0  0  0  0  0  0  # atno 13578 bound_to 9175
  119.4638  240.7415  332.8908 LP  0  0  0  0  0  0  0  0  0  0  0  0  # atno 13579 bound_to 9178
  119.9995  240.0011  331.5375 LP  0  0  0  0  0  0  0  0  0  0  0  0  # atno 13580 bound_to 9178
  114.0963  234.1188  329.1473 LP  0  0  0  0  0  0  0  0  0  0  0  0  # atno 13581 bound_to 9234
  113.8587  235.5049  330.1583 LP  0  0  0  0  0  0  0  0  0  0  0  0  # atno 13582 bound_to 9234
  117.4910  235.5439  329.8284 LP  0  0  0  0  0  0  0  0  0  0  0  0  # atno 13583 bound_to 9265
  115.6577  234.8309  332.2414 LP  0  0  0  0  0  0  0  0  0  0  0  0  # atno 13584 bound_to 9282
  112.7186  235.4344  334.3978 LP  0  0  0  0  0  0  0  0  0  0  0  0  # atno 13585 bound_to 9285
  111.8856  236.9009  334.0038 LP  0  0  0  0  0  0  0  0  0  0  0  0  # atno 13586 bound_to 9285
  113.7032  236.9708  333.1590 LP  0  0  0  0  0  0  0  0  0  0  0  0  # atno 13587 bound_to 9318
  112.5125  235.0308  330.4916 LP  0  0  0  0  0  0  0  0  0  0  0  0  # atno 13588 bound_to 9391
  108.9419  235.7448  329.0744 LP  0  0  0  0  0  0  0  0  0  0  0  0  # atno 13592 bound_to 9366
  109.3693  234.0948  329.3827 LP  0  0  0  0  0  0  0  0  0  0  0  0  # atno 13593 bound_to 9366
  112.2081  253.2690  329.1283 LP  0  0  0  0  0  0  0  0  0  0  0  0  # atno 13594 bound_to 12888
  111.4775  251.8867  328.6571 LP  0  0  0  0  0  0  0  0  0  0  0  0  # atno 13595 bound_to 12888
  109.3095  246.4001  336.3780 LP  0  0  0  0  0  0  0  0  0  0  0  0  # atno 13596 bound_to 13450
  108.7987  246.9861  337.8141 LP  0  0  0  0  0  0  0  0  0  0  0  0  # atno 13597 bound_to 13450

> <Gold.Score>
     Fitness  S(hb_ext) S(vdw_ext)  S(hb_int)    S(int)      intcor
     41.47       5.24      26.60       0.00      -0.35      -0.76

> <Gold.Goldscore.Fitness>
41.4661

> <Gold.Goldscore.Internal.Vdw>
-0.5219

> <Gold.Goldscore.Internal.Torsion>
-0.5868

> <Gold.Goldscore.External.Vdw>
26.5984

> <Gold.Goldscore.Internal.HBond>
0.0000

> <Gold.Goldscore.External.HBond>
5.2435

> <Gold.Goldscore.Internal.Correction>
-0.7585

> <Gold.Goldscore.Hbonds>
donor molecule, donor type, donor heavy atom, donor atom, acceptor molecule, acceptor atom, score
      P1  H  5690  5702       L1    17  0.66
      P1  H  5693  5706       L1    17  0.03
      L1  H     8    22       P1  9370  0.18

> <Gold.Goldscore.Internal.Vdw.Weighted>
-0.5219

> <Gold.Goldscore.Internal.Torsion.Weighted>
-0.5868

> <Gold.Goldscore.External.Vdw.Weighted>
36.5728

> <Gold.Goldscore.Internal.HBond.Weighted>
0.0000

> <Gold.Goldscore.External.HBond.Weighted>
5.2435

> <Gold.Goldscore.Internal.Correction.Weighted>
-0.7585

> <Gold.Rescore>
     Score     S(PLP)   S(hbond)     S(cho)   S(metal)  DE(clash)   DE(tors)     intcor
     18.90     -17.42       1.38       0.00       0.00       2.01       0.33       ----

> <Gold.PLP.Fitness>
18.9008

> <Gold.PLP.PLP>
-17.4236

> <Gold.PLP.part.hbond>
-4.4725

> <Gold.PLP.part.metal>
0.0000

> <Gold.PLP.part.buried>
1.3261

> <Gold.PLP.part.nonpolar>
-19.5420

> <Gold.PLP.part.repulsive>
7.4449

> <Gold.PLP.ligand.clash>
2.0088

> <Gold.PLP.ligand.torsion>
0.3335

> <Gold.PLP.Chemscore.Hbond>
1.3843

> <Gold.PLP.Chemscore.CHOScore>
0.0000

> <Gold.PLP.Chemscore.Metal>
0.0000

> <Gold.Chemscore.Hbonds>
donor molecule, donor type, donor heavy atom, donor atom, acceptor molecule, acceptor atom, score
      L1  H     8    22       P1  9369  0.01
      P1  H  5690  5702       L1    17  0.15

> <Gold.PLP.Chemscore.Internal.Correction>
   9.000000E+99

