#       Name:                CT1002167954
#       Creating user name   hitesit
#       Creation time:       Sun Apr 16 22:52:05 2023


#       File generated by GOLD software.
#

@<TRIPOS>MOLECULE
CT1002167954|ligand_prepared|mol2|1|dock3
    29    30     1
SMALL
NO_CHARGES


@<TRIPOS>ATOM
      1 C1         112.6219 243.4645 325.6675 C.3            1 RES1               0.0000
      2 C2         111.8990 244.5448 324.8373 C.ar           1 RES1               0.0000
      3 C3         111.5498 242.7880 326.5167 C.2            1 RES1               0.0000
      4 C4         113.2979 242.5367 324.6640 C.2            1 RES1               0.0000
      5 C5         113.7126 244.0259 326.6091 C.3            1 RES1               0.0000
      6 C6         112.3814 245.8496 324.7988 C.ar           1 RES1               0.0000
      7 C7         110.7523 244.2516 324.1041 C.ar           1 RES1               0.0000
      8 N8         111.1575 241.5325 326.1565 N.am           1 RES1               0.0000
      9 O9         111.0282 243.3627 327.4642 O.2            1 RES1               0.0000
     10 N10        112.8553 241.2421 324.5871 N.am           1 RES1               0.0000
     11 O11        114.1987 242.9196 323.9275 O.2            1 RES1               0.0000
     12 C12        114.4036 242.9633 327.4492 C.3            1 RES1               0.0000
     13 C13        111.7424 246.8254 324.0519 C.ar           1 RES1               0.0000
     14 C14        110.1146 245.2290 323.3580 C.ar           1 RES1               0.0000
     15 C15        111.7952 240.7063 325.2662 C.2            1 RES1               0.0000
     16 C16        110.6089 246.5157 323.3308 C.ar           1 RES1               0.0000
     17 O17        111.4231 239.5478 325.1031 O.2            1 RES1               0.0000
     18 H18        114.4674 244.5447 326.0054 H              1 RES1               0.0000
     19 H19        113.2547 244.7635 327.2797 H              1 RES1               0.0000
     20 H20        113.2707 246.1126 325.3618 H              1 RES1               0.0000
     21 H21        110.3448 243.2464 324.1116 H              1 RES1               0.0000
     22 H22        110.3117 241.1748 326.5890 H              1 RES1               0.0000
     23 H23        113.3633 240.6202 323.9662 H              1 RES1               0.0000
     24 H24        115.1592 243.4106 328.0916 H              1 RES1               0.0000
     25 H25        113.6859 242.4441 328.0810 H              1 RES1               0.0000
     26 H26        114.8914 242.2267 326.8143 H              1 RES1               0.0000
     27 H27        112.1347 247.8368 324.0348 H              1 RES1               0.0000
     28 H28        109.2225 244.9810 322.7925 H              1 RES1               0.0000
     29 H29        110.1087 247.2802 322.7455 H              1 RES1               0.0000
@<TRIPOS>BOND
    1    1    2 1     
    2    1    3 1     
    3    1    4 1     
    4    1    5 1     
    5    2    6 ar    
    6    2    7 ar    
    7    3    8 1     
    8    3    9 2     
    9    4   10 1     
   10    4   11 2     
   11    5   12 1     
   12    5   18 1     
   13    5   19 1     
   14    6   13 ar    
   15    6   20 1     
   16    7   14 ar    
   17    7   21 1     
   18    8   15 1     
   19    8   22 1     
   20   10   15 1     
   21   10   23 1     
   22   12   24 1     
   23   12   25 1     
   24   12   26 1     
   25   13   16 ar    
   26   13   27 1     
   27   14   16 ar    
   28   14   28 1     
   29   15   17 2     
   30   16   29 1     
@<TRIPOS>SUBSTRUCTURE
      1 RES1           1
@<TRIPOS>SET
DONOR_HYDROGENS      STATIC     ATOMS    <user>   **** ""
2 22 23
ATOM$RED        STATIC     ATOMS    COLORGROUP SYSTEM
2 22 23
@<TRIPOS>COMMENT
> <Gold.Version>
2022.3.0

> <Gold.Id.Protein>
unknown|4uh6_clean|pdb

> <Gold.Protein.RotatedTorsions>
[ 8453 8448 8449 8450 ] final   65.64 input   43.75 | X-H torsion
[ 8477 8470 8471 8472 ] final  -91.50 input  101.27 | X-H torsion
[ 9021 9017 9018 9019 ] final  -49.01 input   41.82 | X-H torsion
[ 9055 9041 9042 9043 ] final -129.99 input   38.00 | X-H torsion
[ 9099 9087 9088 9089 ] final   67.85 input   99.63 | X-H torsion
[ 9107 9098 9097 9095 ] final  111.31 input   60.00 | X-H torsion
[ 9133 9125 9126 9127 ] final  142.73 input   87.39 | X-H torsion
[ 9211 9202 9203 9204 ] final -173.93 input  119.00 | X-H torsion
[ 3596 3592 3593 3594 ] final   27.08 input   87.50 | X-H torsion
[ 9003 8997 8998 8999 ] final -151.35 input   29.71 | X-H torsion
[ 9159 9155 9156 9157 ] final  151.89 input  127.29 | X-H torsion
[ 11075 11068 11069 11070 ] final    0.23 input   56.03 | X-H torsion
[ 4893 4888 4887 4884 ] final  -18.43 input   60.01 | X-H torsion
[ 9007 9002 9001 8998 ] final  127.73 input   59.98 | X-H torsion
[ 8973 8962 8963 8964 ] final  128.81 input   50.05 | X-H torsion
[ 8507 8501 8502 8503 ] final   77.78 input   53.62 | X-H torsion
[ 4912 4907 4908 4909 ] final  115.43 input   25.27 | X-H torsion
[ 8353 8344 8343 8341 ] final  161.02 input   59.99 | X-H torsion
[ 5556 5551 5550 5547 ] final  -47.24 input   59.99 | X-H torsion
[ 5580 5571 5572 5573 ] final  146.06 input   51.16 | X-H torsion
[ 9375 9363 9364 9365 ] final  177.55 input  121.73 | X-H torsion
[ 9247 9231 9232 9233 ] final  -61.29 input   97.49 | X-H torsion
[ 5552 5546 5547 5548 ] final  150.57 input   98.49 | X-H torsion
[ 5612 5604 5605 5606 ] final  166.52 input  122.00 | X-H torsion
[ 8533 8525 8526 8527 ] final   28.79 input   68.51 | X-H torsion
[ 8511 8506 8505 8502 ] final  100.40 input   59.98 | X-H torsion
[ 9185 9178 9176 9173 ] final  -89.38 input   60.02 | X-H torsion
[ 9272 9265 9266 9267 ] final   -9.63 input  106.17 | X-H torsion
[ 9298 9282 9283 9284 ] final  -20.20 input   76.97 | X-H torsion
[ 9342 9318 9319 9320 ] final   84.19 input  100.94 | X-H torsion
[ 9412 9391 9392 9393 ] final   45.66 input   95.23 | X-H torsion
[ 12897 12888 12887 12885 ] final -117.61 input   60.01 | X-H torsion
[ 13469 13450 13449 13445 ] final   77.59 input   59.98 | X-H torsion
[ 3570 3563 3564 3565 ] final   -6.46 input   99.66 | X-H torsion
[ 13485 8425 8424 8423 ] final  -72.58 input    0.00 | X-H torsion
[ 13489 8965 8964 8963 ] final   66.45 input    0.00 | X-H torsion
[ 13492 9020 9019 9018 ] final -132.13 input   -0.00 | X-H torsion
[ 13495 9044 9043 9042 ] final -141.57 input    0.00 | X-H torsion
[ 13498 9090 9089 9088 ] final  134.15 input    0.00 | X-H torsion
[ 13503 9128 9127 9126 ] final -102.49 input    0.00 | X-H torsion
[ 13516 9000 8999 8998 ] final   47.28 input    0.00 | X-H torsion
[ 13518 8370 8369 8368 ] final -147.56 input    0.00 | X-H torsion
[ 13522 11071 11070 11069 ] final   17.47 input   -0.00 | X-H torsion
[ 13526 8388 8387 8386 ] final   51.26 input    0.00 | X-H torsion
[ 13530 8451 8450 8449 ] final   85.36 input    0.00 | X-H torsion
[ 13532 8473 8472 8471 ] final  -83.63 input    0.00 | X-H torsion
[ 13539 4910 4909 4908 ] final  127.12 input   -0.00 | X-H torsion
[ 13543 5549 5548 5547 ] final  137.48 input    0.00 | X-H torsion
[ 13547 9205 9204 9203 ] final   54.33 input   -0.00 | X-H torsion
[ 13556 5645 5644 5643 ] final  -10.42 input   -0.00 | X-H torsion
[ 13562 9321 9320 9319 ] final    4.92 input    0.00 | X-H torsion
[ 13567 5574 5573 5572 ] final  -44.45 input    0.00 | X-H torsion
[ 13571 5523 5522 5521 ] final  122.61 input    0.00 | X-H torsion
[ 13573 6144 6143 6142 ] final   35.32 input    0.00 | X-H torsion
[ 13577 9175 9174 9173 ] final  113.51 input    0.00 | X-H torsion
[ 13581 9234 9233 9232 ] final  -18.51 input    0.00 | X-H torsion
[ 13585 9285 9284 9283 ] final   15.14 input    0.00 | X-H torsion
[ 13592 9366 9365 9364 ] final   40.45 input   -0.00 | X-H torsion

> <Gold.Protein.ActiveResidues>
 TRP311  MET341  HIS342  TRP414  ARG419  CYS420  VAL421  GLY422  LEU429  LEU460 
 SER462  ALA463  ILE464  ASN481  SER482  GLN483  LEU484  ILE485  ARG486  ASP500 
 ALA502  ASN503  TRP566  TYR567  GLY568  LEU569  PRO570  ALA571  VAL572  SER573 
 ASN574  MET575  PRO588  PHE589  SER590  GLY591  TRP592  TYR593  MET594  GLY595 
 THR596  GLU597  ILE598  GLY599  VAL600  ARG601  ASP602  TYR603  ASP605  ARG608 
 ILE653  VAL654  TRP683  PRO687  SER691  PHE696  HIS697  TYR711  HEM750  H4B760 

> <Gold.Protein.RotatedAtoms>
  122.4116  249.7050  328.6492 H   0  0  0  0  0  0  0  0  0  0  0  0  # atno 3570 bound_to 3563
  123.9235  249.7029  327.8858 H   0  0  0  0  0  0  0  0  0  0  0  0  # atno 3596 bound_to 3592
  124.8711  246.3492  318.4766 H   0  0  0  0  0  0  0  0  0  0  0  0  # atno 4893 bound_to 4888
  122.7844  247.1327  314.8575 H   0  0  0  0  0  0  0  0  0  0  0  0  # atno 4912 bound_to 4907
  105.4780  245.3274  318.7836 H   0  0  0  0  0  0  0  0  0  0  0  0  # atno 5552 bound_to 5546
  106.5677  243.9217  320.4486 H   0  0  0  0  0  0  0  0  0  0  0  0  # atno 5556 bound_to 5551
  108.6929  244.5759  319.9368 H   0  0  0  0  0  0  0  0  0  0  0  0  # atno 5580 bound_to 5571
  111.5831  244.7574  316.4801 H   0  0  0  0  0  0  0  0  0  0  0  0  # atno 5612 bound_to 5604
  112.2490  239.4623  322.0576 H   0  0  0  0  0  0  0  0  0  0  0  0  # atno 8353 bound_to 8344
  114.9600  242.8728  318.9298 H   0  0  0  0  0  0  0  0  0  0  0  0  # atno 8453 bound_to 8448
  114.2638  245.7778  318.7647 H   0  0  0  0  0  0  0  0  0  0  0  0  # atno 8477 bound_to 8470
  111.0282  247.5137  318.6616 H   0  0  0  0  0  0  0  0  0  0  0  0  # atno 8507 bound_to 8501
  108.7668  247.0856  316.2608 H   0  0  0  0  0  0  0  0  0  0  0  0  # atno 8511 bound_to 8506
  110.2829  250.1709  319.2024 H   0  0  0  0  0  0  0  0  0  0  0  0  # atno 8533 bound_to 8525
  115.4155  250.5218  316.4632 H   0  0  0  0  0  0  0  0  0  0  0  0  # atno 8973 bound_to 8962
  117.8847  248.1090  317.1231 H   0  0  0  0  0  0  0  0  0  0  0  0  # atno 9003 bound_to 8997
  120.0073  244.4498  315.2266 H   0  0  0  0  0  0  0  0  0  0  0  0  # atno 9007 bound_to 9002
  120.4489  244.8239  318.1037 H   0  0  0  0  0  0  0  0  0  0  0  0  # atno 9021 bound_to 9017
  122.2844  243.4396  319.8419 H   0  0  0  0  0  0  0  0  0  0  0  0  # atno 9055 bound_to 9041
  122.4789  239.7141  322.5391 H   0  0  0  0  0  0  0  0  0  0  0  0  # atno 9099 bound_to 9087
  114.8824  239.9899  322.1604 H   0  0  0  0  0  0  0  0  0  0  0  0  # atno 9107 bound_to 9098
  121.7183  241.6831  326.3038 H   0  0  0  0  0  0  0  0  0  0  0  0  # atno 9133 bound_to 9125
  123.1250  238.0539  328.5936 H   0  0  0  0  0  0  0  0  0  0  0  0  # atno 9159 bound_to 9155
  121.0108  239.9306  332.3943 H   0  0  0  0  0  0  0  0  0  0  0  0  # atno 9185 bound_to 9178
  118.6973  239.7368  330.5207 H   0  0  0  0  0  0  0  0  0  0  0  0  # atno 9211 bound_to 9202
  116.1132  238.0930  329.1680 H   0  0  0  0  0  0  0  0  0  0  0  0  # atno 9247 bound_to 9231
  116.1153  235.8750  330.1103 H   0  0  0  0  0  0  0  0  0  0  0  0  # atno 9272 bound_to 9265
  115.3669  235.5259  331.7764 H   0  0  0  0  0  0  0  0  0  0  0  0  # atno 9298 bound_to 9282
  114.5134  237.8857  331.9672 H   0  0  0  0  0  0  0  0  0  0  0  0  # atno 9342 bound_to 9318
  112.4931  238.3755  329.9057 H   0  0  0  0  0  0  0  0  0  0  0  0  # atno 9375 bound_to 9363
  112.1085  235.2477  330.8339 H   0  0  0  0  0  0  0  0  0  0  0  0  # atno 9412 bound_to 9391
  125.1114  238.1077  326.1758 H   0  0  0  0  0  0  0  0  0  0  0  0  # atno 11075 bound_to 11068
  110.8864  252.5333  329.9173 H   0  0  0  0  0  0  0  0  0  0  0  0  # atno 12897 bound_to 12888
  110.0627  246.8311  337.9895 H   0  0  0  0  0  0  0  0  0  0  0  0  # atno 13469 bound_to 13450
  118.1863  244.5414  320.0759 LP  0  0  0  0  0  0  0  0  0  0  0  0  # atno 13485 bound_to 8425
  118.2607  244.1567  318.3888 LP  0  0  0  0  0  0  0  0  0  0  0  0  # atno 13486 bound_to 8425
  116.4402  243.5696  319.5415 LP  0  0  0  0  0  0  0  0  0  0  0  0  # atno 13487 bound_to 8448
  115.3983  247.0540  319.1429 LP  0  0  0  0  0  0  0  0  0  0  0  0  # atno 13488 bound_to 8470
  115.9180  247.2384  317.2771 LP  0  0  0  0  0  0  0  0  0  0  0  0  # atno 13489 bound_to 8965
  116.7451  247.5032  318.7757 LP  0  0  0  0  0  0  0  0  0  0  0  0  # atno 13490 bound_to 8965
  120.2277  246.0104  319.3698 LP  0  0  0  0  0  0  0  0  0  0  0  0  # atno 13491 bound_to 9017
  121.6546  241.9917  318.6521 LP  0  0  0  0  0  0  0  0  0  0  0  0  # atno 13492 bound_to 9020
  122.5967  243.0422  317.6477 LP  0  0  0  0  0  0  0  0  0  0  0  0  # atno 13493 bound_to 9020
  123.1690  243.8607  321.2928 LP  0  0  0  0  0  0  0  0  0  0  0  0  # atno 13494 bound_to 9041
  122.5702  242.5672  324.2115 LP  0  0  0  0  0  0  0  0  0  0  0  0  # atno 13495 bound_to 9044
  122.0445  243.5445  322.8816 LP  0  0  0  0  0  0  0  0  0  0  0  0  # atno 13496 bound_to 9044
  121.8016  241.3212  322.4139 LP  0  0  0  0  0  0  0  0  0  0  0  0  # atno 13497 bound_to 9087
  124.1395  240.1750  325.6228 LP  0  0  0  0  0  0  0  0  0  0  0  0  # atno 13498 bound_to 9090
  123.4402  238.8426  324.7652 LP  0  0  0  0  0  0  0  0  0  0  0  0  # atno 13499 bound_to 9090
  114.5174  239.8734  323.7417 LP  0  0  0  0  0  0  0  0  0  0  0  0  # atno 13500 bound_to 9098
  114.6103  238.5280  322.8209 LP  0  0  0  0  0  0  0  0  0  0  0  0  # atno 13501 bound_to 9098
  121.4124  240.0083  325.9047 LP  0  0  0  0  0  0  0  0  0  0  0  0  # atno 13502 bound_to 9125
  119.6901  239.3504  329.0023 LP  0  0  0  0  0  0  0  0  0  0  0  0  # atno 13503 bound_to 9128
  119.8096  239.0108  327.3080 LP  0  0  0  0  0  0  0  0  0  0  0  0  # atno 13504 bound_to 9128
  118.1493  238.1266  330.1311 LP  0  0  0  0  0  0  0  0  0  0  0  0  # atno 13505 bound_to 9202
  124.1010  248.1231  328.6072 LP  0  0  0  0  0  0  0  0  0  0  0  0  # atno 13514 bound_to 3592
  119.5489  248.2337  316.6226 LP  0  0  0  0  0  0  0  0  0  0  0  0  # atno 13515 bound_to 8997
  121.2317  247.9831  317.4277 LP  0  0  0  0  0  0  0  0  0  0  0  0  # atno 13516 bound_to 9000
  122.2585  246.6140  317.1609 LP  0  0  0  0  0  0  0  0  0  0  0  0  # atno 13517 bound_to 9000
  119.8571  238.8874  319.6078 LP  0  0  0  0  0  0  0  0  0  0  0  0  # atno 13518 bound_to 8370
  120.9997  237.6095  319.3601 LP  0  0  0  0  0  0  0  0  0  0  0  0  # atno 13519 bound_to 8370
  121.6092  238.9107  328.7674 LP  0  0  0  0  0  0  0  0  0  0  0  0  # atno 13520 bound_to 9155
  126.2943  238.6987  325.0395 LP  0  0  0  0  0  0  0  0  0  0  0  0  # atno 13521 bound_to 11068
  124.3790  238.8869  327.7633 LP  0  0  0  0  0  0  0  0  0  0  0  0  # atno 13522 bound_to 11071
  124.5763  238.8188  329.4827 LP  0  0  0  0  0  0  0  0  0  0  0  0  # atno 13523 bound_to 11071
  124.9515  247.7398  319.3186 LP  0  0  0  0  0  0  0  0  0  0  0  0  # atno 13524 bound_to 4888
  126.2770  247.1654  318.5572 LP  0  0  0  0  0  0  0  0  0  0  0  0  # atno 13525 bound_to 4888
  115.7079  239.3767  317.9666 LP  0  0  0  0  0  0  0  0  0  0  0  0  # atno 13526 bound_to 8388
  115.6726  241.1080  317.9278 LP  0  0  0  0  0  0  0  0  0  0  0  0  # atno 13527 bound_to 8388
  120.4014  245.9833  315.6015 LP  0  0  0  0  0  0  0  0  0  0  0  0  # atno 13528 bound_to 9002
  119.1713  245.6820  314.5707 LP  0  0  0  0  0  0  0  0  0  0  0  0  # atno 13529 bound_to 9002
  112.5991  244.5927  318.5393 LP  0  0  0  0  0  0  0  0  0  0  0  0  # atno 13530 bound_to 8451
  112.7659  245.6528  317.1797 LP  0  0  0  0  0  0  0  0  0  0  0  0  # atno 13531 bound_to 8451
  113.7743  250.0684  318.2117 LP  0  0  0  0  0  0  0  0  0  0  0  0  # atno 13532 bound_to 8473
  113.9357  248.8708  316.9709 LP  0  0  0  0  0  0  0  0  0  0  0  0  # atno 13533 bound_to 8473
  115.4276  248.9527  315.6928 LP  0  0  0  0  0  0  0  0  0  0  0  0  # atno 13534 bound_to 8962
  112.3535  248.6473  318.6383 LP  0  0  0  0  0  0  0  0  0  0  0  0  # atno 13535 bound_to 8501
  123.0209  248.6272  315.7287 LP  0  0  0  0  0  0  0  0  0  0  0  0  # atno 13538 bound_to 4907
  119.9450  249.8500  315.7135 LP  0  0  0  0  0  0  0  0  0  0  0  0  # atno 13539 bound_to 4910
  119.9368  248.2647  315.0158 LP  0  0  0  0  0  0  0  0  0  0  0  0  # atno 13540 bound_to 4910
  110.3931  246.4024  320.2643 LP  0  0  0  0  0  0  0  0  0  0  0  0  # atno 13543 bound_to 5549
  109.4569  247.6722  319.5494 LP  0  0  0  0  0  0  0  0  0  0  0  0  # atno 13544 bound_to 5549
  111.3199  238.1738  322.4114 LP  0  0  0  0  0  0  0  0  0  0  0  0  # atno 13545 bound_to 8344
  110.9106  239.1657  321.1804 LP  0  0  0  0  0  0  0  0  0  0  0  0  # atno 13546 bound_to 8344
  114.2003  239.3602  328.8320 LP  0  0  0  0  0  0  0  0  0  0  0  0  # atno 13547 bound_to 9205
  114.2493  237.8651  329.7051 LP  0  0  0  0  0  0  0  0  0  0  0  0  # atno 13548 bound_to 9205
  106.3757  244.1166  322.0528 LP  0  0  0  0  0  0  0  0  0  0  0  0  # atno 13553 bound_to 5551
  107.8634  244.2189  321.3873 LP  0  0  0  0  0  0  0  0  0  0  0  0  # atno 13554 bound_to 5551
  108.3120  245.0912  318.3040 LP  0  0  0  0  0  0  0  0  0  0  0  0  # atno 13555 bound_to 5571
  112.3022  240.1608  318.2910 LP  0  0  0  0  0  0  0  0  0  0  0  0  # atno 13556 bound_to 5645
  110.9065  239.7806  319.2438 LP  0  0  0  0  0  0  0  0  0  0  0  0  # atno 13557 bound_to 5645
  112.1911  237.0731  331.0342 LP  0  0  0  0  0  0  0  0  0  0  0  0  # atno 13560 bound_to 9363
  117.4513  237.6764  328.1189 LP  0  0  0  0  0  0  0  0  0  0  0  0  # atno 13561 bound_to 9231
  110.0329  237.7755  332.5261 LP  0  0  0  0  0  0  0  0  0  0  0  0  # atno 13562 bound_to 9321
  109.8361  236.9142  331.0363 LP  0  0  0  0  0  0  0  0  0  0  0  0  # atno 13563 bound_to 9321
  106.8545  245.4410  317.7153 LP  0  0  0  0  0  0  0  0  0  0  0  0  # atno 13566 bound_to 5546
  108.6475  242.5153  317.3543 LP  0  0  0  0  0  0  0  0  0  0  0  0  # atno 13567 bound_to 5574
  108.7043  243.4048  315.8692 LP  0  0  0  0  0  0  0  0  0  0  0  0  # atno 13568 bound_to 5574
  110.8525  243.2844  317.0744 LP  0  0  0  0  0  0  0  0  0  0  0  0  # atno 13569 bound_to 5604
  109.3804  249.4787  317.8812 LP  0  0  0  0  0  0  0  0  0  0  0  0  # atno 13570 bound_to 8525
  106.6995  248.0578  317.6808 LP  0  0  0  0  0  0  0  0  0  0  0  0  # atno 13571 bound_to 5523
  107.5758  247.2843  316.4025 LP  0  0  0  0  0  0  0  0  0  0  0  0  # atno 13572 bound_to 5523
  102.9219  242.4655  325.2969 LP  0  0  0  0  0  0  0  0  0  0  0  0  # atno 13573 bound_to 6144
  101.5739  242.0718  324.2829 LP  0  0  0  0  0  0  0  0  0  0  0  0  # atno 13574 bound_to 6144
  109.7845  246.8763  317.5138 LP  0  0  0  0  0  0  0  0  0  0  0  0  # atno 13575 bound_to 8506
  109.9917  246.0206  316.1385 LP  0  0  0  0  0  0  0  0  0  0  0  0  # atno 13576 bound_to 8506
  116.2617  238.9673  332.1526 LP  0  0  0  0  0  0  0  0  0  0  0  0  # atno 13577 bound_to 9175
  116.4015  237.2778  331.7974 LP  0  0  0  0  0  0  0  0  0  0  0  0  # atno 13578 bound_to 9175
  119.8384  240.7153  333.2059 LP  0  0  0  0  0  0  0  0  0  0  0  0  # atno 13579 bound_to 9178
  119.5816  240.2195  331.6713 LP  0  0  0  0  0  0  0  0  0  0  0  0  # atno 13580 bound_to 9178
  113.6488  235.4502  329.1686 LP  0  0  0  0  0  0  0  0  0  0  0  0  # atno 13581 bound_to 9234
  114.3062  234.1735  330.1370 LP  0  0  0  0  0  0  0  0  0  0  0  0  # atno 13582 bound_to 9234
  117.2083  234.8721  329.1818 LP  0  0  0  0  0  0  0  0  0  0  0  0  # atno 13583 bound_to 9265
  116.8535  235.6038  332.6880 LP  0  0  0  0  0  0  0  0  0  0  0  0  # atno 13584 bound_to 9282
  112.7810  235.7613  334.7971 LP  0  0  0  0  0  0  0  0  0  0  0  0  # atno 13585 bound_to 9285
  111.8232  236.5740  333.6045 LP  0  0  0  0  0  0  0  0  0  0  0  0  # atno 13586 bound_to 9285
  113.7910  237.2236  333.4142 LP  0  0  0  0  0  0  0  0  0  0  0  0  # atno 13587 bound_to 9318
  111.4720  234.9092  329.2412 LP  0  0  0  0  0  0  0  0  0  0  0  0  # atno 13588 bound_to 9391
  109.2045  235.2727  328.4392 LP  0  0  0  0  0  0  0  0  0  0  0  0  # atno 13592 bound_to 9366
  109.1067  234.5668  330.0179 LP  0  0  0  0  0  0  0  0  0  0  0  0  # atno 13593 bound_to 9366
  112.1417  253.3410  329.2695 LP  0  0  0  0  0  0  0  0  0  0  0  0  # atno 13594 bound_to 12888
  111.6105  251.9607  328.5773 LP  0  0  0  0  0  0  0  0  0  0  0  0  # atno 13595 bound_to 12888
  109.8467  246.3342  336.4546 LP  0  0  0  0  0  0  0  0  0  0  0  0  # atno 13596 bound_to 13450
  108.5735  246.8580  337.3328 LP  0  0  0  0  0  0  0  0  0  0  0  0  # atno 13597 bound_to 13450

> <Gold.Score>
     Fitness  S(hb_ext) S(vdw_ext)  S(hb_int)    S(int)      intcor
     38.32       8.49      22.67       0.00      -1.34      -0.76

> <Gold.Goldscore.Fitness>
38.3197

> <Gold.Goldscore.Internal.Vdw>
-1.7270

> <Gold.Goldscore.Internal.Torsion>
-0.3710

> <Gold.Goldscore.External.Vdw>
22.6675

> <Gold.Goldscore.Internal.HBond>
0.0000

> <Gold.Goldscore.External.HBond>
8.4913

> <Gold.Goldscore.Internal.Correction>
-0.7585

> <Gold.Goldscore.Hbonds>
donor molecule, donor type, donor heavy atom, donor atom, acceptor molecule, acceptor atom, score
      P1  H  5693  5706       L1    17  0.11
      P1  H  9538  9550       L1    17  1.00
      L1  H    10    23       P1  9098  0.91

> <Gold.Goldscore.Internal.Vdw.Weighted>
-1.7270

> <Gold.Goldscore.Internal.Torsion.Weighted>
-0.3710

> <Gold.Goldscore.External.Vdw.Weighted>
31.1679

> <Gold.Goldscore.Internal.HBond.Weighted>
0.0000

> <Gold.Goldscore.External.HBond.Weighted>
8.4913

> <Gold.Goldscore.Internal.Correction.Weighted>
-0.7585

> <Gold.Rescore>
     Score     S(PLP)   S(hbond)     S(cho)   S(metal)  DE(clash)   DE(tors)     intcor
     23.60     -19.07       1.56       0.00       0.00       0.00       0.07       ----

> <Gold.PLP.Fitness>
23.5976

> <Gold.PLP.PLP>
-19.0673

> <Gold.PLP.part.hbond>
-5.7035

> <Gold.PLP.part.metal>
0.0000

> <Gold.PLP.part.buried>
2.1847

> <Gold.PLP.part.nonpolar>
-21.9777

> <Gold.PLP.part.repulsive>
6.3937

> <Gold.PLP.ligand.clash>
0.0000

> <Gold.PLP.ligand.torsion>
0.0709

> <Gold.PLP.Chemscore.Hbond>
1.5574

> <Gold.PLP.Chemscore.CHOScore>
0.0000

> <Gold.PLP.Chemscore.Metal>
0.0000

> <Gold.Chemscore.Hbonds>
donor molecule, donor type, donor heavy atom, donor atom, acceptor molecule, acceptor atom, score
      L1  H    10    23       P1  9098  0.29
      P1  H  9538  9550       L1    17  0.80

> <Gold.PLP.Chemscore.Internal.Correction>
   9.000000E+99

