#       Name:                CT1002167954
#       Creating user name   hitesit
#       Creation time:       Sun Apr 16 22:52:11 2023


#       File generated by GOLD software.
#

@<TRIPOS>MOLECULE
CT1002167954|ligand_prepared|mol2|1|dock9
    29    30     1
SMALL
NO_CHARGES


@<TRIPOS>ATOM
      1 C1         112.3404 243.5707 325.8431 C.3            1 RES1               0.0000
      2 C2         112.4910 243.4254 327.3712 C.ar           1 RES1               0.0000
      3 C3         113.1853 244.7762 325.4420 C.2            1 RES1               0.0000
      4 C4         112.8124 242.2520 325.2406 C.2            1 RES1               0.0000
      5 C5         110.8854 243.8143 325.3790 C.3            1 RES1               0.0000
      6 C6         111.7864 244.2585 328.2350 C.ar           1 RES1               0.0000
      7 C7         113.3272 242.4630 327.9308 C.ar           1 RES1               0.0000
      8 N8         114.3626 244.5362 324.7967 N.am           1 RES1               0.0000
      9 O9         112.8430 245.9183 325.7226 O.2            1 RES1               0.0000
     10 N10        113.9430 242.2680 324.4665 N.am           1 RES1               0.0000
     11 O11        112.2248 241.1965 325.4428 O.2            1 RES1               0.0000
     12 C12        110.7097 243.7808 323.8690 C.3            1 RES1               0.0000
     13 C13        111.9109 244.1321 329.6087 C.ar           1 RES1               0.0000
     14 C14        113.4504 242.3385 329.3048 C.ar           1 RES1               0.0000
     15 C15        114.7568 243.3449 324.2425 C.2            1 RES1               0.0000
     16 C16        112.7425 243.1719 330.1444 C.ar           1 RES1               0.0000
     17 O17        115.7870 243.2683 323.5792 O.2            1 RES1               0.0000
     18 H18        110.2392 243.0492 325.8267 H              1 RES1               0.0000
     19 H19        110.5551 244.7919 325.7513 H              1 RES1               0.0000
     20 H20        111.1291 245.0215 327.8317 H              1 RES1               0.0000
     21 H21        113.8946 241.7971 327.2895 H              1 RES1               0.0000
     22 H22        115.0097 245.3143 324.7192 H              1 RES1               0.0000
     23 H23        114.2019 241.3963 324.0155 H              1 RES1               0.0000
     24 H24        109.6711 243.9574 323.5975 H              1 RES1               0.0000
     25 H25        111.3192 244.5460 323.3927 H              1 RES1               0.0000
     26 H26        111.0053 242.8136 323.4677 H              1 RES1               0.0000
     27 H27        111.3526 244.7914 330.2651 H              1 RES1               0.0000
     28 H28        114.1065 241.5818 329.7221 H              1 RES1               0.0000
     29 H29        112.8395 243.0729 331.2205 H              1 RES1               0.0000
@<TRIPOS>BOND
    1    1    2 1     
    2    1    3 1     
    3    1    4 1     
    4    1    5 1     
    5    2    6 ar    
    6    2    7 ar    
    7    3    8 1     
    8    3    9 2     
    9    4   10 1     
   10    4   11 2     
   11    5   12 1     
   12    5   18 1     
   13    5   19 1     
   14    6   13 ar    
   15    6   20 1     
   16    7   14 ar    
   17    7   21 1     
   18    8   15 1     
   19    8   22 1     
   20   10   15 1     
   21   10   23 1     
   22   12   24 1     
   23   12   25 1     
   24   12   26 1     
   25   13   16 ar    
   26   13   27 1     
   27   14   16 ar    
   28   14   28 1     
   29   15   17 2     
   30   16   29 1     
@<TRIPOS>SUBSTRUCTURE
      1 RES1           1
@<TRIPOS>SET
DONOR_HYDROGENS      STATIC     ATOMS    <user>   **** ""
2 22 23
ATOM$RED        STATIC     ATOMS    COLORGROUP SYSTEM
2 22 23
@<TRIPOS>COMMENT
> <Gold.Version>
2022.3.0

> <Gold.Id.Protein>
unknown|4uh6_clean|pdb

> <Gold.Protein.RotatedTorsions>
[ 8453 8448 8449 8450 ] final  106.93 input   43.75 | X-H torsion
[ 8477 8470 8471 8472 ] final -112.85 input  101.27 | X-H torsion
[ 9021 9017 9018 9019 ] final   -1.09 input   41.82 | X-H torsion
[ 9055 9041 9042 9043 ] final  -52.14 input   38.00 | X-H torsion
[ 9099 9087 9088 9089 ] final  169.09 input   99.63 | X-H torsion
[ 9107 9098 9097 9095 ] final -107.46 input   60.00 | X-H torsion
[ 9133 9125 9126 9127 ] final   86.66 input   87.39 | X-H torsion
[ 9211 9202 9203 9204 ] final  -97.10 input  119.00 | X-H torsion
[ 3596 3592 3593 3594 ] final  -69.67 input   87.50 | X-H torsion
[ 9003 8997 8998 8999 ] final   79.45 input   29.71 | X-H torsion
[ 9159 9155 9156 9157 ] final  146.56 input  127.29 | X-H torsion
[ 11075 11068 11069 11070 ] final  -23.08 input   56.03 | X-H torsion
[ 4893 4888 4887 4884 ] final   19.39 input   60.01 | X-H torsion
[ 9007 9002 9001 8998 ] final  143.51 input   59.98 | X-H torsion
[ 8973 8962 8963 8964 ] final  178.07 input   50.05 | X-H torsion
[ 8507 8501 8502 8503 ] final -138.49 input   53.62 | X-H torsion
[ 4912 4907 4908 4909 ] final  163.12 input   25.27 | X-H torsion
[ 8353 8344 8343 8341 ] final  162.29 input   59.99 | X-H torsion
[ 5556 5551 5550 5547 ] final  146.72 input   59.99 | X-H torsion
[ 5580 5571 5572 5573 ] final -117.03 input   51.16 | X-H torsion
[ 9375 9363 9364 9365 ] final  165.32 input  121.73 | X-H torsion
[ 9247 9231 9232 9233 ] final -169.41 input   97.49 | X-H torsion
[ 5552 5546 5547 5548 ] final  -38.24 input   98.49 | X-H torsion
[ 5612 5604 5605 5606 ] final  -70.88 input  122.00 | X-H torsion
[ 8533 8525 8526 8527 ] final -158.91 input   68.51 | X-H torsion
[ 8511 8506 8505 8502 ] final  -28.48 input   59.98 | X-H torsion
[ 9185 9178 9176 9173 ] final  122.02 input   60.02 | X-H torsion
[ 9272 9265 9266 9267 ] final -121.04 input  106.17 | X-H torsion
[ 9298 9282 9283 9284 ] final  -49.28 input   76.97 | X-H torsion
[ 9342 9318 9319 9320 ] final   96.01 input  100.94 | X-H torsion
[ 9412 9391 9392 9393 ] final  175.60 input   95.23 | X-H torsion
[ 12897 12888 12887 12885 ] final   89.54 input   60.01 | X-H torsion
[ 13469 13450 13449 13445 ] final  -77.28 input   59.98 | X-H torsion
[ 3570 3563 3564 3565 ] final -164.83 input   99.66 | X-H torsion
[ 13485 8425 8424 8423 ] final  104.15 input    0.00 | X-H torsion
[ 13489 8965 8964 8963 ] final  -23.50 input    0.00 | X-H torsion
[ 13492 9020 9019 9018 ] final -122.74 input   -0.00 | X-H torsion
[ 13495 9044 9043 9042 ] final   49.45 input    0.00 | X-H torsion
[ 13498 9090 9089 9088 ] final  104.27 input    0.00 | X-H torsion
[ 13503 9128 9127 9126 ] final  -61.69 input    0.00 | X-H torsion
[ 13516 9000 8999 8998 ] final  -12.18 input    0.00 | X-H torsion
[ 13518 8370 8369 8368 ] final   60.54 input    0.00 | X-H torsion
[ 13522 11071 11070 11069 ] final  -51.91 input   -0.00 | X-H torsion
[ 13526 8388 8387 8386 ] final   79.98 input    0.00 | X-H torsion
[ 13530 8451 8450 8449 ] final   98.97 input    0.00 | X-H torsion
[ 13532 8473 8472 8471 ] final -151.62 input    0.00 | X-H torsion
[ 13539 4910 4909 4908 ] final  -88.61 input   -0.00 | X-H torsion
[ 13543 5549 5548 5547 ] final    0.01 input    0.00 | X-H torsion
[ 13547 9205 9204 9203 ] final -167.27 input   -0.00 | X-H torsion
[ 13556 5645 5644 5643 ] final  -25.40 input   -0.00 | X-H torsion
[ 13562 9321 9320 9319 ] final  -52.34 input    0.00 | X-H torsion
[ 13567 5574 5573 5572 ] final  170.64 input    0.00 | X-H torsion
[ 13571 5523 5522 5521 ] final  161.95 input    0.00 | X-H torsion
[ 13573 6144 6143 6142 ] final  -46.88 input    0.00 | X-H torsion
[ 13577 9175 9174 9173 ] final   83.89 input    0.00 | X-H torsion
[ 13581 9234 9233 9232 ] final  -32.43 input    0.00 | X-H torsion
[ 13585 9285 9284 9283 ] final   61.09 input    0.00 | X-H torsion
[ 13592 9366 9365 9364 ] final  -53.65 input   -0.00 | X-H torsion

> <Gold.Protein.ActiveResidues>
 TRP311  MET341  HIS342  TRP414  ARG419  CYS420  VAL421  GLY422  LEU429  LEU460 
 SER462  ALA463  ILE464  ASN481  SER482  GLN483  LEU484  ILE485  ARG486  ASP500 
 ALA502  ASN503  TRP566  TYR567  GLY568  LEU569  PRO570  ALA571  VAL572  SER573 
 ASN574  MET575  PRO588  PHE589  SER590  GLY591  TRP592  TYR593  MET594  GLY595 
 THR596  GLU597  ILE598  GLY599  VAL600  ARG601  ASP602  TYR603  ASP605  ARG608 
 ILE653  VAL654  TRP683  PRO687  SER691  PHE696  HIS697  TYR711  HEM750  H4B760 

> <Gold.Protein.RotatedAtoms>
  121.7575  249.9475  330.2471 H   0  0  0  0  0  0  0  0  0  0  0  0  # atno 3570 bound_to 3563
  124.7035  249.1022  328.7591 H   0  0  0  0  0  0  0  0  0  0  0  0  # atno 3596 bound_to 3592
  125.4410  246.3015  318.2730 H   0  0  0  0  0  0  0  0  0  0  0  0  # atno 4893 bound_to 4888
  123.4307  247.4181  314.7694 H   0  0  0  0  0  0  0  0  0  0  0  0  # atno 4912 bound_to 4907
  106.8150  245.5614  317.6685 H   0  0  0  0  0  0  0  0  0  0  0  0  # atno 5552 bound_to 5546
  107.0847  244.2333  322.2067 H   0  0  0  0  0  0  0  0  0  0  0  0  # atno 5556 bound_to 5551
  108.8226  245.6725  319.1737 H   0  0  0  0  0  0  0  0  0  0  0  0  # atno 5580 bound_to 5571
  110.3359  243.8983  316.8262 H   0  0  0  0  0  0  0  0  0  0  0  0  # atno 5612 bound_to 5604
  112.2436  239.4748  322.0418 H   0  0  0  0  0  0  0  0  0  0  0  0  # atno 8353 bound_to 8344
  115.4465  242.6881  318.5891 H   0  0  0  0  0  0  0  0  0  0  0  0  # atno 8453 bound_to 8448
  114.3398  245.7016  319.0749 H   0  0  0  0  0  0  0  0  0  0  0  0  # atno 8477 bound_to 8470
  112.5035  248.2207  318.3375 H   0  0  0  0  0  0  0  0  0  0  0  0  # atno 8507 bound_to 8501
  109.8900  246.7797  317.4862 H   0  0  0  0  0  0  0  0  0  0  0  0  # atno 8511 bound_to 8506
  109.3523  249.3859  317.9493 H   0  0  0  0  0  0  0  0  0  0  0  0  # atno 8533 bound_to 8525
  115.5735  250.5343  315.7424 H   0  0  0  0  0  0  0  0  0  0  0  0  # atno 8973 bound_to 8962
  119.0825  247.9639  316.1044 H   0  0  0  0  0  0  0  0  0  0  0  0  # atno 9003 bound_to 8997
  119.8100  244.4375  315.0624 H   0  0  0  0  0  0  0  0  0  0  0  0  # atno 9007 bound_to 9002
  120.1892  244.5512  318.7182 H   0  0  0  0  0  0  0  0  0  0  0  0  # atno 9021 bound_to 9017
  121.8898  243.6828  320.8595 H   0  0  0  0  0  0  0  0  0  0  0  0  # atno 9055 bound_to 9041
  121.3660  240.3601  322.0713 H   0  0  0  0  0  0  0  0  0  0  0  0  # atno 9099 bound_to 9087
  114.5417  238.5726  323.1573 H   0  0  0  0  0  0  0  0  0  0  0  0  # atno 9107 bound_to 9098
  120.9866  241.3545  326.5286 H   0  0  0  0  0  0  0  0  0  0  0  0  # atno 9133 bound_to 9125
  123.1357  238.0643  328.6749 H   0  0  0  0  0  0  0  0  0  0  0  0  # atno 9159 bound_to 9155
  119.4830  240.7383  332.9083 H   0  0  0  0  0  0  0  0  0  0  0  0  # atno 9185 bound_to 9178
  118.0532  239.0786  331.1077 H   0  0  0  0  0  0  0  0  0  0  0  0  # atno 9211 bound_to 9202
  116.6365  238.2338  327.8325 H   0  0  0  0  0  0  0  0  0  0  0  0  # atno 9247 bound_to 9231
  116.2267  234.8073  329.1070 H   0  0  0  0  0  0  0  0  0  0  0  0  # atno 9272 bound_to 9265
  115.4059  235.1257  331.9592 H   0  0  0  0  0  0  0  0  0  0  0  0  # atno 9298 bound_to 9282
  114.5662  238.0203  332.0777 H   0  0  0  0  0  0  0  0  0  0  0  0  # atno 9342 bound_to 9318
  112.6463  238.2738  329.8606 H   0  0  0  0  0  0  0  0  0  0  0  0  # atno 9375 bound_to 9363
  112.1853  234.7275  329.3185 H   0  0  0  0  0  0  0  0  0  0  0  0  # atno 9412 bound_to 9391
  125.3136  237.8212  326.1275 H   0  0  0  0  0  0  0  0  0  0  0  0  # atno 11075 bound_to 11068
  112.2678  253.0434  328.8480 H   0  0  0  0  0  0  0  0  0  0  0  0  # atno 12897 bound_to 12888
  109.2926  246.4078  336.3860 H   0  0  0  0  0  0  0  0  0  0  0  0  # atno 13469 bound_to 13450
  118.2905  244.1190  318.4001 LP  0  0  0  0  0  0  0  0  0  0  0  0  # atno 13485 bound_to 8425
  118.1565  244.5791  320.0646 LP  0  0  0  0  0  0  0  0  0  0  0  0  # atno 13486 bound_to 8425
  115.9634  243.7506  319.8754 LP  0  0  0  0  0  0  0  0  0  0  0  0  # atno 13487 bound_to 8448
  115.3244  247.1281  318.8411 LP  0  0  0  0  0  0  0  0  0  0  0  0  # atno 13488 bound_to 8470
  115.9038  248.1167  318.1299 LP  0  0  0  0  0  0  0  0  0  0  0  0  # atno 13489 bound_to 8965
  116.7592  246.6249  317.9229 LP  0  0  0  0  0  0  0  0  0  0  0  0  # atno 13490 bound_to 8965
  120.4799  246.2753  318.7729 LP  0  0  0  0  0  0  0  0  0  0  0  0  # atno 13491 bound_to 9017
  121.5441  242.0700  318.6104 LP  0  0  0  0  0  0  0  0  0  0  0  0  # atno 13492 bound_to 9020
  122.7072  242.9638  317.6894 LP  0  0  0  0  0  0  0  0  0  0  0  0  # atno 13493 bound_to 9020
  123.5506  243.6255  320.3086 LP  0  0  0  0  0  0  0  0  0  0  0  0  # atno 13494 bound_to 9041
  121.8916  243.5041  322.9332 LP  0  0  0  0  0  0  0  0  0  0  0  0  # atno 13495 bound_to 9044
  122.7230  242.6075  324.1599 LP  0  0  0  0  0  0  0  0  0  0  0  0  # atno 13496 bound_to 9044
  122.8858  240.6919  322.8696 LP  0  0  0  0  0  0  0  0  0  0  0  0  # atno 13497 bound_to 9087
  124.1423  240.2999  325.1941 LP  0  0  0  0  0  0  0  0  0  0  0  0  # atno 13498 bound_to 9090
  123.4375  238.7177  325.1938 LP  0  0  0  0  0  0  0  0  0  0  0  0  # atno 13499 bound_to 9090
  114.8864  239.6767  322.0129 LP  0  0  0  0  0  0  0  0  0  0  0  0  # atno 13500 bound_to 9098
  114.5844  240.1521  323.5456 LP  0  0  0  0  0  0  0  0  0  0  0  0  # atno 13501 bound_to 9098
  122.1245  240.3281  325.6859 LP  0  0  0  0  0  0  0  0  0  0  0  0  # atno 13502 bound_to 9125
  119.7339  239.8636  328.6874 LP  0  0  0  0  0  0  0  0  0  0  0  0  # atno 13503 bound_to 9128
  119.7658  238.4976  327.6229 LP  0  0  0  0  0  0  0  0  0  0  0  0  # atno 13504 bound_to 9128
  118.7842  238.7754  329.5525 LP  0  0  0  0  0  0  0  0  0  0  0  0  # atno 13505 bound_to 9202
  123.3340  248.7137  327.7485 LP  0  0  0  0  0  0  0  0  0  0  0  0  # atno 13514 bound_to 3592
  118.3591  248.3779  317.6345 LP  0  0  0  0  0  0  0  0  0  0  0  0  # atno 13515 bound_to 8997
  121.1822  247.5516  316.6867 LP  0  0  0  0  0  0  0  0  0  0  0  0  # atno 13516 bound_to 9000
  122.3079  247.0456  317.9019 LP  0  0  0  0  0  0  0  0  0  0  0  0  # atno 13517 bound_to 9000
  121.0690  237.8721  319.0389 LP  0  0  0  0  0  0  0  0  0  0  0  0  # atno 13518 bound_to 8370
  119.7879  238.6248  319.9290 LP  0  0  0  0  0  0  0  0  0  0  0  0  # atno 13519 bound_to 8370
  121.5988  238.9006  328.6886 LP  0  0  0  0  0  0  0  0  0  0  0  0  # atno 13520 bound_to 9155
  126.0942  238.9824  325.0873 LP  0  0  0  0  0  0  0  0  0  0  0  0  # atno 13521 bound_to 11068
  124.5494  239.6682  328.3400 LP  0  0  0  0  0  0  0  0  0  0  0  0  # atno 13522 bound_to 11071
  124.4058  238.0376  328.9061 LP  0  0  0  0  0  0  0  0  0  0  0  0  # atno 13523 bound_to 11071
  124.5399  247.3107  319.1778 LP  0  0  0  0  0  0  0  0  0  0  0  0  # atno 13524 bound_to 4888
  126.1151  247.6424  318.9029 LP  0  0  0  0  0  0  0  0  0  0  0  0  # atno 13525 bound_to 4888
  115.6042  239.4902  318.3676 LP  0  0  0  0  0  0  0  0  0  0  0  0  # atno 13526 bound_to 8388
  115.7763  240.9946  317.5268 LP  0  0  0  0  0  0  0  0  0  0  0  0  # atno 13527 bound_to 8388
  120.5126  245.7657  315.6867 LP  0  0  0  0  0  0  0  0  0  0  0  0  # atno 13528 bound_to 9002
  119.2588  245.9120  314.6509 LP  0  0  0  0  0  0  0  0  0  0  0  0  # atno 13529 bound_to 9002
  112.5171  244.7587  318.6277 LP  0  0  0  0  0  0  0  0  0  0  0  0  # atno 13530 bound_to 8451
  112.8479  245.4868  317.0913 LP  0  0  0  0  0  0  0  0  0  0  0  0  # atno 13531 bound_to 8451
  113.1893  250.0033  317.4428 LP  0  0  0  0  0  0  0  0  0  0  0  0  # atno 13532 bound_to 8473
  114.5207  248.9360  317.7398 LP  0  0  0  0  0  0  0  0  0  0  0  0  # atno 13533 bound_to 8473
  115.2737  248.9406  316.3952 LP  0  0  0  0  0  0  0  0  0  0  0  0  # atno 13534 bound_to 8962
  110.8964  247.9490  318.9584 LP  0  0  0  0  0  0  0  0  0  0  0  0  # atno 13535 bound_to 8501
  122.3856  248.3467  315.8152 LP  0  0  0  0  0  0  0  0  0  0  0  0  # atno 13538 bound_to 4907
  119.5286  248.5356  314.8099 LP  0  0  0  0  0  0  0  0  0  0  0  0  # atno 13539 bound_to 4910
  120.3533  249.5792  315.9194 LP  0  0  0  0  0  0  0  0  0  0  0  0  # atno 13540 bound_to 4910
  109.3159  247.5997  320.1571 LP  0  0  0  0  0  0  0  0  0  0  0  0  # atno 13543 bound_to 5549
  110.5342  246.4749  319.6566 LP  0  0  0  0  0  0  0  0  0  0  0  0  # atno 13544 bound_to 5549
  111.3372  238.1778  322.4226 LP  0  0  0  0  0  0  0  0  0  0  0  0  # atno 13545 bound_to 8344
  110.8987  239.1490  321.1851 LP  0  0  0  0  0  0  0  0  0  0  0  0  # atno 13546 bound_to 8344
  114.1572  237.7648  329.1054 LP  0  0  0  0  0  0  0  0  0  0  0  0  # atno 13547 bound_to 9205
  114.2924  239.4604  329.4318 LP  0  0  0  0  0  0  0  0  0  0  0  0  # atno 13548 bound_to 9205
  107.6583  244.0953  320.6900 LP  0  0  0  0  0  0  0  0  0  0  0  0  # atno 13553 bound_to 5551
  106.0602  243.9265  320.9800 LP  0  0  0  0  0  0  0  0  0  0  0  0  # atno 13554 bound_to 5551
  108.1880  244.0433  319.0333 LP  0  0  0  0  0  0  0  0  0  0  0  0  # atno 13555 bound_to 5571
  112.3595  239.9490  318.3440 LP  0  0  0  0  0  0  0  0  0  0  0  0  # atno 13556 bound_to 5645
  110.8492  239.9925  319.1909 LP  0  0  0  0  0  0  0  0  0  0  0  0  # atno 13557 bound_to 5645
  112.0424  237.1717  331.0779 LP  0  0  0  0  0  0  0  0  0  0  0  0  # atno 13560 bound_to 9363
  116.9455  237.5403  329.4099 LP  0  0  0  0  0  0  0  0  0  0  0  0  # atno 13561 bound_to 9231
  110.2366  236.9713  332.5018 LP  0  0  0  0  0  0  0  0  0  0  0  0  # atno 13562 bound_to 9321
  109.6324  237.7184  331.0607 LP  0  0  0  0  0  0  0  0  0  0  0  0  # atno 13563 bound_to 9321
  105.5414  245.2112  318.8104 LP  0  0  0  0  0  0  0  0  0  0  0  0  # atno 13566 bound_to 5546
  108.9592  242.9554  315.7934 LP  0  0  0  0  0  0  0  0  0  0  0  0  # atno 13567 bound_to 5574
  108.3926  242.9648  317.4301 LP  0  0  0  0  0  0  0  0  0  0  0  0  # atno 13568 bound_to 5574
  112.0677  244.1214  316.7373 LP  0  0  0  0  0  0  0  0  0  0  0  0  # atno 13569 bound_to 5604
  110.3027  250.2568  319.1231 LP  0  0  0  0  0  0  0  0  0  0  0  0  # atno 13570 bound_to 8525
  107.2023  247.8470  317.8871 LP  0  0  0  0  0  0  0  0  0  0  0  0  # atno 13571 bound_to 5523
  107.0730  247.4952  316.1961 LP  0  0  0  0  0  0  0  0  0  0  0  0  # atno 13572 bound_to 5523
  101.8188  242.3222  325.5402 LP  0  0  0  0  0  0  0  0  0  0  0  0  # atno 13573 bound_to 6144
  102.6770  242.2151  324.0396 LP  0  0  0  0  0  0  0  0  0  0  0  0  # atno 13574 bound_to 6144
  109.8948  246.0471  316.0327 LP  0  0  0  0  0  0  0  0  0  0  0  0  # atno 13575 bound_to 8506
  108.7511  247.1577  316.3863 LP  0  0  0  0  0  0  0  0  0  0  0  0  # atno 13576 bound_to 8506
  116.4673  238.7943  332.5045 LP  0  0  0  0  0  0  0  0  0  0  0  0  # atno 13577 bound_to 9175
  116.1959  237.4508  331.4455 LP  0  0  0  0  0  0  0  0  0  0  0  0  # atno 13578 bound_to 9175
  119.9762  240.0108  331.5385 LP  0  0  0  0  0  0  0  0  0  0  0  0  # atno 13579 bound_to 9178
  120.9820  240.1106  332.8211 LP  0  0  0  0  0  0  0  0  0  0  0  0  # atno 13580 bound_to 9178
  113.6546  235.5561  329.3497 LP  0  0  0  0  0  0  0  0  0  0  0  0  # atno 13581 bound_to 9234
  114.3004  234.0676  329.9559 LP  0  0  0  0  0  0  0  0  0  0  0  0  # atno 13582 bound_to 9234
  117.1005  235.9054  330.1527 LP  0  0  0  0  0  0  0  0  0  0  0  0  # atno 13583 bound_to 9265
  116.8151  235.9975  332.5081 LP  0  0  0  0  0  0  0  0  0  0  0  0  # atno 13584 bound_to 9282
  112.6050  236.3876  334.9818 LP  0  0  0  0  0  0  0  0  0  0  0  0  # atno 13585 bound_to 9285
  111.9992  235.9477  333.4198 LP  0  0  0  0  0  0  0  0  0  0  0  0  # atno 13586 bound_to 9285
  113.7395  237.0921  333.3062 LP  0  0  0  0  0  0  0  0  0  0  0  0  # atno 13587 bound_to 9318
  111.3972  235.4163  330.7188 LP  0  0  0  0  0  0  0  0  0  0  0  0  # atno 13588 bound_to 9391
  108.8685  235.6458  329.6033 LP  0  0  0  0  0  0  0  0  0  0  0  0  # atno 13592 bound_to 9366
  109.4426  234.1937  328.8538 LP  0  0  0  0  0  0  0  0  0  0  0  0  # atno 13593 bound_to 9366
  111.2057  251.8112  328.8907 LP  0  0  0  0  0  0  0  0  0  0  0  0  # atno 13594 bound_to 12888
  111.1550  252.9767  330.0334 LP  0  0  0  0  0  0  0  0  0  0  0  0  # atno 13595 bound_to 12888
  108.8115  246.9888  337.8284 LP  0  0  0  0  0  0  0  0  0  0  0  0  # atno 13596 bound_to 13450
  110.3839  246.6295  337.5732 LP  0  0  0  0  0  0  0  0  0  0  0  0  # atno 13597 bound_to 13450

> <Gold.Score>
     Fitness  S(hb_ext) S(vdw_ext)  S(hb_int)    S(int)      intcor
     32.31       1.94      22.90       0.00      -1.12      -0.76

> <Gold.Goldscore.Fitness>
32.3108

> <Gold.Goldscore.Internal.Vdw>
-1.4282

> <Gold.Goldscore.Internal.Torsion>
-0.4497

> <Gold.Goldscore.External.Vdw>
22.8986

> <Gold.Goldscore.Internal.HBond>
0.0000

> <Gold.Goldscore.External.HBond>
1.9446

> <Gold.Goldscore.Internal.Correction>
-0.7585

> <Gold.Goldscore.Hbonds>
donor molecule, donor type, donor heavy atom, donor atom, acceptor molecule, acceptor atom, score
      L1  H    10    23       P1  9098  0.97

> <Gold.Goldscore.Internal.Vdw.Weighted>
-1.4282

> <Gold.Goldscore.Internal.Torsion.Weighted>
-0.4497

> <Gold.Goldscore.External.Vdw.Weighted>
31.4856

> <Gold.Goldscore.Internal.HBond.Weighted>
0.0000

> <Gold.Goldscore.External.HBond.Weighted>
1.9446

> <Gold.Goldscore.Internal.Correction.Weighted>
-0.7585

> <Gold.Rescore>
     Score     S(PLP)   S(hbond)     S(cho)   S(metal)  DE(clash)   DE(tors)     intcor
     21.01     -23.25       0.00       0.00       0.00       0.00       1.12       ----

> <Gold.PLP.Fitness>
21.0114

> <Gold.PLP.PLP>
-23.2498

> <Gold.PLP.part.hbond>
0.0000

> <Gold.PLP.part.metal>
0.0000

> <Gold.PLP.part.buried>
-6.4529

> <Gold.PLP.part.nonpolar>
-18.7996

> <Gold.PLP.part.repulsive>
2.4691

> <Gold.PLP.ligand.clash>
0.0000

> <Gold.PLP.ligand.torsion>
1.1192

> <Gold.PLP.Chemscore.Hbond>
0.0000

> <Gold.PLP.Chemscore.CHOScore>
0.0000

> <Gold.PLP.Chemscore.Metal>
0.0000

> <Gold.Chemscore.Hbonds>
donor molecule, donor type, donor heavy atom, donor atom, acceptor molecule, acceptor atom, score
      L1  H    10    23       P1  9098  0.37

> <Gold.PLP.Chemscore.Internal.Correction>
   9.000000E+99

