@<TRIPOS>MOLECULE
B:OLW800
    39    41     1     0     1
SMALL
NO_CHARGES
****
Generated from the CSD

@<TRIPOS>ATOM
     1 N8'    106.2090 250.7040 326.2180   N.1       1 OLW800   0.0000
     2 C7'    106.9370 249.8960 326.6260   C.1       1 OLW800   0.0000
     3 C6'    109.4940 247.0480 328.0320   C.ar      1 OLW800   0.0000
     4 C5'    108.7190 247.7860 328.9300   C.ar      1 OLW800   0.0000
     5 C4'    107.8470 248.7650 328.4590   C.ar      1 OLW800   0.0000
     6 C3'    107.7460 248.9980 327.0810   C.ar      1 OLW800   0.0000
     7 C2'    108.5210 248.2590 326.1880   C.ar      1 OLW800   0.0000
     8 C1'    109.3960 247.2850 326.6610   C.ar      1 OLW800   0.0000
     9 N01    118.0380 247.0160 322.9000   N.2       1 OLW800   0.0000
    10 C02    116.8230 246.5890 323.2970   C.2       1 OLW800   0.0000
    11 N03    116.6290 245.5150 322.5510   N.pl3     1 OLW800   0.0000
    12 C04    117.5950 245.2300 321.6910   C.2       1 OLW800   0.0000
    13 C05    118.5360 246.2120 321.9370   C.2       1 OLW800   0.0000
    14 N11    115.1960 243.8550 321.7430   N.ar      1 OLW800   0.0000
    15 C12    115.5020 244.8220 322.6430   C.ar      1 OLW800   0.0000
    16 N13    114.6570 245.1640 323.6330   N.ar      1 OLW800   0.0000
    17 C14    113.4970 244.5190 323.7760   C.ar      1 OLW800   0.0000
    18 C15    113.1560 243.5210 322.8700   C.ar      1 OLW800   0.0000
    19 C16    114.0400 243.1960 321.8480   C.ar      1 OLW800   0.0000
    20 C17    112.5780 244.9470 324.8910   C.3       1 OLW800   0.0000
    21 C18    112.4310 246.4510 324.6930   C.3       1 OLW800   0.0000
    22 N19    111.5950 247.0590 325.7280   N.3       1 OLW800   0.0000
    23 C20    110.2370 246.4990 325.6810   C.3       1 OLW800   0.0000
    24 H1     117.6376 244.4187 320.9659   H         1 OLW800   0.0000
    25 H2     112.2047 242.9986 322.9604   H         1 OLW800   0.0000
    26 H3     108.4416 248.4442 325.1178   H         1 OLW800   0.0000
    27 H4     107.2471 249.3460 329.1579   H         1 OLW800   0.0000
    28 H5     109.8279 246.5959 324.6764   H         1 OLW800   0.0000
    29 H6     110.2567 245.4479 325.9651   H         1 OLW800   0.0000
    30 H7     111.9768 246.6352 323.7205   H         1 OLW800   0.0000
    31 H8     113.4188 246.9084 324.7248   H         1 OLW800   0.0000
    32 H9     119.5015 246.3176 321.4445   H         1 OLW800   0.0000
    33 H10    116.1634 247.0221 324.0475   H         1 OLW800   0.0000
    34 H11    108.7966 247.5958 329.9994   H         1 OLW800   0.0000
    35 H12    110.1768 246.2853 328.4036   H         1 OLW800   0.0000
    36 H13    113.0188 244.7259 325.8620   H         1 OLW800   0.0000
    37 H14    111.6126 244.4499 324.8089   H         1 OLW800   0.0000
    38 H15    113.7912 242.4090 321.1376   H         1 OLW800   0.0000
    39 H16    111.5493 248.0614 325.5754   H         1 OLW800   0.0000
@<TRIPOS>BOND
     1     1     2    3
     2     3     4   ar
     3     4     5   ar
     4     2     6    1
     5     5     6   ar
     6     6     7   ar
     7     3     8   ar
     8     7     8   ar
     9     9    10    2
    10    10    11    1
    11    11    12    1
    12     9    13    1
    13    12    13    2
    14    11    15    1
    15    14    15   ar
    16    15    16   ar
    17    16    17   ar
    18    17    18   ar
    19    14    19   ar
    20    18    19   ar
    21    17    20    1
    22    20    21    1
    23    21    22    1
    24     8    23    1
    25    22    23    1
    26    12    24    1
    27    18    25    1
    28     7    26    1
    29     5    27    1
    30    23    28    1
    31    23    29    1
    32    21    30    1
    33    21    31    1
    34    13    32    1
    35    10    33    1
    36     4    34    1
    37     3    35    1
    38    20    36    1
    39    20    37    1
    40    19    38    1
    41    22    39    1
@<TRIPOS>SUBSTRUCTURE
     1 OLW800      1 GROUP             0 B     OLW     0  
@<TRIPOS>SET
CCDC_LIGAND STATIC ATOMS
39 1 2 3 4 5 6 7 8 9 \
10 11 12 13 14 15 16 17 18 19 \
20 21 22 23 24 25 26 27 28 29 \
30 31 32 33 34 35 36 37 38 39 
