@<TRIPOS>MOLECULE
A:OLW800
    39    41     1     0     1
SMALL
NO_CHARGES
****
Generated from the CSD

@<TRIPOS>ATOM
     1 N8'    123.6570 255.1620 355.3540   N.1       1 OLW800   0.0000
     2 C7'    123.6000 254.0480 355.0420   C.1       1 OLW800   0.0000
     3 C6'    123.3620 250.0930 354.0670   C.ar      1 OLW800   0.0000
     4 C5'    123.8820 251.0110 353.1560   C.ar      1 OLW800   0.0000
     5 C4'    123.9650 252.3630 353.4760   C.ar      1 OLW800   0.0000
     6 C3'    123.5280 252.8040 354.7190   C.ar      1 OLW800   0.0000
     7 C2'    123.0140 251.8900 355.6350   C.ar      1 OLW800   0.0000
     8 C1'    122.9300 250.5410 355.3090   C.ar      1 OLW800   0.0000
     9 N01    114.9330 246.5650 359.4020   N.2       1 OLW800   0.0000
    10 C02    116.1170 246.6940 358.7660   C.2       1 OLW800   0.0000
    11 N03    116.9610 246.1750 359.6560   N.pl3     1 OLW800   0.0000
    12 C04    116.4240 245.7200 360.7860   C.2       1 OLW800   0.0000
    13 C05    115.0780 245.9790 360.6200   C.2       1 OLW800   0.0000
    14 N11    118.9860 245.2270 360.1790   N.ar      1 OLW800   0.0000
    15 C12    118.2660 246.0890 359.4320   C.ar      1 OLW800   0.0000
    16 N13    118.8430 246.8580 358.4790   N.ar      1 OLW800   0.0000
    17 C14    120.1730 246.7560 358.2690   C.ar      1 OLW800   0.0000
    18 C15    120.9360 245.8820 359.0260   C.ar      1 OLW800   0.0000
    19 C16    120.3010 245.1070 359.9870   C.ar      1 OLW800   0.0000
    20 C17    120.8270 247.6060 357.2230   C.3       1 OLW800   0.0000
    21 C18    120.2670 249.0020 357.3850   C.3       1 OLW800   0.0000
    22 N19    120.9200 249.9140 356.4380   N.3       1 OLW800   0.0000
    23 C20    122.3510 249.5860 356.3170   C.3       1 OLW800   0.0000
    24 H1     122.0111 245.8045 358.8706   H         1 OLW800   0.0000
    25 H2     120.5973 247.2223 356.2300   H         1 OLW800   0.0000
    26 H3     121.9063 247.6154 357.3678   H         1 OLW800   0.0000
    27 H4     116.3269 247.1127 357.7829   H         1 OLW800   0.0000
    28 H5     116.9246 245.2563 361.6348   H         1 OLW800   0.0000
    29 H6     122.6761 252.2334 356.6116   H         1 OLW800   0.0000
    30 H7     124.3705 253.0718 352.7556   H         1 OLW800   0.0000
    31 H8     120.8762 244.4010 360.5842   H         1 OLW800   0.0000
    32 H9     124.2274 250.6663 352.1824   H         1 OLW800   0.0000
    33 H10    123.2952 249.0373 353.8082   H         1 OLW800   0.0000
    34 H11    122.8469 249.7093 357.2787   H         1 OLW800   0.0000
    35 H12    122.4730 248.5595 355.9746   H         1 OLW800   0.0000
    36 H13    120.8220 250.8681 356.7701   H         1 OLW800   0.0000
    37 H14    120.4468 249.3477 358.4019   H         1 OLW800   0.0000
    38 H15    119.1955 248.9862 357.1911   H         1 OLW800   0.0000
    39 H16    114.2831 245.7561 361.3302   H         1 OLW800   0.0000
@<TRIPOS>BOND
     1     1     2    3
     2     3     4   ar
     3     4     5   ar
     4     2     6    1
     5     5     6   ar
     6     6     7   ar
     7     3     8   ar
     8     7     8   ar
     9     9    10    2
    10    10    11    1
    11    11    12    1
    12     9    13    1
    13    12    13    2
    14    11    15    1
    15    14    15   ar
    16    15    16   ar
    17    16    17   ar
    18    17    18   ar
    19    14    19   ar
    20    18    19   ar
    21    17    20    1
    22    20    21    1
    23    21    22    1
    24     8    23    1
    25    22    23    1
    26    18    24    1
    27    20    25    1
    28    20    26    1
    29    10    27    1
    30    12    28    1
    31     7    29    1
    32     5    30    1
    33    19    31    1
    34     4    32    1
    35     3    33    1
    36    23    34    1
    37    23    35    1
    38    22    36    1
    39    21    37    1
    40    21    38    1
    41    13    39    1
@<TRIPOS>SUBSTRUCTURE
     1 OLW800      1 GROUP             0 A     OLW     0  
@<TRIPOS>SET
CCDC_LIGAND STATIC ATOMS
39 1 2 3 4 5 6 7 8 9 \
10 11 12 13 14 15 16 17 18 19 \
20 21 22 23 24 25 26 27 28 29 \
30 31 32 33 34 35 36 37 38 39 
