#       Name:                example_2
#       Creating user name   hitesit
#       Creation time:       Mon Nov  6 23:22:36 2023


#       File generated by GOLD software.
#

@<TRIPOS>MOLECULE
example_2|example_2_prep|mol2|1|dock1
    42    44     1
SMALL
NO_CHARGES


@<TRIPOS>ATOM
      1 O1          20.1896 -29.0999  48.5701 O.3            1 RES1               0.0000
      2 C2          20.6906 -29.7200  47.4523 C.ar           1 RES1               0.0000
      3 C3          21.1137 -28.6865  49.5669 C.3            1 RES1               0.0000
      4 C4          19.7478 -30.1142  46.4898 C.ar           1 RES1               0.0000
      5 C5          22.0487 -29.9799  47.2325 C.ar           1 RES1               0.0000
      6 O6          18.4343 -29.8445  46.7763 O.3            1 RES1               0.0000
      7 C7          20.1916 -30.7465  45.3284 C.ar           1 RES1               0.0000
      8 C8          22.5013 -30.6093  46.0796 C.ar           1 RES1               0.0000
      9 C9          17.4614 -30.1889  45.7999 C.3            1 RES1               0.0000
     10 C10         21.5703 -30.9751  45.1021 C.ar           1 RES1               0.0000
     11 N11         23.8103 -30.8508  45.9534 N.ar           1 RES1               0.0000
     12 C12         22.1068 -31.5918  43.9615 C.ar           1 RES1               0.0000
     13 C13         24.1995 -31.4897  44.8442 C.ar           1 RES1               0.0000
     14 N14         23.4113 -31.8794  43.8375 N.ar           1 RES1               0.0000
     15 N15         21.3221 -31.9572  42.8639 N.pl3          1 RES1               0.0000
     16 C16         21.9770 -32.8299  41.8750 C.3            1 RES1               0.0000
     17 C17         21.8262 -34.2748  42.3378 C.ar           1 RES1               0.0000
     18 C18         21.4086 -32.6723  40.4654 C.3            1 RES1               0.0000
     19 C19         20.5610 -34.8752  42.4551 C.ar           1 RES1               0.0000
     20 C20         22.9622 -35.0337  42.6603 C.ar           1 RES1               0.0000
     21 C21         20.4370 -36.1995  42.8782 C.ar           1 RES1               0.0000
     22 C22         22.8356 -36.3584  43.0830 C.ar           1 RES1               0.0000
     23 C23         21.5742 -36.9406  43.1907 C.ar           1 RES1               0.0000
     24 H1          20.5756 -28.2140  50.3873 H              1 RES1               0.0000
     25 H2          21.8173 -27.9751  49.1369 H              1 RES1               0.0000
     26 H3          21.6567 -29.5534  49.9405 H              1 RES1               0.0000
     27 H4          22.7726 -29.6794  47.9885 H              1 RES1               0.0000
     28 H5          19.4658 -31.0695  44.5836 H              1 RES1               0.0000
     29 H6          16.4711 -29.9182  46.1630 H              1 RES1               0.0000
     30 H7          17.4989 -31.2610  45.6125 H              1 RES1               0.0000
     31 H8          17.6686 -29.6514  44.8758 H              1 RES1               0.0000
     32 H9          25.2612 -31.7140  44.7527 H              1 RES1               0.0000
     33 H10         20.3635 -31.6416  42.7557 H              1 RES1               0.0000
     34 H11         23.0379 -32.5854  41.8483 H              1 RES1               0.0000
     35 H12         21.5201 -31.6382  40.1425 H              1 RES1               0.0000
     36 H13         20.3530 -32.9400  40.4676 H              1 RES1               0.0000
     37 H14         21.9475 -33.3263  39.7814 H              1 RES1               0.0000
     38 H15         19.6678 -34.3011  42.2133 H              1 RES1               0.0000
     39 H16         23.9513 -34.5852  42.5800 H              1 RES1               0.0000
     40 H17         19.4508 -36.6534  42.9641 H              1 RES1               0.0000
     41 H18         23.7243 -36.9377  43.3290 H              1 RES1               0.0000
     42 H19         21.4775 -37.9745  43.5190 H              1 RES1               0.0000
@<TRIPOS>BOND
    1    1    2 1     
    2    1    3 1     
    3    2    4 ar    
    4    2    5 ar    
    5    4    6 1     
    6    4    7 ar    
    7    5    8 ar    
    8    6    9 1     
    9    7   10 ar    
   10    8   11 ar    
   11   10   12 ar    
   12   11   13 ar    
   13   12   14 ar    
   14   12   15 1     
   15   15   16 1     
   16   16   17 1     
   17   16   18 1     
   18   17   19 ar    
   19   17   20 ar    
   20   19   21 ar    
   21   20   22 ar    
   22   21   23 ar    
   23    8   10 ar    
   24   13   14 ar    
   25   22   23 ar    
   26    3   24 1     
   27    3   25 1     
   28    3   26 1     
   29    5   27 1     
   30    7   28 1     
   31    9   29 1     
   32    9   30 1     
   33    9   31 1     
   34   13   32 1     
   35   15   33 1     
   36   16   34 1     
   37   18   35 1     
   38   18   36 1     
   39   18   37 1     
   40   19   38 1     
   41   20   39 1     
   42   21   40 1     
   43   22   41 1     
   44   23   42 1     
@<TRIPOS>SUBSTRUCTURE
      1 RES1           1
@<TRIPOS>SET
DONOR_HYDROGENS      STATIC     ATOMS    <user>   **** ""
1 33
ATOM$RED        STATIC     ATOMS    COLORGROUP SYSTEM
1 33
@<TRIPOS>COMMENT
> <Gold.Version>
2022.3.0

> <Gold.Id.Protein>
unknown|5ovf_clean|pdb

> <Gold.Protein.ActiveResidues>
 ILE839  VAL852  ILE856  LEU859  VAL871  LEU872  GLU873  VAL874  VAL875  SER876 
 ALA877  MET878  ASN879  SER880  SER881  PRO882  VAL883  TYR884  ARG885  LEU886 
 ASP887  HIS888  THR889  PHE890  GLU891  GLN892  ILE893  PRO894  SER895  ARG896 
 GLN897  LYS898  LYS899  ILE900  LEU901  GLU902  GLU903  ALA904  HIS905  GLU906 
 LEU907  SER908  GLU909  LYS914  GLU836  ILE839  VAL852  ILE855  ILE856  LEU859 
 GLN863  VAL871  LEU872  VAL874  VAL875  SER876  ALA877  MET878  ASN879  SER880 
 SER881  PRO882  VAL883  TYR884  ARG885  LEU886  ASP887  HIS888  THR889  PHE890 
 GLU891  GLN892  ILE893  PRO894  SER895  ARG896  GLN897  LYS898  LYS899  ILE900 
 LEU901  GLU902  GLU903  ALA904  HIS905  GLU906  LEU907  SER908  GLU909  ASP910 
 LYS914 

> <Gold.Score>
     Fitness  S(hb_ext) S(vdw_ext)  S(hb_int)    S(int)      intcor
     64.15       1.97      48.50       0.00      -4.51      -7.20

> <Gold.Goldscore.Fitness>
64.1466

> <Gold.Goldscore.Internal.Vdw>
-9.8804

> <Gold.Goldscore.Internal.Torsion>
-1.8338

> <Gold.Goldscore.External.Vdw>
48.5011

> <Gold.Goldscore.Internal.HBond>
0.0000

> <Gold.Goldscore.External.HBond>
1.9711

> <Gold.Goldscore.Internal.Correction>
-7.2007

> <Gold.Goldscore.Reference.RMSD>
5.3319

> <Gold.Goldscore.Hbonds>
donor molecule, donor type, donor heavy atom, donor atom, acceptor molecule, acceptor atom, score
      L1  H    15    33       P1  2553  0.99

> <Gold.Goldscore.Internal.Vdw.Weighted>
-9.8804

> <Gold.Goldscore.Internal.Torsion.Weighted>
-1.8338

> <Gold.Goldscore.External.Vdw.Weighted>
66.6891

> <Gold.Goldscore.Internal.HBond.Weighted>
0.0000

> <Gold.Goldscore.External.HBond.Weighted>
1.9711

> <Gold.Goldscore.Internal.Correction.Weighted>
-7.2007

> <Gold.Rescore>
     Score         DG    S(hbond)    S(metal)    S(lipo)     H(rot)  DE(clash)    DE(int)     intcor
     29.77     -30.20       0.97        0.00     217.74       1.56       0.01       0.43       ----

> <Gold.Chemscore.Fitness>
29.7688

> <Gold.Chemscore.DG>
-30.2039

> <Gold.Chemscore.ZeroCoef>
-5.4800

> <Gold.Chemscore.Hbond>
0.9675

> <Gold.Chemscore.Metal>
0.0000

> <Gold.Chemscore.Lipo>
217.7420

> <Gold.Chemscore.Internal_Hbond>
0.0000

> <Gold.Chemscore.DEClash>
0.0077

> <Gold.Chemscore.DEInternal>
0.4274

> <Gold.Chemscore.Rot>
1.5560

> <Gold.Chemscore.Internal.Correction>
   9.000000E+99

> <Gold.Chemscore.Reference.RMSD>
0.0000

> <Gold.Chemscore.Hbonds>
donor molecule, donor type, donor heavy atom, donor atom, acceptor molecule, acceptor atom, score
      L1  H    15    33       P1  2553  0.97

> <Gold.Chemscore.Hbond.Weighted>
-3.2315

> <Gold.Chemscore.Metal.Weighted>
-0.0000

> <Gold.Chemscore.Lipo.Weighted>
-25.4758

> <Gold.Chemscore.Internal_Hbond.Weighted>
0.0000

> <Gold.Chemscore.DEClash.Weighted>
0.0077

> <Gold.Chemscore.DEInternal.Weighted>
0.4274

> <Gold.Chemscore.Rot.Weighted>
3.9834

> <Gold.Chemscore.Internal.Correction.Weighted>
   9.000000E+99

> <Gold.Reference.RMSD>
5.3319

