#       Name:                example_2
#       Creating user name   hitesit
#       Creation time:       Mon Nov  6 23:23:06 2023


#       File generated by GOLD software.
#

@<TRIPOS>MOLECULE
example_2|example_2_prep|mol2|1|dock8
    42    44     1
SMALL
NO_CHARGES


@<TRIPOS>ATOM
      1 O1          20.3159 -39.8449  48.1819 O.3            1 RES1               0.0000
      2 C2          21.0713 -39.2320  47.2131 C.ar           1 RES1               0.0000
      3 C3          20.9956 -40.6275  49.1535 C.3            1 RES1               0.0000
      4 C4          20.3597 -38.5384  46.2216 C.ar           1 RES1               0.0000
      5 C5          22.4700 -39.2685  47.1582 C.ar           1 RES1               0.0000
      6 O6          18.9926 -38.5573  46.3260 O.3            1 RES1               0.0000
      7 C7          21.0680 -37.8901  45.2099 C.ar           1 RES1               0.0000
      8 C8          23.1850 -38.6268  46.1548 C.ar           1 RES1               0.0000
      9 C9          18.2764 -37.4385  45.8221 C.3            1 RES1               0.0000
     10 C10         22.4834 -37.9067  45.1827 C.ar           1 RES1               0.0000
     11 N11         24.5180 -38.7312  46.1511 N.ar           1 RES1               0.0000
     12 C12         23.2767 -37.2749  44.2128 C.ar           1 RES1               0.0000
     13 C13         25.1655 -38.1274  45.1480 C.ar           1 RES1               0.0000
     14 N14         24.6114 -37.4042  44.1701 N.ar           1 RES1               0.0000
     15 N15         22.7371 -36.4615  43.2122 N.pl3          1 RES1               0.0000
     16 C16         22.7912 -35.0128  43.4709 C.3            1 RES1               0.0000
     17 C17         21.7678 -34.3278  42.5721 C.ar           1 RES1               0.0000
     18 C18         22.5246 -34.6535  44.9321 C.3            1 RES1               0.0000
     19 C19         20.3949 -34.6065  42.6849 C.ar           1 RES1               0.0000
     20 C20         22.1876 -33.4006  41.6054 C.ar           1 RES1               0.0000
     21 C21         19.4683 -33.9710  41.8569 C.ar           1 RES1               0.0000
     22 C22         21.2585 -32.7658  40.7785 C.ar           1 RES1               0.0000
     23 C23         19.9003 -33.0502  40.9052 C.ar           1 RES1               0.0000
     24 H1          20.2728 -41.0480  49.8512 H              1 RES1               0.0000
     25 H2          21.7012 -40.0001  49.6961 H              1 RES1               0.0000
     26 H3          21.5336 -41.4343  48.6581 H              1 RES1               0.0000
     27 H4          23.0140 -39.8168  47.9258 H              1 RES1               0.0000
     28 H5          20.5234 -37.3627  44.4281 H              1 RES1               0.0000
     29 H6          17.2090 -37.5930  45.9728 H              1 RES1               0.0000
     30 H7          18.4804 -37.3262  44.7583 H              1 RES1               0.0000
     31 H8          18.5909 -36.5389  46.3490 H              1 RES1               0.0000
     32 H9          26.2488 -38.2357  45.1261 H              1 RES1               0.0000
     33 H10         22.3344 -36.8444  42.3628 H              1 RES1               0.0000
     34 H11         23.7827 -34.6513  43.2024 H              1 RES1               0.0000
     35 H12         23.2593 -35.1464  45.5670 H              1 RES1               0.0000
     36 H13         21.5248 -34.9833  45.2104 H              1 RES1               0.0000
     37 H14         22.5996 -33.5746  45.0601 H              1 RES1               0.0000
     38 H15         20.0504 -35.3260  43.4262 H              1 RES1               0.0000
     39 H16         23.2475 -33.1741  41.4995 H              1 RES1               0.0000
     40 H17         18.4071 -34.1951  41.9550 H              1 RES1               0.0000
     41 H18         21.5961 -32.0471  40.0333 H              1 RES1               0.0000
     42 H19         19.1771 -32.5529  40.2606 H              1 RES1               0.0000
@<TRIPOS>BOND
    1    1    2 1     
    2    1    3 1     
    3    2    4 ar    
    4    2    5 ar    
    5    4    6 1     
    6    4    7 ar    
    7    5    8 ar    
    8    6    9 1     
    9    7   10 ar    
   10    8   11 ar    
   11   10   12 ar    
   12   11   13 ar    
   13   12   14 ar    
   14   12   15 1     
   15   15   16 1     
   16   16   17 1     
   17   16   18 1     
   18   17   19 ar    
   19   17   20 ar    
   20   19   21 ar    
   21   20   22 ar    
   22   21   23 ar    
   23    8   10 ar    
   24   13   14 ar    
   25   22   23 ar    
   26    3   24 1     
   27    3   25 1     
   28    3   26 1     
   29    5   27 1     
   30    7   28 1     
   31    9   29 1     
   32    9   30 1     
   33    9   31 1     
   34   13   32 1     
   35   15   33 1     
   36   16   34 1     
   37   18   35 1     
   38   18   36 1     
   39   18   37 1     
   40   19   38 1     
   41   20   39 1     
   42   21   40 1     
   43   22   41 1     
   44   23   42 1     
@<TRIPOS>SUBSTRUCTURE
      1 RES1           1
@<TRIPOS>SET
DONOR_HYDROGENS      STATIC     ATOMS    <user>   **** ""
1 33
ATOM$RED        STATIC     ATOMS    COLORGROUP SYSTEM
1 33
@<TRIPOS>COMMENT
> <Gold.Version>
2022.3.0

> <Gold.Id.Protein>
unknown|5ovf_clean|pdb

> <Gold.Protein.ActiveResidues>
 ILE839  VAL852  ILE856  LEU859  VAL871  LEU872  GLU873  VAL874  VAL875  SER876 
 ALA877  MET878  ASN879  SER880  SER881  PRO882  VAL883  TYR884  ARG885  LEU886 
 ASP887  HIS888  THR889  PHE890  GLU891  GLN892  ILE893  PRO894  SER895  ARG896 
 GLN897  LYS898  LYS899  ILE900  LEU901  GLU902  GLU903  ALA904  HIS905  GLU906 
 LEU907  SER908  GLU909  LYS914  GLU836  ILE839  VAL852  ILE855  ILE856  LEU859 
 GLN863  VAL871  LEU872  VAL874  VAL875  SER876  ALA877  MET878  ASN879  SER880 
 SER881  PRO882  VAL883  TYR884  ARG885  LEU886  ASP887  HIS888  THR889  PHE890 
 GLU891  GLN892  ILE893  PRO894  SER895  ARG896  GLN897  LYS898  LYS899  ILE900 
 LEU901  GLU902  GLU903  ALA904  HIS905  GLU906  LEU907  SER908  GLU909  ASP910 
 LYS914 

> <Gold.Score>
     Fitness  S(hb_ext) S(vdw_ext)  S(hb_int)    S(int)      intcor
     57.65       0.00      45.81       0.00      -5.34      -7.16

> <Gold.Goldscore.Fitness>
57.6492

> <Gold.Goldscore.Internal.Vdw>
-4.0586

> <Gold.Goldscore.Internal.Torsion>
-8.4348

> <Gold.Goldscore.External.Vdw>
45.8082

> <Gold.Goldscore.Internal.HBond>
0.0000

> <Gold.Goldscore.External.HBond>
0.0000

> <Gold.Goldscore.Internal.Correction>
-7.1563

> <Gold.Goldscore.Reference.RMSD>
7.6819

> <Gold.Goldscore.Internal.Vdw.Weighted>
-4.0586

> <Gold.Goldscore.Internal.Torsion.Weighted>
-8.4348

> <Gold.Goldscore.External.Vdw.Weighted>
62.9862

> <Gold.Goldscore.Internal.HBond.Weighted>
0.0000

> <Gold.Goldscore.External.HBond.Weighted>
0.0000

> <Gold.Goldscore.Internal.Correction.Weighted>
-7.1563

> <Gold.Rescore>
     Score         DG    S(hbond)    S(metal)    S(lipo)     H(rot)  DE(clash)    DE(int)     intcor
     21.89     -27.32       0.00        0.00     220.72       1.56       2.97       2.45       ----

> <Gold.Chemscore.Fitness>
21.8946

> <Gold.Chemscore.DG>
-27.3210

> <Gold.Chemscore.ZeroCoef>
-5.4800

> <Gold.Chemscore.Hbond>
0.0000

> <Gold.Chemscore.Metal>
0.0000

> <Gold.Chemscore.Lipo>
220.7216

> <Gold.Chemscore.Internal_Hbond>
0.0000

> <Gold.Chemscore.DEClash>
2.9746

> <Gold.Chemscore.DEInternal>
2.4518

> <Gold.Chemscore.Rot>
1.5560

> <Gold.Chemscore.Internal.Correction>
   9.000000E+99

> <Gold.Chemscore.Reference.RMSD>
0.0000

> <Gold.Chemscore.Hbond.Weighted>
-0.0000

> <Gold.Chemscore.Metal.Weighted>
-0.0000

> <Gold.Chemscore.Lipo.Weighted>
-25.8244

> <Gold.Chemscore.Internal_Hbond.Weighted>
0.0000

> <Gold.Chemscore.DEClash.Weighted>
2.9746

> <Gold.Chemscore.DEInternal.Weighted>
2.4518

> <Gold.Chemscore.Rot.Weighted>
3.9834

> <Gold.Chemscore.Internal.Correction.Weighted>
   9.000000E+99

> <Gold.Reference.RMSD>
7.6819

