#       Name:                example_2
#       Creating user name   hitesit
#       Creation time:       Mon Nov  6 23:22:53 2023


#       File generated by GOLD software.
#

@<TRIPOS>MOLECULE
example_2|example_2_prep|mol2|1|dock5
    42    44     1
SMALL
NO_CHARGES


@<TRIPOS>ATOM
      1 O1          20.4636 -41.0655  48.3606 O.3            1 RES1               0.0000
      2 C2          20.8989 -40.0226  47.5811 C.ar           1 RES1               0.0000
      3 C3          21.3638 -42.1405  48.5893 C.3            1 RES1               0.0000
      4 C4          19.9761 -38.9874  47.3628 C.ar           1 RES1               0.0000
      5 C5          22.1717 -39.9434  47.0029 C.ar           1 RES1               0.0000
      6 O6          18.7431 -39.1369  47.9437 O.3            1 RES1               0.0000
      7 C7          20.3570 -37.8960  46.5822 C.ar           1 RES1               0.0000
      8 C8          22.5610 -38.8612  46.2236 C.ar           1 RES1               0.0000
      9 C9          17.7419 -38.1813  47.6229 C.3            1 RES1               0.0000
     10 C10         21.6576 -37.8114  46.0294 C.ar           1 RES1               0.0000
     11 N11         23.7825 -38.8699  45.6799 N.ar           1 RES1               0.0000
     12 C12         22.1301 -36.7490  45.2437 C.ar           1 RES1               0.0000
     13 C13         24.1044 -37.8253  44.9083 C.ar           1 RES1               0.0000
     14 N14         23.3362 -36.7610  44.6563 N.ar           1 RES1               0.0000
     15 N15         21.3787 -35.5938  45.0094 N.pl3          1 RES1               0.0000
     16 C16         20.4309 -35.6676  43.8848 C.3            1 RES1               0.0000
     17 C17         20.8217 -34.6089  42.8596 C.ar           1 RES1               0.0000
     18 C18         20.3908 -37.0443  43.2228 C.3            1 RES1               0.0000
     19 C19         19.8567 -33.9854  42.0503 C.ar           1 RES1               0.0000
     20 C20         22.1672 -34.2401  42.7054 C.ar           1 RES1               0.0000
     21 C21         20.2276 -33.0163  41.1168 C.ar           1 RES1               0.0000
     22 C22         22.5359 -33.2701  41.7711 C.ar           1 RES1               0.0000
     23 C23         21.5666 -32.6584  40.9786 C.ar           1 RES1               0.0000
     24 H1          20.8841 -42.8879  49.2194 H              1 RES1               0.0000
     25 H2          22.2575 -41.7661  49.0864 H              1 RES1               0.0000
     26 H3          21.6400 -42.5915  47.6374 H              1 RES1               0.0000
     27 H4          22.8783 -40.7551  47.1693 H              1 RES1               0.0000
     28 H5          19.6423 -37.0959  46.3949 H              1 RES1               0.0000
     29 H6          16.8232 -38.4259  48.1539 H              1 RES1               0.0000
     30 H7          17.5562 -38.1965  46.5500 H              1 RES1               0.0000
     31 H8          18.0790 -37.1890  47.9190 H              1 RES1               0.0000
     32 H9          25.0875 -37.8441  44.4404 H              1 RES1               0.0000
     33 H10         21.4797 -34.7587  45.5775 H              1 RES1               0.0000
     34 H11         19.4345 -35.4352  44.2578 H              1 RES1               0.0000
     35 H12         20.1111 -37.7942  43.9613 H              1 RES1               0.0000
     36 H13         21.3738 -37.2816  42.8188 H              1 RES1               0.0000
     37 H14         19.6588 -37.0381  42.4164 H              1 RES1               0.0000
     38 H15         18.8081 -34.2612  42.1526 H              1 RES1               0.0000
     39 H16         22.9307 -34.7148  43.3201 H              1 RES1               0.0000
     40 H17         19.4700 -32.5400  40.4963 H              1 RES1               0.0000
     41 H18         23.5828 -32.9911  41.6616 H              1 RES1               0.0000
     42 H19         21.8559 -31.9008  40.2516 H              1 RES1               0.0000
@<TRIPOS>BOND
    1    1    2 1     
    2    1    3 1     
    3    2    4 ar    
    4    2    5 ar    
    5    4    6 1     
    6    4    7 ar    
    7    5    8 ar    
    8    6    9 1     
    9    7   10 ar    
   10    8   11 ar    
   11   10   12 ar    
   12   11   13 ar    
   13   12   14 ar    
   14   12   15 1     
   15   15   16 1     
   16   16   17 1     
   17   16   18 1     
   18   17   19 ar    
   19   17   20 ar    
   20   19   21 ar    
   21   20   22 ar    
   22   21   23 ar    
   23    8   10 ar    
   24   13   14 ar    
   25   22   23 ar    
   26    3   24 1     
   27    3   25 1     
   28    3   26 1     
   29    5   27 1     
   30    7   28 1     
   31    9   29 1     
   32    9   30 1     
   33    9   31 1     
   34   13   32 1     
   35   15   33 1     
   36   16   34 1     
   37   18   35 1     
   38   18   36 1     
   39   18   37 1     
   40   19   38 1     
   41   20   39 1     
   42   21   40 1     
   43   22   41 1     
   44   23   42 1     
@<TRIPOS>SUBSTRUCTURE
      1 RES1           1
@<TRIPOS>SET
DONOR_HYDROGENS      STATIC     ATOMS    <user>   **** ""
1 33
ATOM$RED        STATIC     ATOMS    COLORGROUP SYSTEM
1 33
@<TRIPOS>COMMENT
> <Gold.Version>
2022.3.0

> <Gold.Id.Protein>
unknown|5ovf_clean|pdb

> <Gold.Protein.ActiveResidues>
 ILE839  VAL852  ILE856  LEU859  VAL871  LEU872  GLU873  VAL874  VAL875  SER876 
 ALA877  MET878  ASN879  SER880  SER881  PRO882  VAL883  TYR884  ARG885  LEU886 
 ASP887  HIS888  THR889  PHE890  GLU891  GLN892  ILE893  PRO894  SER895  ARG896 
 GLN897  LYS898  LYS899  ILE900  LEU901  GLU902  GLU903  ALA904  HIS905  GLU906 
 LEU907  SER908  GLU909  LYS914  GLU836  ILE839  VAL852  ILE855  ILE856  LEU859 
 GLN863  VAL871  LEU872  VAL874  VAL875  SER876  ALA877  MET878  ASN879  SER880 
 SER881  PRO882  VAL883  TYR884  ARG885  LEU886  ASP887  HIS888  THR889  PHE890 
 GLU891  GLN892  ILE893  PRO894  SER895  ARG896  GLN897  LYS898  LYS899  ILE900 
 LEU901  GLU902  GLU903  ALA904  HIS905  GLU906  LEU907  SER908  GLU909  ASP910 
 LYS914 

> <Gold.Score>
     Fitness  S(hb_ext) S(vdw_ext)  S(hb_int)    S(int)      intcor
     58.54       0.00      46.08       0.00      -4.82      -7.16

> <Gold.Goldscore.Fitness>
58.5399

> <Gold.Goldscore.Internal.Vdw>
-4.0257

> <Gold.Goldscore.Internal.Torsion>
-7.9544

> <Gold.Goldscore.External.Vdw>
46.0827

> <Gold.Goldscore.Internal.HBond>
0.0000

> <Gold.Goldscore.External.HBond>
0.0000

> <Gold.Goldscore.Internal.Correction>
-7.1563

> <Gold.Goldscore.Reference.RMSD>
8.0398

> <Gold.Goldscore.Internal.Vdw.Weighted>
-4.0257

> <Gold.Goldscore.Internal.Torsion.Weighted>
-7.9544

> <Gold.Goldscore.External.Vdw.Weighted>
63.3636

> <Gold.Goldscore.Internal.HBond.Weighted>
0.0000

> <Gold.Goldscore.External.HBond.Weighted>
0.0000

> <Gold.Goldscore.Internal.Correction.Weighted>
-7.1563

> <Gold.Rescore>
     Score         DG    S(hbond)    S(metal)    S(lipo)     H(rot)  DE(clash)    DE(int)     intcor
     24.05     -30.54       0.00        0.00     248.20       1.56       4.85       1.64       ----

> <Gold.Chemscore.Fitness>
24.0520

> <Gold.Chemscore.DG>
-30.5361

> <Gold.Chemscore.ZeroCoef>
-5.4800

> <Gold.Chemscore.Hbond>
0.0000

> <Gold.Chemscore.Metal>
0.0000

> <Gold.Chemscore.Lipo>
248.2015

> <Gold.Chemscore.Internal_Hbond>
0.0000

> <Gold.Chemscore.DEClash>
4.8468

> <Gold.Chemscore.DEInternal>
1.6373

> <Gold.Chemscore.Rot>
1.5560

> <Gold.Chemscore.Internal.Correction>
   9.000000E+99

> <Gold.Chemscore.Reference.RMSD>
0.0000

> <Gold.Chemscore.Hbond.Weighted>
-0.0000

> <Gold.Chemscore.Metal.Weighted>
-0.0000

> <Gold.Chemscore.Lipo.Weighted>
-29.0396

> <Gold.Chemscore.Internal_Hbond.Weighted>
0.0000

> <Gold.Chemscore.DEClash.Weighted>
4.8468

> <Gold.Chemscore.DEInternal.Weighted>
1.6373

> <Gold.Chemscore.Rot.Weighted>
3.9834

> <Gold.Chemscore.Internal.Correction.Weighted>
   9.000000E+99

> <Gold.Reference.RMSD>
8.0398

