#       Name:                example_2
#       Creating user name   hitesit
#       Creation time:       Mon Nov  6 23:23:02 2023


#       File generated by GOLD software.
#

@<TRIPOS>MOLECULE
example_2|example_2_prep|mol2|1|dock7
    42    44     1
SMALL
NO_CHARGES


@<TRIPOS>ATOM
      1 O1          20.5578 -28.5958  48.2623 O.3            1 RES1               0.0000
      2 C2          21.0103 -29.3353  47.1977 C.ar           1 RES1               0.0000
      3 C3          21.5213 -28.1073  49.1850 C.3            1 RES1               0.0000
      4 C4          20.0335 -29.7709  46.2885 C.ar           1 RES1               0.0000
      5 C5          22.3515 -29.6750  46.9824 C.ar           1 RES1               0.0000
      6 O6          18.7386 -29.4176  46.5686 O.3            1 RES1               0.0000
      7 C7          20.4277 -30.5238  45.1824 C.ar           1 RES1               0.0000
      8 C8          22.7546 -30.4246  45.8844 C.ar           1 RES1               0.0000
      9 C9          17.7253 -29.8628  45.6778 C.3            1 RES1               0.0000
     10 C10         21.7906 -30.8338  44.9575 C.ar           1 RES1               0.0000
     11 N11         24.0493 -30.7354  45.7615 N.ar           1 RES1               0.0000
     12 C12         22.2783 -31.5735  43.8694 C.ar           1 RES1               0.0000
     13 C13         24.3895 -31.4878  44.7088 C.ar           1 RES1               0.0000
     14 N14         23.5665 -31.9297  43.7529 N.ar           1 RES1               0.0000
     15 N15         21.4581 -31.9997  42.8207 N.pl3          1 RES1               0.0000
     16 C16         22.1042 -32.8616  41.8166 C.3            1 RES1               0.0000
     17 C17         21.9999 -34.3075  42.2891 C.ar           1 RES1               0.0000
     18 C18         21.4920 -32.7233  40.4234 C.3            1 RES1               0.0000
     19 C19         20.7546 -34.9474  42.4109 C.ar           1 RES1               0.0000
     20 C20         23.1597 -35.0274  42.6161 C.ar           1 RES1               0.0000
     21 C21         20.6732 -36.2721  42.8429 C.ar           1 RES1               0.0000
     22 C22         23.0757 -36.3527  43.0476 C.ar           1 RES1               0.0000
     23 C23         21.8337 -36.9743  43.1597 C.ar           1 RES1               0.0000
     24 H1          21.0192 -27.5433  49.9697 H              1 RES1               0.0000
     25 H2          22.2252 -27.4588  48.6656 H              1 RES1               0.0000
     26 H3          22.0581 -28.9453  49.6271 H              1 RES1               0.0000
     27 H4          23.1018 -29.3412  47.6977 H              1 RES1               0.0000
     28 H5          19.6747 -30.8789  44.4803 H              1 RES1               0.0000
     29 H6          16.7557 -29.5089  46.0249 H              1 RES1               0.0000
     30 H7          17.7239 -30.9513  45.6446 H              1 RES1               0.0000
     31 H8          17.9197 -29.4694  44.6812 H              1 RES1               0.0000
     32 H9          25.4385 -31.7671  44.6224 H              1 RES1               0.0000
     33 H10         20.4811 -31.7324  42.7557 H              1 RES1               0.0000
     34 H11         23.1580 -32.5931  41.7584 H              1 RES1               0.0000
     35 H12         21.5705 -31.6884  40.0935 H              1 RES1               0.0000
     36 H13         20.4433 -33.0150  40.4571 H              1 RES1               0.0000
     37 H14         22.0258 -33.3679  39.7267 H              1 RES1               0.0000
     38 H15         19.8434 -34.4038  42.1657 H              1 RES1               0.0000
     39 H16         24.1339 -34.5480  42.5323 H              1 RES1               0.0000
     40 H17         19.7021 -36.7568  42.9323 H              1 RES1               0.0000
     41 H18         23.9826 -36.9016  43.2970 H              1 RES1               0.0000
     42 H19         21.7703 -38.0086  43.4949 H              1 RES1               0.0000
@<TRIPOS>BOND
    1    1    2 1     
    2    1    3 1     
    3    2    4 ar    
    4    2    5 ar    
    5    4    6 1     
    6    4    7 ar    
    7    5    8 ar    
    8    6    9 1     
    9    7   10 ar    
   10    8   11 ar    
   11   10   12 ar    
   12   11   13 ar    
   13   12   14 ar    
   14   12   15 1     
   15   15   16 1     
   16   16   17 1     
   17   16   18 1     
   18   17   19 ar    
   19   17   20 ar    
   20   19   21 ar    
   21   20   22 ar    
   22   21   23 ar    
   23    8   10 ar    
   24   13   14 ar    
   25   22   23 ar    
   26    3   24 1     
   27    3   25 1     
   28    3   26 1     
   29    5   27 1     
   30    7   28 1     
   31    9   29 1     
   32    9   30 1     
   33    9   31 1     
   34   13   32 1     
   35   15   33 1     
   36   16   34 1     
   37   18   35 1     
   38   18   36 1     
   39   18   37 1     
   40   19   38 1     
   41   20   39 1     
   42   21   40 1     
   43   22   41 1     
   44   23   42 1     
@<TRIPOS>SUBSTRUCTURE
      1 RES1           1
@<TRIPOS>SET
DONOR_HYDROGENS      STATIC     ATOMS    <user>   **** ""
1 33
ATOM$RED        STATIC     ATOMS    COLORGROUP SYSTEM
1 33
@<TRIPOS>COMMENT
> <Gold.Version>
2022.3.0

> <Gold.Id.Protein>
unknown|5ovf_clean|pdb

> <Gold.Protein.ActiveResidues>
 ILE839  VAL852  ILE856  LEU859  VAL871  LEU872  GLU873  VAL874  VAL875  SER876 
 ALA877  MET878  ASN879  SER880  SER881  PRO882  VAL883  TYR884  ARG885  LEU886 
 ASP887  HIS888  THR889  PHE890  GLU891  GLN892  ILE893  PRO894  SER895  ARG896 
 GLN897  LYS898  LYS899  ILE900  LEU901  GLU902  GLU903  ALA904  HIS905  GLU906 
 LEU907  SER908  GLU909  LYS914  GLU836  ILE839  VAL852  ILE855  ILE856  LEU859 
 GLN863  VAL871  LEU872  VAL874  VAL875  SER876  ALA877  MET878  ASN879  SER880 
 SER881  PRO882  VAL883  TYR884  ARG885  LEU886  ASP887  HIS888  THR889  PHE890 
 GLU891  GLN892  ILE893  PRO894  SER895  ARG896  GLN897  LYS898  LYS899  ILE900 
 LEU901  GLU902  GLU903  ALA904  HIS905  GLU906  LEU907  SER908  GLU909  ASP910 
 LYS914 

> <Gold.Score>
     Fitness  S(hb_ext) S(vdw_ext)  S(hb_int)    S(int)      intcor
     63.12       2.00      48.21       0.00      -5.16      -7.16

> <Gold.Goldscore.Fitness>
63.1245

> <Gold.Goldscore.Internal.Vdw>
-10.7076

> <Gold.Goldscore.Internal.Torsion>
-1.6108

> <Gold.Goldscore.External.Vdw>
48.2085

> <Gold.Goldscore.Internal.HBond>
0.0000

> <Gold.Goldscore.External.HBond>
2.0000

> <Gold.Goldscore.Internal.Correction>
-7.1563

> <Gold.Goldscore.Reference.RMSD>
5.4008

> <Gold.Goldscore.Hbonds>
donor molecule, donor type, donor heavy atom, donor atom, acceptor molecule, acceptor atom, score
      L1  H    15    33       P1  2553  1.00

> <Gold.Goldscore.Internal.Vdw.Weighted>
-10.7076

> <Gold.Goldscore.Internal.Torsion.Weighted>
-1.6108

> <Gold.Goldscore.External.Vdw.Weighted>
66.2866

> <Gold.Goldscore.Internal.HBond.Weighted>
0.0000

> <Gold.Goldscore.External.HBond.Weighted>
2.0000

> <Gold.Goldscore.Internal.Correction.Weighted>
-7.1563

> <Gold.Rescore>
     Score         DG    S(hbond)    S(metal)    S(lipo)     H(rot)  DE(clash)    DE(int)     intcor
     29.65     -30.18       1.00        0.00     216.79       1.56       0.09       0.45       ----

> <Gold.Chemscore.Fitness>
29.6459

> <Gold.Chemscore.DG>
-30.1849

> <Gold.Chemscore.ZeroCoef>
-5.4800

> <Gold.Chemscore.Hbond>
0.9953

> <Gold.Chemscore.Metal>
0.0000

> <Gold.Chemscore.Lipo>
216.7860

> <Gold.Chemscore.Internal_Hbond>
0.0000

> <Gold.Chemscore.DEClash>
0.0889

> <Gold.Chemscore.DEInternal>
0.4501

> <Gold.Chemscore.Rot>
1.5560

> <Gold.Chemscore.Internal.Correction>
   9.000000E+99

> <Gold.Chemscore.Reference.RMSD>
0.0000

> <Gold.Chemscore.Hbonds>
donor molecule, donor type, donor heavy atom, donor atom, acceptor molecule, acceptor atom, score
      L1  H    15    33       P1  2553  1.00

> <Gold.Chemscore.Hbond.Weighted>
-3.3244

> <Gold.Chemscore.Metal.Weighted>
-0.0000

> <Gold.Chemscore.Lipo.Weighted>
-25.3640

> <Gold.Chemscore.Internal_Hbond.Weighted>
0.0000

> <Gold.Chemscore.DEClash.Weighted>
0.0889

> <Gold.Chemscore.DEInternal.Weighted>
0.4501

> <Gold.Chemscore.Rot.Weighted>
3.9834

> <Gold.Chemscore.Internal.Correction.Weighted>
   9.000000E+99

> <Gold.Reference.RMSD>
5.4008

