#       Name:                example_2
#       Creating user name   hitesit
#       Creation time:       Mon Nov  6 23:22:49 2023


#       File generated by GOLD software.
#

@<TRIPOS>MOLECULE
example_2|example_2_prep|mol2|1|dock4
    42    44     1
SMALL
NO_CHARGES


@<TRIPOS>ATOM
      1 O1          20.3128 -28.9710  48.4634 O.3            1 RES1               0.0000
      2 C2          20.7637 -29.6393  47.3520 C.ar           1 RES1               0.0000
      3 C3          21.2765 -28.5541  49.4203 C.3            1 RES1               0.0000
      4 C4          19.7871 -30.0030  46.4114 C.ar           1 RES1               0.0000
      5 C5          22.1029 -29.9747  47.1187 C.ar           1 RES1               0.0000
      6 O6          18.4940 -29.6589  46.7106 O.3            1 RES1               0.0000
      7 C7          20.1797 -30.6813  45.2576 C.ar           1 RES1               0.0000
      8 C8          22.5045 -30.6504  45.9732 C.ar           1 RES1               0.0000
      9 C9          17.4863 -29.9951  45.7672 C.3            1 RES1               0.0000
     10 C10         21.5410 -30.9866  45.0168 C.ar           1 RES1               0.0000
     11 N11         23.7970 -30.9629  45.8338 N.ar           1 RES1               0.0000
     12 C12         22.0272 -31.6538  43.8821 C.ar           1 RES1               0.0000
     13 C13         24.1355 -31.6439  44.7330 C.ar           1 RES1               0.0000
     14 N14         23.3129 -32.0120  43.7460 N.ar           1 RES1               0.0000
     15 N15         21.2080 -31.9998  42.8037 N.pl3          1 RES1               0.0000
     16 C16         21.8154 -32.8939  41.8035 C.3            1 RES1               0.0000
     17 C17         21.6442 -34.3318  42.2805 C.ar           1 RES1               0.0000
     18 C18         21.2123 -32.7323  40.4088 C.3            1 RES1               0.0000
     19 C19         22.7542 -35.1294  42.6073 C.ar           1 RES1               0.0000
     20 C20         20.3604 -34.8870  42.3984 C.ar           1 RES1               0.0000
     21 C21         22.5835 -36.4438  43.0446 C.ar           1 RES1               0.0000
     22 C22         20.1920 -36.2022  42.8364 C.ar           1 RES1               0.0000
     23 C23         21.3027 -36.9790  43.1601 C.ar           1 RES1               0.0000
     24 H1          20.7757 -28.0414  50.2402 H              1 RES1               0.0000
     25 H2          21.9870 -27.8768  48.9486 H              1 RES1               0.0000
     26 H3          21.8056 -29.4244  49.8056 H              1 RES1               0.0000
     27 H4          22.8529 -29.6973  47.8579 H              1 RES1               0.0000
     28 H5          19.4269 -30.9809  44.5300 H              1 RES1               0.0000
     29 H6          16.5175 -29.6625  46.1369 H              1 RES1               0.0000
     30 H7          17.4690 -31.0745  45.6237 H              1 RES1               0.0000
     31 H8          17.6999 -29.5061  44.8180 H              1 RES1               0.0000
     32 H9          25.1825 -31.9254  44.6314 H              1 RES1               0.0000
     33 H10         20.2566 -31.6573  42.7157 H              1 RES1               0.0000
     34 H11         22.8805 -32.6741  41.7461 H              1 RES1               0.0000
     35 H12         21.3386 -31.7032  40.0756 H              1 RES1               0.0000
     36 H13         20.1513 -32.9755  40.4417 H              1 RES1               0.0000
     37 H14         21.7171 -33.4031  39.7150 H              1 RES1               0.0000
     38 H15         23.7584 -34.7175  42.5184 H              1 RES1               0.0000
     39 H16         19.4876 -34.2866  42.1458 H              1 RES1               0.0000
     40 H17         23.4519 -37.0511  43.2955 H              1 RES1               0.0000
     41 H18         19.1910 -36.6215  42.9253 H              1 RES1               0.0000
     42 H19         21.1694 -38.0039  43.5032 H              1 RES1               0.0000
@<TRIPOS>BOND
    1    1    2 1     
    2    1    3 1     
    3    2    4 ar    
    4    2    5 ar    
    5    4    6 1     
    6    4    7 ar    
    7    5    8 ar    
    8    6    9 1     
    9    7   10 ar    
   10    8   11 ar    
   11   10   12 ar    
   12   11   13 ar    
   13   12   14 ar    
   14   12   15 1     
   15   15   16 1     
   16   16   17 1     
   17   16   18 1     
   18   17   19 ar    
   19   17   20 ar    
   20   19   21 ar    
   21   20   22 ar    
   22   21   23 ar    
   23    8   10 ar    
   24   13   14 ar    
   25   22   23 ar    
   26    3   24 1     
   27    3   25 1     
   28    3   26 1     
   29    5   27 1     
   30    7   28 1     
   31    9   29 1     
   32    9   30 1     
   33    9   31 1     
   34   13   32 1     
   35   15   33 1     
   36   16   34 1     
   37   18   35 1     
   38   18   36 1     
   39   18   37 1     
   40   19   38 1     
   41   20   39 1     
   42   21   40 1     
   43   22   41 1     
   44   23   42 1     
@<TRIPOS>SUBSTRUCTURE
      1 RES1           1
@<TRIPOS>SET
DONOR_HYDROGENS      STATIC     ATOMS    <user>   **** ""
1 33
ATOM$RED        STATIC     ATOMS    COLORGROUP SYSTEM
1 33
@<TRIPOS>COMMENT
> <Gold.Version>
2022.3.0

> <Gold.Id.Protein>
unknown|5ovf_clean|pdb

> <Gold.Protein.ActiveResidues>
 ILE839  VAL852  ILE856  LEU859  VAL871  LEU872  GLU873  VAL874  VAL875  SER876 
 ALA877  MET878  ASN879  SER880  SER881  PRO882  VAL883  TYR884  ARG885  LEU886 
 ASP887  HIS888  THR889  PHE890  GLU891  GLN892  ILE893  PRO894  SER895  ARG896 
 GLN897  LYS898  LYS899  ILE900  LEU901  GLU902  GLU903  ALA904  HIS905  GLU906 
 LEU907  SER908  GLU909  LYS914  GLU836  ILE839  VAL852  ILE855  ILE856  LEU859 
 GLN863  VAL871  LEU872  VAL874  VAL875  SER876  ALA877  MET878  ASN879  SER880 
 SER881  PRO882  VAL883  TYR884  ARG885  LEU886  ASP887  HIS888  THR889  PHE890 
 GLU891  GLN892  ILE893  PRO894  SER895  ARG896  GLN897  LYS898  LYS899  ILE900 
 LEU901  GLU902  GLU903  ALA904  HIS905  GLU906  LEU907  SER908  GLU909  ASP910 
 LYS914 

> <Gold.Score>
     Fitness  S(hb_ext) S(vdw_ext)  S(hb_int)    S(int)      intcor
     63.63       1.93      48.31       0.00      -4.72      -7.16

> <Gold.Goldscore.Fitness>
63.6300

> <Gold.Goldscore.Internal.Vdw>
-10.1201

> <Gold.Goldscore.Internal.Torsion>
-1.7601

> <Gold.Goldscore.External.Vdw>
48.3099

> <Gold.Goldscore.Internal.HBond>
0.0000

> <Gold.Goldscore.External.HBond>
1.9277

> <Gold.Goldscore.Internal.Correction>
-7.1563

> <Gold.Goldscore.Reference.RMSD>
5.3376

> <Gold.Goldscore.Hbonds>
donor molecule, donor type, donor heavy atom, donor atom, acceptor molecule, acceptor atom, score
      L1  H    15    33       P1  2553  0.96

> <Gold.Goldscore.Internal.Vdw.Weighted>
-10.1201

> <Gold.Goldscore.Internal.Torsion.Weighted>
-1.7601

> <Gold.Goldscore.External.Vdw.Weighted>
66.4261

> <Gold.Goldscore.Internal.HBond.Weighted>
0.0000

> <Gold.Goldscore.External.HBond.Weighted>
1.9277

> <Gold.Goldscore.Internal.Correction.Weighted>
-7.1563

> <Gold.Rescore>
     Score         DG    S(hbond)    S(metal)    S(lipo)     H(rot)  DE(clash)    DE(int)     intcor
     29.71     -30.29       0.93        0.00     219.68       1.56       0.17       0.41       ----

> <Gold.Chemscore.Fitness>
29.7078

> <Gold.Chemscore.DG>
-30.2926

> <Gold.Chemscore.ZeroCoef>
-5.4800

> <Gold.Chemscore.Hbond>
0.9261

> <Gold.Chemscore.Metal>
0.0000

> <Gold.Chemscore.Lipo>
219.6837

> <Gold.Chemscore.Internal_Hbond>
0.0000

> <Gold.Chemscore.DEClash>
0.1731

> <Gold.Chemscore.DEInternal>
0.4118

> <Gold.Chemscore.Rot>
1.5560

> <Gold.Chemscore.Internal.Correction>
   9.000000E+99

> <Gold.Chemscore.Reference.RMSD>
0.0000

> <Gold.Chemscore.Hbonds>
donor molecule, donor type, donor heavy atom, donor atom, acceptor molecule, acceptor atom, score
      L1  H    15    33       P1  2553  0.84

> <Gold.Chemscore.Hbond.Weighted>
-3.0931

> <Gold.Chemscore.Metal.Weighted>
-0.0000

> <Gold.Chemscore.Lipo.Weighted>
-25.7030

> <Gold.Chemscore.Internal_Hbond.Weighted>
0.0000

> <Gold.Chemscore.DEClash.Weighted>
0.1731

> <Gold.Chemscore.DEInternal.Weighted>
0.4118

> <Gold.Chemscore.Rot.Weighted>
3.9834

> <Gold.Chemscore.Internal.Correction.Weighted>
   9.000000E+99

> <Gold.Reference.RMSD>
5.3376

