#       Name:                example_2
#       Creating user name   hitesit
#       Creation time:       Mon Nov  6 23:23:11 2023


#       File generated by GOLD software.
#

@<TRIPOS>MOLECULE
example_2|example_2_prep|mol2|1|dock9
    42    44     1
SMALL
NO_CHARGES


@<TRIPOS>ATOM
      1 O1          19.8585 -28.8536  48.4592 O.3            1 RES1               0.0000
      2 C2          20.3713 -29.5232  47.3758 C.ar           1 RES1               0.0000
      3 C3          20.7779 -28.3064  49.3938 C.3            1 RES1               0.0000
      4 C4          19.4331 -30.0406  46.4688 C.ar           1 RES1               0.0000
      5 C5          21.7374 -29.7189  47.1398 C.ar           1 RES1               0.0000
      6 O6          18.1123 -29.8277  46.7694 O.3            1 RES1               0.0000
      7 C7          19.8886 -30.7287  45.3442 C.ar           1 RES1               0.0000
      8 C8          22.2017 -30.4030  46.0233 C.ar           1 RES1               0.0000
      9 C9          17.1435 -30.2369  45.8142 C.3            1 RES1               0.0000
     10 C10         21.2733 -30.8925  45.0990 C.ar           1 RES1               0.0000
     11 N11         23.5198 -30.5765  45.8807 N.ar           1 RES1               0.0000
     12 C12         21.8208 -31.5583  43.9916 C.ar           1 RES1               0.0000
     13 C13         23.9223 -31.2707  44.8101 C.ar           1 RES1               0.0000
     14 N14         23.1372 -31.7777  43.8546 N.ar           1 RES1               0.0000
     15 N15         21.0357 -32.0476  42.9437 N.pl3          1 RES1               0.0000
     16 C16         21.7416 -32.8768  41.9524 C.3            1 RES1               0.0000
     17 C17         21.6719 -34.3302  42.4079 C.ar           1 RES1               0.0000
     18 C18         21.1686 -32.7447  40.5420 C.3            1 RES1               0.0000
     19 C19         22.8377 -35.0673  42.6771 C.ar           1 RES1               0.0000
     20 C20         20.4276 -34.9610  42.5634 C.ar           1 RES1               0.0000
     21 C21         22.7598 -36.3967  43.0952 C.ar           1 RES1               0.0000
     22 C22         20.3521 -36.2909  42.9822 C.ar           1 RES1               0.0000
     23 C23         21.5172 -37.0073  43.2487 C.ar           1 RES1               0.0000
     24 H1          20.2303 -27.8088  50.1929 H              1 RES1               0.0000
     25 H2          21.4210 -27.5856  48.8910 H              1 RES1               0.0000
     26 H3          21.3871 -29.1052  49.8141 H              1 RES1               0.0000
     27 H4          22.4583 -29.3226  47.8533 H              1 RES1               0.0000
     28 H5          19.1674 -31.1467  44.6434 H              1 RES1               0.0000
     29 H6          16.1465 -30.0062  46.1866 H              1 RES1               0.0000
     30 H7          17.2293 -31.3095  45.6468 H              1 RES1               0.0000
     31 H8          17.3121 -29.7086  44.8770 H              1 RES1               0.0000
     32 H9          24.9933 -31.4388  44.7072 H              1 RES1               0.0000
     33 H10         20.0439 -31.8446  42.8709 H              1 RES1               0.0000
     34 H11         22.7869 -32.5723  41.9298 H              1 RES1               0.0000
     35 H12         21.2220 -31.7044  40.2244 H              1 RES1               0.0000
     36 H13         20.1299 -33.0719  40.5401 H              1 RES1               0.0000
     37 H14         21.7454 -33.3637  39.8564 H              1 RES1               0.0000
     38 H15         23.8123 -34.5963  42.5583 H              1 RES1               0.0000
     39 H16         19.5126 -34.4081  42.3556 H              1 RES1               0.0000
     40 H17         23.6707 -36.9567  43.3015 H              1 RES1               0.0000
     41 H18         19.3810 -36.7692  43.1007 H              1 RES1               0.0000
     42 H19         21.4564 -38.0439  43.5768 H              1 RES1               0.0000
@<TRIPOS>BOND
    1    1    2 1     
    2    1    3 1     
    3    2    4 ar    
    4    2    5 ar    
    5    4    6 1     
    6    4    7 ar    
    7    5    8 ar    
    8    6    9 1     
    9    7   10 ar    
   10    8   11 ar    
   11   10   12 ar    
   12   11   13 ar    
   13   12   14 ar    
   14   12   15 1     
   15   15   16 1     
   16   16   17 1     
   17   16   18 1     
   18   17   19 ar    
   19   17   20 ar    
   20   19   21 ar    
   21   20   22 ar    
   22   21   23 ar    
   23    8   10 ar    
   24   13   14 ar    
   25   22   23 ar    
   26    3   24 1     
   27    3   25 1     
   28    3   26 1     
   29    5   27 1     
   30    7   28 1     
   31    9   29 1     
   32    9   30 1     
   33    9   31 1     
   34   13   32 1     
   35   15   33 1     
   36   16   34 1     
   37   18   35 1     
   38   18   36 1     
   39   18   37 1     
   40   19   38 1     
   41   20   39 1     
   42   21   40 1     
   43   22   41 1     
   44   23   42 1     
@<TRIPOS>SUBSTRUCTURE
      1 RES1           1
@<TRIPOS>SET
DONOR_HYDROGENS      STATIC     ATOMS    <user>   **** ""
1 33
ATOM$RED        STATIC     ATOMS    COLORGROUP SYSTEM
1 33
@<TRIPOS>COMMENT
> <Gold.Version>
2022.3.0

> <Gold.Id.Protein>
unknown|5ovf_clean|pdb

> <Gold.Protein.ActiveResidues>
 ILE839  VAL852  ILE856  LEU859  VAL871  LEU872  GLU873  VAL874  VAL875  SER876 
 ALA877  MET878  ASN879  SER880  SER881  PRO882  VAL883  TYR884  ARG885  LEU886 
 ASP887  HIS888  THR889  PHE890  GLU891  GLN892  ILE893  PRO894  SER895  ARG896 
 GLN897  LYS898  LYS899  ILE900  LEU901  GLU902  GLU903  ALA904  HIS905  GLU906 
 LEU907  SER908  GLU909  LYS914  GLU836  ILE839  VAL852  ILE855  ILE856  LEU859 
 GLN863  VAL871  LEU872  VAL874  VAL875  SER876  ALA877  MET878  ASN879  SER880 
 SER881  PRO882  VAL883  TYR884  ARG885  LEU886  ASP887  HIS888  THR889  PHE890 
 GLU891  GLN892  ILE893  PRO894  SER895  ARG896  GLN897  LYS898  LYS899  ILE900 
 LEU901  GLU902  GLU903  ALA904  HIS905  GLU906  LEU907  SER908  GLU909  ASP910 
 LYS914 

> <Gold.Score>
     Fitness  S(hb_ext) S(vdw_ext)  S(hb_int)    S(int)      intcor
     62.47       1.89      48.06       0.00      -5.51      -7.16

> <Gold.Goldscore.Fitness>
62.4670

> <Gold.Goldscore.Internal.Vdw>
-10.9633

> <Gold.Goldscore.Internal.Torsion>
-1.7029

> <Gold.Goldscore.External.Vdw>
48.0637

> <Gold.Goldscore.Internal.HBond>
0.0000

> <Gold.Goldscore.External.HBond>
1.8893

> <Gold.Goldscore.Internal.Correction>
-7.1563

> <Gold.Goldscore.Reference.RMSD>
5.3851

> <Gold.Goldscore.Hbonds>
donor molecule, donor type, donor heavy atom, donor atom, acceptor molecule, acceptor atom, score
      L1  H    15    33       P1  2553  0.94

> <Gold.Goldscore.Internal.Vdw.Weighted>
-10.9633

> <Gold.Goldscore.Internal.Torsion.Weighted>
-1.7029

> <Gold.Goldscore.External.Vdw.Weighted>
66.0876

> <Gold.Goldscore.Internal.HBond.Weighted>
0.0000

> <Gold.Goldscore.External.HBond.Weighted>
1.8893

> <Gold.Goldscore.Internal.Correction.Weighted>
-7.1563

> <Gold.Rescore>
     Score         DG    S(hbond)    S(metal)    S(lipo)     H(rot)  DE(clash)    DE(int)     intcor
     29.04     -29.94       0.93        0.00     216.41       1.56       0.50       0.40       ----

> <Gold.Chemscore.Fitness>
29.0437

> <Gold.Chemscore.DG>
-29.9379

> <Gold.Chemscore.ZeroCoef>
-5.4800

> <Gold.Chemscore.Hbond>
0.9347

> <Gold.Chemscore.Metal>
0.0000

> <Gold.Chemscore.Lipo>
216.4068

> <Gold.Chemscore.Internal_Hbond>
0.0000

> <Gold.Chemscore.DEClash>
0.4975

> <Gold.Chemscore.DEInternal>
0.3968

> <Gold.Chemscore.Rot>
1.5560

> <Gold.Chemscore.Internal.Correction>
   9.000000E+99

> <Gold.Chemscore.Reference.RMSD>
0.0000

> <Gold.Chemscore.Hbonds>
donor molecule, donor type, donor heavy atom, donor atom, acceptor molecule, acceptor atom, score
      L1  H    15    33       P1  2553  0.50

> <Gold.Chemscore.Hbond.Weighted>
-3.1218

> <Gold.Chemscore.Metal.Weighted>
-0.0000

> <Gold.Chemscore.Lipo.Weighted>
-25.3196

> <Gold.Chemscore.Internal_Hbond.Weighted>
0.0000

> <Gold.Chemscore.DEClash.Weighted>
0.4975

> <Gold.Chemscore.DEInternal.Weighted>
0.3968

> <Gold.Chemscore.Rot.Weighted>
3.9834

> <Gold.Chemscore.Internal.Correction.Weighted>
   9.000000E+99

> <Gold.Reference.RMSD>
5.3851

