#       Name:                example_2
#       Creating user name   hitesit
#       Creation time:       Mon Nov  6 23:23:16 2023


#       File generated by GOLD software.
#

@<TRIPOS>MOLECULE
example_2|example_2_prep|mol2|1|dock10
    42    44     1
SMALL
NO_CHARGES


@<TRIPOS>ATOM
      1 O1          24.8778 -27.5579  47.3581 O.3            1 RES1               0.0000
      2 C2          24.2955 -28.6140  46.7019 C.ar           1 RES1               0.0000
      3 C3          24.0202 -26.5700  47.9123 C.3            1 RES1               0.0000
      4 C4          25.1738 -29.5746  46.1762 C.ar           1 RES1               0.0000
      5 C5          22.9155 -28.7741  46.5271 C.ar           1 RES1               0.0000
      6 O6          26.5123 -29.3474  46.3685 O.3            1 RES1               0.0000
      7 C7          24.6460 -30.6751  45.5009 C.ar           1 RES1               0.0000
      8 C8          22.3796 -29.8659  45.8559 C.ar           1 RES1               0.0000
      9 C9          27.4257 -30.3022  45.8464 C.3            1 RES1               0.0000
     10 C10         23.2476 -30.8431  45.3583 C.ar           1 RES1               0.0000
     11 N11         21.0532 -29.9354  45.7021 N.ar           1 RES1               0.0000
     12 C12         22.6293 -31.9212  44.7066 C.ar           1 RES1               0.0000
     13 C13         20.5813 -30.9850  45.0197 C.ar           1 RES1               0.0000
     14 N14         21.3042 -31.9853  44.5068 N.ar           1 RES1               0.0000
     15 N15         23.3473 -33.0137  44.2118 N.pl3          1 RES1               0.0000
     16 C16         22.5367 -34.1592  43.7653 C.3            1 RES1               0.0000
     17 C17         21.6965 -33.7149  42.5732 C.ar           1 RES1               0.0000
     18 C18         23.3771 -35.3776  43.3853 C.3            1 RES1               0.0000
     19 C19         22.2846 -33.1013  41.4540 C.ar           1 RES1               0.0000
     20 C20         20.3067 -33.9119  42.5781 C.ar           1 RES1               0.0000
     21 C21         21.5042 -32.7010  40.3683 C.ar           1 RES1               0.0000
     22 C22         19.5280 -33.5109  41.4906 C.ar           1 RES1               0.0000
     23 C23         20.1267 -32.9070  40.3867 C.ar           1 RES1               0.0000
     24 H1          24.6188 -25.8006  48.3977 H              1 RES1               0.0000
     25 H2          23.3599 -27.0321  48.6447 H              1 RES1               0.0000
     26 H3          23.4246 -26.1201  47.1194 H              1 RES1               0.0000
     27 H4          22.2415 -28.0194  46.9297 H              1 RES1               0.0000
     28 H5          25.3207 -31.4171  45.0764 H              1 RES1               0.0000
     29 H6          28.4445 -29.9920  46.0736 H              1 RES1               0.0000
     30 H7          27.2998 -30.3725  44.7670 H              1 RES1               0.0000
     31 H8          27.2328 -31.2740  46.2984 H              1 RES1               0.0000
     32 H9          19.5039 -31.0285  44.8675 H              1 RES1               0.0000
     33 H10         24.3612 -33.0172  44.1635 H              1 RES1               0.0000
     34 H11         21.8649 -34.4424  44.5743 H              1 RES1               0.0000
     35 H12         23.9738 -35.6884  44.2417 H              1 RES1               0.0000
     36 H13         24.0364 -35.1201  42.5577 H              1 RES1               0.0000
     37 H14         22.7199 -36.1927  43.0858 H              1 RES1               0.0000
     38 H15         23.3609 -32.9364  41.4336 H              1 RES1               0.0000
     39 H16         19.8314 -34.3818  43.4379 H              1 RES1               0.0000
     40 H17         21.9723 -32.2273  39.5067 H              1 RES1               0.0000
     41 H18         18.4509 -33.6703  41.5052 H              1 RES1               0.0000
     42 H19         19.5180 -32.5964  39.5387 H              1 RES1               0.0000
@<TRIPOS>BOND
    1    1    2 1     
    2    1    3 1     
    3    2    4 ar    
    4    2    5 ar    
    5    4    6 1     
    6    4    7 ar    
    7    5    8 ar    
    8    6    9 1     
    9    7   10 ar    
   10    8   11 ar    
   11   10   12 ar    
   12   11   13 ar    
   13   12   14 ar    
   14   12   15 1     
   15   15   16 1     
   16   16   17 1     
   17   16   18 1     
   18   17   19 ar    
   19   17   20 ar    
   20   19   21 ar    
   21   20   22 ar    
   22   21   23 ar    
   23    8   10 ar    
   24   13   14 ar    
   25   22   23 ar    
   26    3   24 1     
   27    3   25 1     
   28    3   26 1     
   29    5   27 1     
   30    7   28 1     
   31    9   29 1     
   32    9   30 1     
   33    9   31 1     
   34   13   32 1     
   35   15   33 1     
   36   16   34 1     
   37   18   35 1     
   38   18   36 1     
   39   18   37 1     
   40   19   38 1     
   41   20   39 1     
   42   21   40 1     
   43   22   41 1     
   44   23   42 1     
@<TRIPOS>SUBSTRUCTURE
      1 RES1           1
@<TRIPOS>SET
DONOR_HYDROGENS      STATIC     ATOMS    <user>   **** ""
1 33
ATOM$RED        STATIC     ATOMS    COLORGROUP SYSTEM
1 33
@<TRIPOS>COMMENT
> <Gold.Version>
2022.3.0

> <Gold.Id.Protein>
unknown|5ovf_clean|pdb

> <Gold.Protein.ActiveResidues>
 ILE839  VAL852  ILE856  LEU859  VAL871  LEU872  GLU873  VAL874  VAL875  SER876 
 ALA877  MET878  ASN879  SER880  SER881  PRO882  VAL883  TYR884  ARG885  LEU886 
 ASP887  HIS888  THR889  PHE890  GLU891  GLN892  ILE893  PRO894  SER895  ARG896 
 GLN897  LYS898  LYS899  ILE900  LEU901  GLU902  GLU903  ALA904  HIS905  GLU906 
 LEU907  SER908  GLU909  LYS914  GLU836  ILE839  VAL852  ILE855  ILE856  LEU859 
 GLN863  VAL871  LEU872  VAL874  VAL875  SER876  ALA877  MET878  ASN879  SER880 
 SER881  PRO882  VAL883  TYR884  ARG885  LEU886  ASP887  HIS888  THR889  PHE890 
 GLU891  GLN892  ILE893  PRO894  SER895  ARG896  GLN897  LYS898  LYS899  ILE900 
 LEU901  GLU902  GLU903  ALA904  HIS905  GLU906  LEU907  SER908  GLU909  ASP910 
 LYS914 

> <Gold.Score>
     Fitness  S(hb_ext) S(vdw_ext)  S(hb_int)    S(int)      intcor
     56.95       0.00      42.58       0.00      -1.60      -7.16

> <Gold.Goldscore.Fitness>
56.9516

> <Gold.Goldscore.Internal.Vdw>
-6.9973

> <Gold.Goldscore.Internal.Torsion>
-1.7574

> <Gold.Goldscore.External.Vdw>
42.5819

> <Gold.Goldscore.Internal.HBond>
0.0000

> <Gold.Goldscore.External.HBond>
0.0000

> <Gold.Goldscore.Internal.Correction>
-7.1563

> <Gold.Goldscore.Reference.RMSD>
6.2832

> <Gold.Goldscore.Internal.Vdw.Weighted>
-6.9973

> <Gold.Goldscore.Internal.Torsion.Weighted>
-1.7574

> <Gold.Goldscore.External.Vdw.Weighted>
58.5500

> <Gold.Goldscore.Internal.HBond.Weighted>
0.0000

> <Gold.Goldscore.External.HBond.Weighted>
0.0000

> <Gold.Goldscore.Internal.Correction.Weighted>
-7.1563

> <Gold.Rescore>
     Score         DG    S(hbond)    S(metal)    S(lipo)     H(rot)  DE(clash)    DE(int)     intcor
     14.81     -23.29       0.00        0.00     186.25       1.56       5.53       2.94       ----

> <Gold.Chemscore.Fitness>
14.8141

> <Gold.Chemscore.DG>
-23.2878

> <Gold.Chemscore.ZeroCoef>
-5.4800

> <Gold.Chemscore.Hbond>
0.0000

> <Gold.Chemscore.Metal>
0.0000

> <Gold.Chemscore.Lipo>
186.2504

> <Gold.Chemscore.Internal_Hbond>
0.0000

> <Gold.Chemscore.DEClash>
5.5295

> <Gold.Chemscore.DEInternal>
2.9442

> <Gold.Chemscore.Rot>
1.5560

> <Gold.Chemscore.Internal.Correction>
   9.000000E+99

> <Gold.Chemscore.Reference.RMSD>
0.0000

> <Gold.Chemscore.Hbond.Weighted>
-0.0000

> <Gold.Chemscore.Metal.Weighted>
-0.0000

> <Gold.Chemscore.Lipo.Weighted>
-21.7913

> <Gold.Chemscore.Internal_Hbond.Weighted>
0.0000

> <Gold.Chemscore.DEClash.Weighted>
5.5295

> <Gold.Chemscore.DEInternal.Weighted>
2.9442

> <Gold.Chemscore.Rot.Weighted>
3.9834

> <Gold.Chemscore.Internal.Correction.Weighted>
   9.000000E+99

> <Gold.Reference.RMSD>
6.2832

