#       Name:                example_2
#       Creating user name   hitesit
#       Creation time:       Mon Nov  6 23:22:44 2023


#       File generated by GOLD software.
#

@<TRIPOS>MOLECULE
example_2|example_2_prep|mol2|1|dock3
    42    44     1
SMALL
NO_CHARGES


@<TRIPOS>ATOM
      1 O1          20.7347 -27.5252  47.6631 O.3            1 RES1               0.0000
      2 C2          21.0572 -28.5678  46.8301 C.ar           1 RES1               0.0000
      3 C3          21.7402 -27.0500  48.5471 C.3            1 RES1               0.0000
      4 C4          20.0702 -28.9494  45.9076 C.ar           1 RES1               0.0000
      5 C5          22.2768 -29.2549  46.8570 C.ar           1 RES1               0.0000
      6 O6          18.8939 -28.2460  45.9469 O.3            1 RES1               0.0000
      7 C7          20.3361 -30.0000  45.0295 C.ar           1 RES1               0.0000
      8 C8          22.5516 -30.3028  45.9872 C.ar           1 RES1               0.0000
      9 C9          17.8336 -28.6855  45.1096 C.3            1 RES1               0.0000
     10 C10         21.5851 -30.6664  45.0441 C.ar           1 RES1               0.0000
     11 N11         23.7271 -30.9311  46.0924 N.ar           1 RES1               0.0000
     12 C12         21.9431 -31.7228  44.1926 C.ar           1 RES1               0.0000
     13 C13         23.9373 -31.9566  45.2592 C.ar           1 RES1               0.0000
     14 N14         23.1002 -32.3911  44.3121 N.ar           1 RES1               0.0000
     15 N15         21.1197 -32.1636  43.1526 N.pl3          1 RES1               0.0000
     16 C16         21.7909 -32.9321  42.0907 C.3            1 RES1               0.0000
     17 C17         21.7494 -34.4083  42.4695 C.ar           1 RES1               0.0000
     18 C18         21.1609 -32.7297  40.7134 C.3            1 RES1               0.0000
     19 C19         22.9269 -35.1251  42.7428 C.ar           1 RES1               0.0000
     20 C20         20.5200 -35.0813  42.5484 C.ar           1 RES1               0.0000
     21 C21         22.8748 -36.4758  43.0903 C.ar           1 RES1               0.0000
     22 C22         20.4704 -36.4326  42.8966 C.ar           1 RES1               0.0000
     23 C23         21.6467 -37.1285  43.1682 C.ar           1 RES1               0.0000
     24 H1          21.3427 -26.2283  49.1410 H              1 RES1               0.0000
     25 H2          22.5952 -26.7006  47.9702 H              1 RES1               0.0000
     26 H3          22.0535 -27.8570  49.2079 H              1 RES1               0.0000
     27 H4          23.0334 -28.9588  47.5821 H              1 RES1               0.0000
     28 H5          19.5704 -30.3128  44.3210 H              1 RES1               0.0000
     29 H6          16.9700 -28.0362  45.2464 H              1 RES1               0.0000
     30 H7          17.5643 -29.7077  45.3713 H              1 RES1               0.0000
     31 H8          18.1536 -28.6493  44.0694 H              1 RES1               0.0000
     32 H9          24.8817 -32.4888  45.3627 H              1 RES1               0.0000
     33 H10         20.1242 -31.9668  43.1308 H              1 RES1               0.0000
     34 H11         22.8324 -32.6174  42.0431 H              1 RES1               0.0000
     35 H12         21.1945 -31.6734  40.4505 H              1 RES1               0.0000
     36 H13         20.1252 -33.0656  40.7350 H              1 RES1               0.0000
     37 H14         21.7140 -33.3058  39.9730 H              1 RES1               0.0000
     38 H15         23.8905 -34.6211  42.6828 H              1 RES1               0.0000
     39 H16         19.5965 -34.5446  42.3361 H              1 RES1               0.0000
     40 H17         23.7946 -37.0197  43.3005 H              1 RES1               0.0000
     41 H18         19.5106 -36.9437  42.9560 H              1 RES1               0.0000
     42 H19         21.6059 -38.1819  43.4412 H              1 RES1               0.0000
@<TRIPOS>BOND
    1    1    2 1     
    2    1    3 1     
    3    2    4 ar    
    4    2    5 ar    
    5    4    6 1     
    6    4    7 ar    
    7    5    8 ar    
    8    6    9 1     
    9    7   10 ar    
   10    8   11 ar    
   11   10   12 ar    
   12   11   13 ar    
   13   12   14 ar    
   14   12   15 1     
   15   15   16 1     
   16   16   17 1     
   17   16   18 1     
   18   17   19 ar    
   19   17   20 ar    
   20   19   21 ar    
   21   20   22 ar    
   22   21   23 ar    
   23    8   10 ar    
   24   13   14 ar    
   25   22   23 ar    
   26    3   24 1     
   27    3   25 1     
   28    3   26 1     
   29    5   27 1     
   30    7   28 1     
   31    9   29 1     
   32    9   30 1     
   33    9   31 1     
   34   13   32 1     
   35   15   33 1     
   36   16   34 1     
   37   18   35 1     
   38   18   36 1     
   39   18   37 1     
   40   19   38 1     
   41   20   39 1     
   42   21   40 1     
   43   22   41 1     
   44   23   42 1     
@<TRIPOS>SUBSTRUCTURE
      1 RES1           1
@<TRIPOS>SET
DONOR_HYDROGENS      STATIC     ATOMS    <user>   **** ""
1 33
ATOM$RED        STATIC     ATOMS    COLORGROUP SYSTEM
1 33
@<TRIPOS>COMMENT
> <Gold.Version>
2022.3.0

> <Gold.Id.Protein>
unknown|5ovf_clean|pdb

> <Gold.Protein.ActiveResidues>
 ILE839  VAL852  ILE856  LEU859  VAL871  LEU872  GLU873  VAL874  VAL875  SER876 
 ALA877  MET878  ASN879  SER880  SER881  PRO882  VAL883  TYR884  ARG885  LEU886 
 ASP887  HIS888  THR889  PHE890  GLU891  GLN892  ILE893  PRO894  SER895  ARG896 
 GLN897  LYS898  LYS899  ILE900  LEU901  GLU902  GLU903  ALA904  HIS905  GLU906 
 LEU907  SER908  GLU909  LYS914  GLU836  ILE839  VAL852  ILE855  ILE856  LEU859 
 GLN863  VAL871  LEU872  VAL874  VAL875  SER876  ALA877  MET878  ASN879  SER880 
 SER881  PRO882  VAL883  TYR884  ARG885  LEU886  ASP887  HIS888  THR889  PHE890 
 GLU891  GLN892  ILE893  PRO894  SER895  ARG896  GLN897  LYS898  LYS899  ILE900 
 LEU901  GLU902  GLU903  ALA904  HIS905  GLU906  LEU907  SER908  GLU909  ASP910 
 LYS914 

> <Gold.Score>
     Fitness  S(hb_ext) S(vdw_ext)  S(hb_int)    S(int)      intcor
     60.03       1.52      45.10       0.00      -3.51      -7.16

> <Gold.Goldscore.Fitness>
60.0266

> <Gold.Goldscore.Internal.Vdw>
-8.3140

> <Gold.Goldscore.Internal.Torsion>
-2.3502

> <Gold.Goldscore.External.Vdw>
45.1015

> <Gold.Goldscore.Internal.HBond>
0.0000

> <Gold.Goldscore.External.HBond>
1.5200

> <Gold.Goldscore.Internal.Correction>
-7.1563

> <Gold.Goldscore.Reference.RMSD>
5.5636

> <Gold.Goldscore.Hbonds>
donor molecule, donor type, donor heavy atom, donor atom, acceptor molecule, acceptor atom, score
      L1  H    15    33       P1  2553  0.76

> <Gold.Goldscore.Internal.Vdw.Weighted>
-8.3140

> <Gold.Goldscore.Internal.Torsion.Weighted>
-2.3502

> <Gold.Goldscore.External.Vdw.Weighted>
62.0145

> <Gold.Goldscore.Internal.HBond.Weighted>
0.0000

> <Gold.Goldscore.External.HBond.Weighted>
1.5200

> <Gold.Goldscore.Internal.Correction.Weighted>
-7.1563

> <Gold.Rescore>
     Score         DG    S(hbond)    S(metal)    S(lipo)     H(rot)  DE(clash)    DE(int)     intcor
     28.76     -29.29       0.97        0.00     209.89       1.56       0.03       0.50       ----

> <Gold.Chemscore.Fitness>
28.7574

> <Gold.Chemscore.DG>
-29.2916

> <Gold.Chemscore.ZeroCoef>
-5.4800

> <Gold.Chemscore.Hbond>
0.9694

> <Gold.Chemscore.Metal>
0.0000

> <Gold.Chemscore.Lipo>
209.8914

> <Gold.Chemscore.Internal_Hbond>
0.0000

> <Gold.Chemscore.DEClash>
0.0339

> <Gold.Chemscore.DEInternal>
0.5002

> <Gold.Chemscore.Rot>
1.5560

> <Gold.Chemscore.Internal.Correction>
   9.000000E+99

> <Gold.Chemscore.Reference.RMSD>
0.0000

> <Gold.Chemscore.Hbonds>
donor molecule, donor type, donor heavy atom, donor atom, acceptor molecule, acceptor atom, score
      L1  H    15    33       P1  2553  0.90

> <Gold.Chemscore.Hbond.Weighted>
-3.2377

> <Gold.Chemscore.Metal.Weighted>
-0.0000

> <Gold.Chemscore.Lipo.Weighted>
-24.5573

> <Gold.Chemscore.Internal_Hbond.Weighted>
0.0000

> <Gold.Chemscore.DEClash.Weighted>
0.0339

> <Gold.Chemscore.DEInternal.Weighted>
0.5002

> <Gold.Chemscore.Rot.Weighted>
3.9834

> <Gold.Chemscore.Internal.Correction.Weighted>
   9.000000E+99

> <Gold.Reference.RMSD>
5.5636

