#       Name:                example_2
#       Creating user name   hitesit
#       Creation time:       Mon Nov  6 23:22:40 2023


#       File generated by GOLD software.
#

@<TRIPOS>MOLECULE
example_2|example_2_prep|mol2|1|dock2
    42    44     1
SMALL
NO_CHARGES


@<TRIPOS>ATOM
      1 O1          20.2165 -29.3355  48.5362 O.3            1 RES1               0.0000
      2 C2          20.7260 -29.8941  47.3902 C.ar           1 RES1               0.0000
      3 C3          21.1354 -28.9505  49.5490 C.3            1 RES1               0.0000
      4 C4          19.7888 -30.2538  46.4089 C.ar           1 RES1               0.0000
      5 C5          22.0875 -30.1250  47.1593 C.ar           1 RES1               0.0000
      6 O6          18.4718 -30.0158  46.7068 O.3            1 RES1               0.0000
      7 C7          20.2415 -30.8232  45.2187 C.ar           1 RES1               0.0000
      8 C8          22.5488 -30.6918  45.9778 C.ar           1 RES1               0.0000
      9 C9          17.5097 -30.2651  45.6916 C.3            1 RES1               0.0000
     10 C10         21.6231 -31.0222  44.9829 C.ar           1 RES1               0.0000
     11 N11         23.8610 -30.9095  45.8414 N.ar           1 RES1               0.0000
     12 C12         22.1681 -31.5759  43.8143 C.ar           1 RES1               0.0000
     13 C13         24.2590 -31.4888  44.7029 C.ar           1 RES1               0.0000
     14 N14         23.4764 -31.8398  43.6779 N.ar           1 RES1               0.0000
     15 N15         21.3887 -31.8982  42.6996 N.pl3          1 RES1               0.0000
     16 C16         21.9894 -32.8585  41.7585 C.3            1 RES1               0.0000
     17 C17         21.6864 -34.2679  42.2546 C.ar           1 RES1               0.0000
     18 C18         21.4849 -32.6906  40.3259 C.3            1 RES1               0.0000
     19 C19         20.3702 -34.7582  42.3007 C.ar           1 RES1               0.0000
     20 C20         22.7300 -35.1046  42.6805 C.ar           1 RES1               0.0000
     21 C21         20.1067 -36.0512  42.7553 C.ar           1 RES1               0.0000
     22 C22         22.4639 -36.3980  43.1345 C.ar           1 RES1               0.0000
     23 C23         21.1536 -36.8707  43.1707 C.ar           1 RES1               0.0000
     24 H1          20.5906 -28.5265  50.3913 H              1 RES1               0.0000
     25 H2          21.8241 -28.2069  49.1508 H              1 RES1               0.0000
     26 H3          21.6957 -29.8231  49.8815 H              1 RES1               0.0000
     27 H4          22.8072 -29.8518  47.9297 H              1 RES1               0.0000
     28 H5          19.5202 -31.1195  44.4584 H              1 RES1               0.0000
     29 H6          16.5150 -30.0330  46.0692 H              1 RES1               0.0000
     30 H7          17.5521 -31.3138  45.4010 H              1 RES1               0.0000
     31 H8          17.7246 -29.6397  44.8264 H              1 RES1               0.0000
     32 H9          25.3236 -31.6942  44.6017 H              1 RES1               0.0000
     33 H10         20.4687 -31.4967  42.5488 H              1 RES1               0.0000
     34 H11         23.0691 -32.7160  41.7628 H              1 RES1               0.0000
     35 H12         21.7051 -31.6820  39.9793 H              1 RES1               0.0000
     36 H13         20.4092 -32.8573  40.2979 H              1 RES1               0.0000
     37 H14         21.9811 -33.4130  39.6793 H              1 RES1               0.0000
     38 H15         19.5469 -34.1224  41.9782 H              1 RES1               0.0000
     39 H16         23.7565 -34.7417  42.6565 H              1 RES1               0.0000
     40 H17         19.0823 -36.4195  42.7853 H              1 RES1               0.0000
     41 H18         23.2819 -37.0384  43.4610 H              1 RES1               0.0000
     42 H19         20.9482 -37.8803  43.5236 H              1 RES1               0.0000
@<TRIPOS>BOND
    1    1    2 1     
    2    1    3 1     
    3    2    4 ar    
    4    2    5 ar    
    5    4    6 1     
    6    4    7 ar    
    7    5    8 ar    
    8    6    9 1     
    9    7   10 ar    
   10    8   11 ar    
   11   10   12 ar    
   12   11   13 ar    
   13   12   14 ar    
   14   12   15 1     
   15   15   16 1     
   16   16   17 1     
   17   16   18 1     
   18   17   19 ar    
   19   17   20 ar    
   20   19   21 ar    
   21   20   22 ar    
   22   21   23 ar    
   23    8   10 ar    
   24   13   14 ar    
   25   22   23 ar    
   26    3   24 1     
   27    3   25 1     
   28    3   26 1     
   29    5   27 1     
   30    7   28 1     
   31    9   29 1     
   32    9   30 1     
   33    9   31 1     
   34   13   32 1     
   35   15   33 1     
   36   16   34 1     
   37   18   35 1     
   38   18   36 1     
   39   18   37 1     
   40   19   38 1     
   41   20   39 1     
   42   21   40 1     
   43   22   41 1     
   44   23   42 1     
@<TRIPOS>SUBSTRUCTURE
      1 RES1           1
@<TRIPOS>SET
DONOR_HYDROGENS      STATIC     ATOMS    <user>   **** ""
1 33
ATOM$RED        STATIC     ATOMS    COLORGROUP SYSTEM
1 33
@<TRIPOS>COMMENT
> <Gold.Version>
2022.3.0

> <Gold.Id.Protein>
unknown|5ovf_clean|pdb

> <Gold.Protein.ActiveResidues>
 ILE839  VAL852  ILE856  LEU859  VAL871  LEU872  GLU873  VAL874  VAL875  SER876 
 ALA877  MET878  ASN879  SER880  SER881  PRO882  VAL883  TYR884  ARG885  LEU886 
 ASP887  HIS888  THR889  PHE890  GLU891  GLN892  ILE893  PRO894  SER895  ARG896 
 GLN897  LYS898  LYS899  ILE900  LEU901  GLU902  GLU903  ALA904  HIS905  GLU906 
 LEU907  SER908  GLU909  LYS914  GLU836  ILE839  VAL852  ILE855  ILE856  LEU859 
 GLN863  VAL871  LEU872  VAL874  VAL875  SER876  ALA877  MET878  ASN879  SER880 
 SER881  PRO882  VAL883  TYR884  ARG885  LEU886  ASP887  HIS888  THR889  PHE890 
 GLU891  GLN892  ILE893  PRO894  SER895  ARG896  GLN897  LYS898  LYS899  ILE900 
 LEU901  GLU902  GLU903  ALA904  HIS905  GLU906  LEU907  SER908  GLU909  ASP910 
 LYS914 

> <Gold.Score>
     Fitness  S(hb_ext) S(vdw_ext)  S(hb_int)    S(int)      intcor
     64.40       1.31      49.21       0.00      -4.57      -7.16

> <Gold.Goldscore.Fitness>
64.3994

> <Gold.Goldscore.Internal.Vdw>
-9.4177

> <Gold.Goldscore.Internal.Torsion>
-2.3091

> <Gold.Goldscore.External.Vdw>
49.2053

> <Gold.Goldscore.Internal.HBond>
0.0000

> <Gold.Goldscore.External.HBond>
1.3126

> <Gold.Goldscore.Internal.Correction>
-7.1563

> <Gold.Goldscore.Reference.RMSD>
5.2698

> <Gold.Goldscore.Hbonds>
donor molecule, donor type, donor heavy atom, donor atom, acceptor molecule, acceptor atom, score
      L1  H    15    33       P1  2553  0.66

> <Gold.Goldscore.Internal.Vdw.Weighted>
-9.4177

> <Gold.Goldscore.Internal.Torsion.Weighted>
-2.3091

> <Gold.Goldscore.External.Vdw.Weighted>
67.6572

> <Gold.Goldscore.Internal.HBond.Weighted>
0.0000

> <Gold.Goldscore.External.HBond.Weighted>
1.3126

> <Gold.Goldscore.Internal.Correction.Weighted>
-7.1563

> <Gold.Rescore>
     Score         DG    S(hbond)    S(metal)    S(lipo)     H(rot)  DE(clash)    DE(int)     intcor
     29.32     -29.96       0.97        0.00     215.69       1.56       0.16       0.48       ----

> <Gold.Chemscore.Fitness>
29.3173

> <Gold.Chemscore.DG>
-29.9564

> <Gold.Chemscore.ZeroCoef>
-5.4800

> <Gold.Chemscore.Hbond>
0.9654

> <Gold.Chemscore.Metal>
0.0000

> <Gold.Chemscore.Lipo>
215.6882

> <Gold.Chemscore.Internal_Hbond>
0.0000

> <Gold.Chemscore.DEClash>
0.1616

> <Gold.Chemscore.DEInternal>
0.4774

> <Gold.Chemscore.Rot>
1.5560

> <Gold.Chemscore.Internal.Correction>
   9.000000E+99

> <Gold.Chemscore.Reference.RMSD>
0.0000

> <Gold.Chemscore.Hbonds>
donor molecule, donor type, donor heavy atom, donor atom, acceptor molecule, acceptor atom, score
      L1  H    15    33       P1  2553  0.93

> <Gold.Chemscore.Hbond.Weighted>
-3.2243

> <Gold.Chemscore.Metal.Weighted>
-0.0000

> <Gold.Chemscore.Lipo.Weighted>
-25.2355

> <Gold.Chemscore.Internal_Hbond.Weighted>
0.0000

> <Gold.Chemscore.DEClash.Weighted>
0.1616

> <Gold.Chemscore.DEInternal.Weighted>
0.4774

> <Gold.Chemscore.Rot.Weighted>
3.9834

> <Gold.Chemscore.Internal.Correction.Weighted>
   9.000000E+99

> <Gold.Reference.RMSD>
5.2698

