#       Name:                example_2
#       Creating user name   hitesit
#       Creation time:       Mon Nov  6 23:22:57 2023


#       File generated by GOLD software.
#

@<TRIPOS>MOLECULE
example_2|example_2_prep|mol2|1|dock6
    42    44     1
SMALL
NO_CHARGES


@<TRIPOS>ATOM
      1 O1          19.6306 -28.8280  48.6116 O.3            1 RES1               0.0000
      2 C2          20.1490 -29.6308  47.6259 C.ar           1 RES1               0.0000
      3 C3          20.4247 -28.6049  49.7683 C.3            1 RES1               0.0000
      4 C4          19.3330 -29.8340  46.5018 C.ar           1 RES1               0.0000
      5 C5          21.4057 -30.2455  47.6844 C.ar           1 RES1               0.0000
      6 O6          18.1087 -29.2169  46.5173 O.3            1 RES1               0.0000
      7 C7          19.8025 -30.6367  45.4622 C.ar           1 RES1               0.0000
      8 C8          21.8825 -31.0471  46.6548 C.ar           1 RES1               0.0000
      9 C9          17.2574 -29.4107  45.3965 C.3            1 RES1               0.0000
     10 C10         21.0881 -31.2270  45.5180 C.ar           1 RES1               0.0000
     11 N11         23.0801 -31.6250  46.7951 N.ar           1 RES1               0.0000
     12 C12         21.6453 -32.0371  44.5168 C.ar           1 RES1               0.0000
     13 C13         23.4863 -32.4166  45.7958 C.ar           1 RES1               0.0000
     14 N14         22.8260 -32.6582  44.6592 N.ar           1 RES1               0.0000
     15 N15         21.0117 -32.2624  43.2914 N.pl3          1 RES1               0.0000
     16 C16         21.8017 -33.0016  42.2923 C.3            1 RES1               0.0000
     17 C17         21.8399 -34.4693  42.7033 C.ar           1 RES1               0.0000
     18 C18         21.2482 -32.8720  40.8739 C.3            1 RES1               0.0000
     19 C19         23.0573 -35.1588  42.8354 C.ar           1 RES1               0.0000
     20 C20         20.6452 -35.1618  42.9553 C.ar           1 RES1               0.0000
     21 C21         23.0784 -36.5019  43.2141 C.ar           1 RES1               0.0000
     22 C22         20.6688 -36.5055  43.3345 C.ar           1 RES1               0.0000
     23 C23         21.8844 -37.1741  43.4647 C.ar           1 RES1               0.0000
     24 H1          19.8879 -27.9545  50.4573 H              1 RES1               0.0000
     25 H2          21.3624 -28.1326  49.4793 H              1 RES1               0.0000
     26 H3          20.6326 -29.5567  50.2550 H              1 RES1               0.0000
     27 H4          22.0286 -30.0904  48.5641 H              1 RES1               0.0000
     28 H5          19.1697 -30.8123  44.5934 H              1 RES1               0.0000
     29 H6          16.3274 -28.8648  45.5483 H              1 RES1               0.0000
     30 H7          17.0412 -30.4721  45.2842 H              1 RES1               0.0000
     31 H8          17.7511 -29.0437  44.4979 H              1 RES1               0.0000
     32 H9          24.4480 -32.9119  45.9207 H              1 RES1               0.0000
     33 H10         20.0687 -31.9378  43.1026 H              1 RES1               0.0000
     34 H11         22.8194 -32.6142  42.3021 H              1 RES1               0.0000
     35 H12         21.2242 -31.8213  40.5882 H              1 RES1               0.0000
     36 H13         20.2395 -33.2807  40.8390 H              1 RES1               0.0000
     37 H14         21.8865 -33.4214  40.1835 H              1 RES1               0.0000
     38 H15         23.9944 -34.6395  42.6401 H              1 RES1               0.0000
     39 H16         19.6911 -34.6465  42.8543 H              1 RES1               0.0000
     40 H17         24.0286 -37.0246  43.3138 H              1 RES1               0.0000
     41 H18         19.7355 -37.0319  43.5288 H              1 RES1               0.0000
     42 H19         21.9009 -38.2216  43.7621 H              1 RES1               0.0000
@<TRIPOS>BOND
    1    1    2 1     
    2    1    3 1     
    3    2    4 ar    
    4    2    5 ar    
    5    4    6 1     
    6    4    7 ar    
    7    5    8 ar    
    8    6    9 1     
    9    7   10 ar    
   10    8   11 ar    
   11   10   12 ar    
   12   11   13 ar    
   13   12   14 ar    
   14   12   15 1     
   15   15   16 1     
   16   16   17 1     
   17   16   18 1     
   18   17   19 ar    
   19   17   20 ar    
   20   19   21 ar    
   21   20   22 ar    
   22   21   23 ar    
   23    8   10 ar    
   24   13   14 ar    
   25   22   23 ar    
   26    3   24 1     
   27    3   25 1     
   28    3   26 1     
   29    5   27 1     
   30    7   28 1     
   31    9   29 1     
   32    9   30 1     
   33    9   31 1     
   34   13   32 1     
   35   15   33 1     
   36   16   34 1     
   37   18   35 1     
   38   18   36 1     
   39   18   37 1     
   40   19   38 1     
   41   20   39 1     
   42   21   40 1     
   43   22   41 1     
   44   23   42 1     
@<TRIPOS>SUBSTRUCTURE
      1 RES1           1
@<TRIPOS>SET
DONOR_HYDROGENS      STATIC     ATOMS    <user>   **** ""
1 33
ATOM$RED        STATIC     ATOMS    COLORGROUP SYSTEM
1 33
@<TRIPOS>COMMENT
> <Gold.Version>
2022.3.0

> <Gold.Id.Protein>
unknown|5ovf_clean|pdb

> <Gold.Protein.ActiveResidues>
 ILE839  VAL852  ILE856  LEU859  VAL871  LEU872  GLU873  VAL874  VAL875  SER876 
 ALA877  MET878  ASN879  SER880  SER881  PRO882  VAL883  TYR884  ARG885  LEU886 
 ASP887  HIS888  THR889  PHE890  GLU891  GLN892  ILE893  PRO894  SER895  ARG896 
 GLN897  LYS898  LYS899  ILE900  LEU901  GLU902  GLU903  ALA904  HIS905  GLU906 
 LEU907  SER908  GLU909  LYS914  GLU836  ILE839  VAL852  ILE855  ILE856  LEU859 
 GLN863  VAL871  LEU872  VAL874  VAL875  SER876  ALA877  MET878  ASN879  SER880 
 SER881  PRO882  VAL883  TYR884  ARG885  LEU886  ASP887  HIS888  THR889  PHE890 
 GLU891  GLN892  ILE893  PRO894  SER895  ARG896  GLN897  LYS898  LYS899  ILE900 
 LEU901  GLU902  GLU903  ALA904  HIS905  GLU906  LEU907  SER908  GLU909  ASP910 
 LYS914 

> <Gold.Score>
     Fitness  S(hb_ext) S(vdw_ext)  S(hb_int)    S(int)      intcor
     60.37       2.00      43.78       0.00      -1.82      -7.16

> <Gold.Goldscore.Fitness>
60.3708

> <Gold.Goldscore.Internal.Vdw>
-7.3180

> <Gold.Goldscore.Internal.Torsion>
-1.6595

> <Gold.Goldscore.External.Vdw>
43.7760

> <Gold.Goldscore.Internal.HBond>
0.0000

> <Gold.Goldscore.External.HBond>
2.0000

> <Gold.Goldscore.Internal.Correction>
-7.1563

> <Gold.Goldscore.Reference.RMSD>
5.3305

> <Gold.Goldscore.Hbonds>
donor molecule, donor type, donor heavy atom, donor atom, acceptor molecule, acceptor atom, score
      L1  H    15    33       P1  2553  1.00

> <Gold.Goldscore.Internal.Vdw.Weighted>
-7.3180

> <Gold.Goldscore.Internal.Torsion.Weighted>
-1.6595

> <Gold.Goldscore.External.Vdw.Weighted>
60.1920

> <Gold.Goldscore.Internal.HBond.Weighted>
0.0000

> <Gold.Goldscore.External.HBond.Weighted>
2.0000

> <Gold.Goldscore.Internal.Correction.Weighted>
-7.1563

> <Gold.Rescore>
     Score         DG    S(hbond)    S(metal)    S(lipo)     H(rot)  DE(clash)    DE(int)     intcor
     27.63     -29.63       0.99        0.00     212.12       1.56       0.11       1.89       ----

> <Gold.Chemscore.Fitness>
27.6336

> <Gold.Chemscore.DG>
-29.6331

> <Gold.Chemscore.ZeroCoef>
-5.4800

> <Gold.Chemscore.Hbond>
0.9937

> <Gold.Chemscore.Metal>
0.0000

> <Gold.Chemscore.Lipo>
212.1161

> <Gold.Chemscore.Internal_Hbond>
0.0000

> <Gold.Chemscore.DEClash>
0.1079

> <Gold.Chemscore.DEInternal>
1.8915

> <Gold.Chemscore.Rot>
1.5560

> <Gold.Chemscore.Internal.Correction>
   9.000000E+99

> <Gold.Chemscore.Reference.RMSD>
0.0000

> <Gold.Chemscore.Hbonds>
donor molecule, donor type, donor heavy atom, donor atom, acceptor molecule, acceptor atom, score
      L1  H    15    33       P1  2553  0.77

> <Gold.Chemscore.Hbond.Weighted>
-3.3189

> <Gold.Chemscore.Metal.Weighted>
-0.0000

> <Gold.Chemscore.Lipo.Weighted>
-24.8176

> <Gold.Chemscore.Internal_Hbond.Weighted>
0.0000

> <Gold.Chemscore.DEClash.Weighted>
0.1079

> <Gold.Chemscore.DEInternal.Weighted>
1.8915

> <Gold.Chemscore.Rot.Weighted>
3.9834

> <Gold.Chemscore.Internal.Correction.Weighted>
   9.000000E+99

> <Gold.Reference.RMSD>
5.3305

