#       Name:                CT1002167954
#       Creating user name   hitesit
#       Creation time:       Sun Apr 16 23:06:22 2023


#       File generated by GOLD software.
#

@<TRIPOS>MOLECULE
CT1002167954|ligand_prepared|mol2|1|dock3
    29    30     1
SMALL
NO_CHARGES


@<TRIPOS>ATOM
      1 C1         249.8220  14.1900  35.4010 C.3            1 RES1               0.0000
      2 C2         249.2515  12.8567  34.8760 C.ar           1 RES1               0.0000
      3 C3         251.1491  13.8526  36.0741 C.2            1 RES1               0.0000
      4 C4         249.9542  15.1044  34.1882 C.2            1 RES1               0.0000
      5 C5         248.9125  14.8951  36.4340 C.3            1 RES1               0.0000
      6 C6         249.9580  12.1013  33.9449 C.ar           1 RES1               0.0000
      7 C7         248.0234  12.3687  35.3146 C.ar           1 RES1               0.0000
      8 N8         252.2950  14.1998  35.4211 N.am           1 RES1               0.0000
      9 O9         251.1900  13.2558  37.1429 O.2            1 RES1               0.0000
     10 N10        251.2142  15.4790  33.8008 N.am           1 RES1               0.0000
     11 O11        248.9797  15.4905  33.5545 O.2            1 RES1               0.0000
     12 C12        249.4097  16.2703  36.8509 C.3            1 RES1               0.0000
     13 C13        249.4565  10.9001  33.4716 C.ar           1 RES1               0.0000
     14 C14        247.5237  11.1673  34.8398 C.ar           1 RES1               0.0000
     15 C15        252.3921  15.0433  34.3437 C.2            1 RES1               0.0000
     16 C16        248.2394  10.4321  33.9190 C.ar           1 RES1               0.0000
     17 O17        253.4875  15.3827  33.9053 O.2            1 RES1               0.0000
     18 H18        247.9070  14.9975  36.0075 H              1 RES1               0.0000
     19 H19        248.8352  14.2621  37.3267 H              1 RES1               0.0000
     20 H20        250.9164  12.4548  33.5794 H              1 RES1               0.0000
     21 H21        247.4425  12.9307  36.0380 H              1 RES1               0.0000
     22 H22        253.1596  13.7947  35.7656 H              1 RES1               0.0000
     23 H23        251.2800  16.1443  33.0370 H              1 RES1               0.0000
     24 H24        248.7354  16.7206  37.5764 H              1 RES1               0.0000
     25 H25        250.3973  16.2029  37.3024 H              1 RES1               0.0000
     26 H26        249.4746  16.9339  35.9911 H              1 RES1               0.0000
     27 H27        250.0231  10.3260  32.7459 H              1 RES1               0.0000
     28 H28        246.5650  10.8031  35.1943 H              1 RES1               0.0000
     29 H29        247.8469   9.4909  33.5484 H              1 RES1               0.0000
@<TRIPOS>BOND
    1    1    2 1     
    2    1    3 1     
    3    1    4 1     
    4    1    5 1     
    5    2    6 ar    
    6    2    7 ar    
    7    3    8 1     
    8    3    9 2     
    9    4   10 1     
   10    4   11 2     
   11    5   12 1     
   12    5   18 1     
   13    5   19 1     
   14    6   13 ar    
   15    6   20 1     
   16    7   14 ar    
   17    7   21 1     
   18    8   15 1     
   19    8   22 1     
   20   10   15 1     
   21   10   23 1     
   22   12   24 1     
   23   12   25 1     
   24   12   26 1     
   25   13   16 ar    
   26   13   27 1     
   27   14   16 ar    
   28   14   28 1     
   29   15   17 2     
   30   16   29 1     
@<TRIPOS>SUBSTRUCTURE
      1 RES1           1
@<TRIPOS>SET
DONOR_HYDROGENS      STATIC     ATOMS    <user>   **** ""
2 22 23
ATOM$RED        STATIC     ATOMS    COLORGROUP SYSTEM
2 22 23
@<TRIPOS>COMMENT
> <Gold.Version>
2022.3.0

> <Gold.Id.Protein>
unknown|4d1n_clean|pdb

> <Gold.Protein.RotatedTorsions>
[ 17004 16968 16967 16965 ] final  -78.49 input   59.98 | X-H torsion
[ 18512 18476 18475 18473 ] final -161.05 input   59.98 | X-H torsion
[ 18572 18537 18538 18539 ] final -117.90 input   87.04 | X-H torsion
[ 18719 18692 18693 18694 ] final  136.60 input  124.02 | X-H torsion
[ 18790 18749 18750 18751 ] final  -71.26 input   91.60 | X-H torsion
[ 19033 19013 19014 19015 ] final  170.99 input  122.46 | X-H torsion
[ 17200 17180 17181 17182 ] final   96.77 input   47.21 | X-H torsion
[ 17260 17226 17227 17228 ] final  125.24 input  117.85 | X-H torsion
[ 18826 18813 18814 18815 ] final  -92.49 input  116.01 | X-H torsion
[ 18976 18926 18927 18928 ] final   41.65 input  102.20 | X-H torsion
[ 19112 19073 19074 19075 ] final   -5.07 input   89.03 | X-H torsion
[ 18504 18465 18466 18467 ] final  -12.99 input  102.26 | X-H torsion
[ 18300 18279 18280 18281 ] final  -95.67 input   28.27 | X-H torsion
[ 18330 18317 18318 18319 ] final  164.56 input   50.43 | X-H torsion
[ 18419 18375 18376 18377 ] final  -69.43 input   32.92 | X-H torsion
[ 7530 7517 7518 7519 ] final  142.99 input   89.56 | X-H torsion
[ 7496 7462 7463 7464 ] final   64.10 input  103.52 | X-H torsion
[ 18606 18593 18594 18595 ] final   24.29 input  124.70 | X-H torsion
[ 10120 10100 10099 10096 ] final  171.72 input   60.00 | X-H torsion
[ 18304 18284 18283 18280 ] final   67.18 input   60.01 | X-H torsion
[ 11501 11468 11469 11470 ] final -120.90 input   45.03 | X-H torsion
[ 18664 18636 18634 18631 ] final  121.87 input   60.01 | X-H torsion
[ 18884 18850 18851 18852 ] final   83.30 input   84.91 | X-H torsion
[ 17308 17287 17288 17289 ] final   68.95 input   50.16 | X-H torsion
[ 22456 22422 22423 22424 ] final   36.42 input   54.84 | X-H torsion
[ 11440 11420 11419 11416 ] final  -79.40 input   60.01 | X-H torsion
[ 11650 11609 11610 11611 ] final   75.85 input   61.57 | X-H torsion
[ 11832 11793 11794 11795 ] final  -16.98 input   91.14 | X-H torsion
[ 16996 16957 16958 16959 ] final  -11.67 input   91.87 | X-H torsion
[ 27198 18540 18539 18538 ] final   10.82 input   -0.00 | X-H torsion
[ 27200 18633 18632 18631 ] final -108.93 input    0.00 | X-H torsion
[ 27203 18695 18694 18693 ] final    4.12 input   -0.00 | X-H torsion
[ 27222 17133 17132 17131 ] final -158.33 input    0.00 | X-H torsion
[ 27226 11612 11611 11610 ] final  -85.14 input    0.00 | X-H torsion
[ 27230 17060 17059 17058 ] final   65.77 input   -0.00 | X-H torsion
[ 27232 18752 18751 18750 ] final  161.57 input    0.00 | X-H torsion
[ 27234 18596 18595 18594 ] final  -21.80 input   -0.00 | X-H torsion
[ 27238 18929 18928 18927 ] final  149.12 input   -0.00 | X-H torsion
[ 27240 19016 19015 19014 ] final   81.55 input   -0.00 | X-H torsion
[ 27243 11418 11417 11416 ] final  -66.08 input    0.00 | X-H torsion
[ 27245 17183 17182 17181 ] final  117.63 input   -0.00 | X-H torsion
[ 27247 18378 18377 18376 ] final   55.82 input   -0.00 | X-H torsion
[ 27250 18217 18216 18215 ] final  124.45 input    0.00 | X-H torsion
[ 27254 17229 17228 17227 ] final -132.65 input   -0.00 | X-H torsion
[ 27259 18320 18319 18318 ] final  -31.87 input    0.00 | X-H torsion
[ 27261 18468 18467 18466 ] final    2.34 input    0.00 | X-H torsion
[ 27264 18282 18281 18280 ] final  -50.25 input   -0.00 | X-H torsion
[ 27267 17020 17019 17018 ] final  -27.42 input   -0.00 | X-H torsion
[ 27275 16960 16959 16958 ] final -170.01 input    0.00 | X-H torsion

> <Gold.Protein.ActiveResidues>
 TRP414  CYS420  VAL421  GLY422  LEU460  SER462  SER482  GLN483  ILE485  ARG486 
 TYR487  ASP500  ASN503  TRP566  TYR567  GLY568  LEU569  PRO570  ALA571  VAL572 
 SER573  ASN574  PHE589  SER590  GLY591  TRP592  TYR593  MET594  GLY595  THR596 
 GLU597  ILE598  GLY599  VAL600  ARG601  ASP602  TYR603  ARG608  ILE653  VAL654 
 TRP683  PRO687  HEM750  H4B760 

> <Gold.Protein.RotatedAtoms>
  241.9765   10.7211   32.3359 H   0  0  0  0  0  0  0  0  0  0  0  0  # atno 7496 bound_to 7462
  242.5465    8.8804   31.9700 H   0  0  0  0  0  0  0  0  0  0  0  0  # atno 7530 bound_to 7517
  247.0885    1.8845   36.0303 H   0  0  0  0  0  0  0  0  0  0  0  0  # atno 10120 bound_to 10100
  254.9391   19.7022   42.3299 H   0  0  0  0  0  0  0  0  0  0  0  0  # atno 11440 bound_to 11420
  253.7041   16.1588   42.8205 H   0  0  0  0  0  0  0  0  0  0  0  0  # atno 11501 bound_to 11468
  257.5552   12.0331   40.3599 H   0  0  0  0  0  0  0  0  0  0  0  0  # atno 11650 bound_to 11609
  260.4697   18.2277   38.3157 H   0  0  0  0  0  0  0  0  0  0  0  0  # atno 11832 bound_to 11793
  260.0682   12.5173   31.1671 H   0  0  0  0  0  0  0  0  0  0  0  0  # atno 16996 bound_to 16957
  255.8861   15.3730   35.0295 H   0  0  0  0  0  0  0  0  0  0  0  0  # atno 17004 bound_to 16968
  254.5990   10.8116   38.3979 H   0  0  0  0  0  0  0  0  0  0  0  0  # atno 17200 bound_to 17180
  250.9465   11.2116   39.8771 H   0  0  0  0  0  0  0  0  0  0  0  0  # atno 17260 bound_to 17226
  251.8429   14.0958   43.2333 H   0  0  0  0  0  0  0  0  0  0  0  0  # atno 17308 bound_to 17287
  249.5061    7.2048   40.7420 H   0  0  0  0  0  0  0  0  0  0  0  0  # atno 18300 bound_to 18279
  252.3650    4.3996   38.9909 H   0  0  0  0  0  0  0  0  0  0  0  0  # atno 18304 bound_to 18284
  249.5928    6.4242   37.7222 H   0  0  0  0  0  0  0  0  0  0  0  0  # atno 18330 bound_to 18317
  250.4053    6.5010   34.4614 H   0  0  0  0  0  0  0  0  0  0  0  0  # atno 18419 bound_to 18375
  251.2661    7.1216   30.8078 H   0  0  0  0  0  0  0  0  0  0  0  0  # atno 18504 bound_to 18465
  255.9436   13.5650   33.4851 H   0  0  0  0  0  0  0  0  0  0  0  0  # atno 18512 bound_to 18476
  250.0457    9.0848   29.0202 H   0  0  0  0  0  0  0  0  0  0  0  0  # atno 18572 bound_to 18537
  249.5783   11.6564   25.8031 H   0  0  0  0  0  0  0  0  0  0  0  0  # atno 18606 bound_to 18593
  247.0003   15.5856   26.1277 H   0  0  0  0  0  0  0  0  0  0  0  0  # atno 18664 bound_to 18636
  249.5708   14.4329   27.3914 H   0  0  0  0  0  0  0  0  0  0  0  0  # atno 18719 bound_to 18692
  252.1031   16.4581   28.2599 H   0  0  0  0  0  0  0  0  0  0  0  0  # atno 18790 bound_to 18749
  254.5977   16.7810   26.1494 H   0  0  0  0  0  0  0  0  0  0  0  0  # atno 18826 bound_to 18813
  251.7712   17.9634   25.0449 H   0  0  0  0  0  0  0  0  0  0  0  0  # atno 18884 bound_to 18850
  251.9167   19.4564   26.7393 H   0  0  0  0  0  0  0  0  0  0  0  0  # atno 18976 bound_to 18926
  252.7142   19.7012   29.4240 H   0  0  0  0  0  0  0  0  0  0  0  0  # atno 19033 bound_to 19013
  254.8311   21.4517   27.6863 H   0  0  0  0  0  0  0  0  0  0  0  0  # atno 19112 bound_to 19073
  250.7348    7.2853   26.2332 H   0  0  0  0  0  0  0  0  0  0  0  0  # atno 22456 bound_to 22422
  256.8833   16.1250   36.0728 LP  0  0  0  0  0  0  0  0  0  0  0  0  # atno 27193 bound_to 16968
  256.0064   14.8370   36.5614 LP  0  0  0  0  0  0  0  0  0  0  0  0  # atno 27194 bound_to 16968
  254.5507   13.5698   34.3259 LP  0  0  0  0  0  0  0  0  0  0  0  0  # atno 27195 bound_to 18476
  254.7640   14.6125   33.0874 LP  0  0  0  0  0  0  0  0  0  0  0  0  # atno 27196 bound_to 18476
  249.7768   10.7317   29.5457 LP  0  0  0  0  0  0  0  0  0  0  0  0  # atno 27197 bound_to 18537
  250.3492   12.3692   28.6378 LP  0  0  0  0  0  0  0  0  0  0  0  0  # atno 27198 bound_to 18540
  251.0028   13.1290   27.2251 LP  0  0  0  0  0  0  0  0  0  0  0  0  # atno 27199 bound_to 18540
  251.3866   17.4999   26.5754 LP  0  0  0  0  0  0  0  0  0  0  0  0  # atno 27200 bound_to 18633
  249.7498   17.9184   26.1938 LP  0  0  0  0  0  0  0  0  0  0  0  0  # atno 27201 bound_to 18633
  250.3040   15.7747   26.5588 LP  0  0  0  0  0  0  0  0  0  0  0  0  # atno 27202 bound_to 18692
  251.4477   17.9801   29.8242 LP  0  0  0  0  0  0  0  0  0  0  0  0  # atno 27203 bound_to 18695
  253.0630   17.9320   29.2010 LP  0  0  0  0  0  0  0  0  0  0  0  0  # atno 27204 bound_to 18695
  252.5352   14.8272   27.7900 LP  0  0  0  0  0  0  0  0  0  0  0  0  # atno 27209 bound_to 18749
  253.1986   20.8019   28.1548 LP  0  0  0  0  0  0  0  0  0  0  0  0  # atno 27210 bound_to 19013
  251.7560    9.0129   38.2224 LP  0  0  0  0  0  0  0  0  0  0  0  0  # atno 27222 bound_to 17133
  252.3835    8.4680   36.7027 LP  0  0  0  0  0  0  0  0  0  0  0  0  # atno 27223 bound_to 17133
  252.9281   10.7666   37.8824 LP  0  0  0  0  0  0  0  0  0  0  0  0  # atno 27224 bound_to 17180
  252.4072   11.3390   40.8344 LP  0  0  0  0  0  0  0  0  0  0  0  0  # atno 27225 bound_to 17226
  258.1439   13.7882   37.4025 LP  0  0  0  0  0  0  0  0  0  0  0  0  # atno 27226 bound_to 11612
  257.1578   14.3852   38.6953 LP  0  0  0  0  0  0  0  0  0  0  0  0  # atno 27227 bound_to 11612
  257.3188   10.4589   36.4342 LP  0  0  0  0  0  0  0  0  0  0  0  0  # atno 27230 bound_to 17060
  256.2380   10.0408   37.7215 LP  0  0  0  0  0  0  0  0  0  0  0  0  # atno 27231 bound_to 17060
  255.1992   18.7033   25.8518 LP  0  0  0  0  0  0  0  0  0  0  0  0  # atno 27232 bound_to 18752
  254.9097   18.6836   27.5594 LP  0  0  0  0  0  0  0  0  0  0  0  0  # atno 27233 bound_to 18752
  253.1813   13.8594   25.6795 LP  0  0  0  0  0  0  0  0  0  0  0  0  # atno 27234 bound_to 18596
  252.3166   15.1926   24.9904 LP  0  0  0  0  0  0  0  0  0  0  0  0  # atno 27235 bound_to 18596
  253.1489   15.9992   25.5542 LP  0  0  0  0  0  0  0  0  0  0  0  0  # atno 27236 bound_to 18813
  250.6842   20.4823   26.0527 LP  0  0  0  0  0  0  0  0  0  0  0  0  # atno 27237 bound_to 18926
  253.7407   22.7649   29.4360 LP  0  0  0  0  0  0  0  0  0  0  0  0  # atno 27238 bound_to 18929
  252.8104   23.2159   28.0463 LP  0  0  0  0  0  0  0  0  0  0  0  0  # atno 27239 bound_to 18929
  257.2682   21.8196   29.7304 LP  0  0  0  0  0  0  0  0  0  0  0  0  # atno 27240 bound_to 19016
  256.1736   23.0552   29.2060 LP  0  0  0  0  0  0  0  0  0  0  0  0  # atno 27241 bound_to 19016
  255.8753   20.0613   27.8762 LP  0  0  0  0  0  0  0  0  0  0  0  0  # atno 27242 bound_to 19073
  251.8001   15.4768   43.3192 LP  0  0  0  0  0  0  0  0  0  0  0  0  # atno 27243 bound_to 11418
  251.9239   15.8747   41.6380 LP  0  0  0  0  0  0  0  0  0  0  0  0  # atno 27244 bound_to 11418
  253.7530   12.8525   41.3712 LP  0  0  0  0  0  0  0  0  0  0  0  0  # atno 27245 bound_to 17183
  253.9863   11.3920   42.2725 LP  0  0  0  0  0  0  0  0  0  0  0  0  # atno 27246 bound_to 17183
  249.3294    7.9428   32.8485 LP  0  0  0  0  0  0  0  0  0  0  0  0  # atno 27247 bound_to 18378
  249.1278    7.7931   31.1347 LP  0  0  0  0  0  0  0  0  0  0  0  0  # atno 27248 bound_to 18378
  252.5037    7.9739   31.7043 LP  0  0  0  0  0  0  0  0  0  0  0  0  # atno 27249 bound_to 18465
  251.4241    8.9065   40.7210 LP  0  0  0  0  0  0  0  0  0  0  0  0  # atno 27250 bound_to 18217
  249.8261    9.4473   41.1132 LP  0  0  0  0  0  0  0  0  0  0  0  0  # atno 27251 bound_to 18217
  249.8624   11.2612   44.0659 LP  0  0  0  0  0  0  0  0  0  0  0  0  # atno 27254 bound_to 17229
  250.7348   10.4447   42.8120 LP  0  0  0  0  0  0  0  0  0  0  0  0  # atno 27255 bound_to 17229
  250.5177    5.8423   41.1547 LP  0  0  0  0  0  0  0  0  0  0  0  0  # atno 27256 bound_to 18279
  251.2112    6.5085   37.0651 LP  0  0  0  0  0  0  0  0  0  0  0  0  # atno 27257 bound_to 18317
  249.9927    5.0137   33.6350 LP  0  0  0  0  0  0  0  0  0  0  0  0  # atno 27258 bound_to 18375
  252.4504    5.0680   35.9816 LP  0  0  0  0  0  0  0  0  0  0  0  0  # atno 27259 bound_to 18320
  252.6083    4.5982   34.3220 LP  0  0  0  0  0  0  0  0  0  0  0  0  # atno 27260 bound_to 18320
  251.3584    7.3717   28.4687 LP  0  0  0  0  0  0  0  0  0  0  0  0  # atno 27261 bound_to 18468
  250.1251    8.0395   27.4524 LP  0  0  0  0  0  0  0  0  0  0  0  0  # atno 27262 bound_to 18468
  240.9777    8.1411   31.7515 LP  0  0  0  0  0  0  0  0  0  0  0  0  # atno 27263 bound_to 7517
  250.4770    4.0487   39.2016 LP  0  0  0  0  0  0  0  0  0  0  0  0  # atno 27264 bound_to 18282
  248.9662    4.3564   38.4125 LP  0  0  0  0  0  0  0  0  0  0  0  0  # atno 27265 bound_to 18282
  240.2662   10.9262   32.6558 LP  0  0  0  0  0  0  0  0  0  0  0  0  # atno 27266 bound_to 7462
  256.1911    7.7865   31.7310 LP  0  0  0  0  0  0  0  0  0  0  0  0  # atno 27267 bound_to 17020
  255.7452    7.1113   33.2624 LP  0  0  0  0  0  0  0  0  0  0  0  0  # atno 27268 bound_to 17020
  250.6799   10.3127   26.0282 LP  0  0  0  0  0  0  0  0  0  0  0  0  # atno 27269 bound_to 18593
  248.6048    1.3696   35.7393 LP  0  0  0  0  0  0  0  0  0  0  0  0  # atno 27270 bound_to 10100
  248.3406    2.9056   36.2266 LP  0  0  0  0  0  0  0  0  0  0  0  0  # atno 27271 bound_to 10100
  252.0589    4.7299   40.5544 LP  0  0  0  0  0  0  0  0  0  0  0  0  # atno 27272 bound_to 18284
  253.5893    4.7922   39.9882 LP  0  0  0  0  0  0  0  0  0  0  0  0  # atno 27273 bound_to 18284
  255.2224   16.6271   42.0827 LP  0  0  0  0  0  0  0  0  0  0  0  0  # atno 27274 bound_to 11468
  257.6350   10.2775   31.7501 LP  0  0  0  0  0  0  0  0  0  0  0  0  # atno 27275 bound_to 16960
  258.4385   11.7964   31.5322 LP  0  0  0  0  0  0  0  0  0  0  0  0  # atno 27276 bound_to 16960

> <Gold.Score>
     Fitness  S(hb_ext) S(vdw_ext)  S(hb_int)    S(int)      intcor
     44.21       1.50      31.51       0.00      -0.61      -0.80

> <Gold.Goldscore.Fitness>
44.2135

> <Gold.Goldscore.Internal.Vdw>
-1.0043

> <Gold.Goldscore.Internal.Torsion>
-0.4140

> <Gold.Goldscore.External.Vdw>
31.5109

> <Gold.Goldscore.Internal.HBond>
0.0000

> <Gold.Goldscore.External.HBond>
1.5002

> <Gold.Goldscore.Internal.Correction>
-0.8041

> <Gold.Goldscore.Hbonds>
donor molecule, donor type, donor heavy atom, donor atom, acceptor molecule, acceptor atom, score
      P1  H 11475 11507       L1    17  0.35
      P1  H 16968 17004       L1    17  0.22
      L1  H     8    22       P1 11476  0.06

> <Gold.Goldscore.Internal.Vdw.Weighted>
-1.0043

> <Gold.Goldscore.Internal.Torsion.Weighted>
-0.4140

> <Gold.Goldscore.External.Vdw.Weighted>
43.3275

> <Gold.Goldscore.Internal.HBond.Weighted>
0.0000

> <Gold.Goldscore.External.HBond.Weighted>
1.5002

> <Gold.Goldscore.Internal.Correction.Weighted>
-0.8041

> <Gold.Rescore>
     Score     S(PLP)   S(hbond)     S(cho)   S(metal)  DE(clash)   DE(tors)     intcor
     -4.62       5.42       0.30       0.00       0.00       0.00       0.06       ----

> <Gold.PLP.Fitness>
-4.6244

> <Gold.PLP.PLP>
5.4199

> <Gold.PLP.part.hbond>
-3.2875

> <Gold.PLP.part.metal>
0.0000

> <Gold.PLP.part.buried>
34.4305

> <Gold.PLP.part.nonpolar>
-42.6392

> <Gold.PLP.part.repulsive>
15.3503

> <Gold.PLP.ligand.clash>
0.0000

> <Gold.PLP.ligand.torsion>
0.0558

> <Gold.PLP.Chemscore.Hbond>
0.3024

> <Gold.PLP.Chemscore.CHOScore>
0.0000

> <Gold.PLP.Chemscore.Metal>
0.0000

> <Gold.Chemscore.Hbonds>
donor molecule, donor type, donor heavy atom, donor atom, acceptor molecule, acceptor atom, score
      L1  H     8    22       P1 11476  0.45

> <Gold.PLP.Chemscore.Internal.Correction>
   9.000000E+99

#       Name:                CT1002167954
#       Creating user name   hitesit
#       Creation time:       Sun Apr 16 23:06:24 2023


#       File generated by GOLD software.
#

@<TRIPOS>MOLECULE
CT1002167954|ligand_prepared|mol2|1|dock5
    29    30     1
SMALL
NO_CHARGES


@<TRIPOS>ATOM
      1 C1         249.6672  14.0928  35.5219 C.3            1 RES1               0.0000
      2 C2         249.0685  12.7636  35.0184 C.ar           1 RES1               0.0000
      3 C3         250.9655  13.7337  36.2386 C.2            1 RES1               0.0000
      4 C4         249.8591  14.9685  34.2886 C.2            1 RES1               0.0000
      5 C5         248.7545  14.8543  36.5111 C.3            1 RES1               0.0000
      6 C6         249.6756  12.0604  33.9823 C.ar           1 RES1               0.0000
      7 C7         247.9131  12.2276  35.5810 C.ar           1 RES1               0.0000
      8 N8         252.1380  14.0269  35.6068 N.am           1 RES1               0.0000
      9 O9         250.9603  13.1659  37.3239 O.2            1 RES1               0.0000
     10 N10        251.1397  15.2930  33.9245 N.am           1 RES1               0.0000
     11 O11        248.9138  15.3666  33.6192 O.2            1 RES1               0.0000
     12 C12        249.2481  16.2522  36.8491 C.3            1 RES1               0.0000
     13 C13        249.1486  10.8632  33.5269 C.ar           1 RES1               0.0000
     14 C14        247.3876  11.0304  35.1240 C.ar           1 RES1               0.0000
     15 C15        252.2892  14.8366  34.5099 C.2            1 RES1               0.0000
     16 C16        248.0046  10.3472  34.0977 C.ar           1 RES1               0.0000
     17 O17        253.4055  15.1297  34.0914 O.2            1 RES1               0.0000
     18 H18        247.7496  14.9298  36.0777 H              1 RES1               0.0000
     19 H19        248.6768  14.2735  37.4385 H              1 RES1               0.0000
     20 H20        250.5751  12.4521  33.5192 H              1 RES1               0.0000
     21 H21        247.4102  12.7483  36.3888 H              1 RES1               0.0000
     22 H22        252.9803  13.6052  35.9849 H              1 RES1               0.0000
     23 H23        251.2459  15.9344  33.1450 H              1 RES1               0.0000
     24 H24        248.5717  16.7421  37.5464 H              1 RES1               0.0000
     25 H25        250.2351  16.2129  37.3054 H              1 RES1               0.0000
     26 H26        249.3133  16.8654  35.9527 H              1 RES1               0.0000
     27 H27        249.6372  10.3301  32.7180 H              1 RES1               0.0000
     28 H28        246.4867  10.6283  35.5757 H              1 RES1               0.0000
     29 H29        247.5921   9.4092  33.7410 H              1 RES1               0.0000
@<TRIPOS>BOND
    1    1    2 1     
    2    1    3 1     
    3    1    4 1     
    4    1    5 1     
    5    2    6 ar    
    6    2    7 ar    
    7    3    8 1     
    8    3    9 2     
    9    4   10 1     
   10    4   11 2     
   11    5   12 1     
   12    5   18 1     
   13    5   19 1     
   14    6   13 ar    
   15    6   20 1     
   16    7   14 ar    
   17    7   21 1     
   18    8   15 1     
   19    8   22 1     
   20   10   15 1     
   21   10   23 1     
   22   12   24 1     
   23   12   25 1     
   24   12   26 1     
   25   13   16 ar    
   26   13   27 1     
   27   14   16 ar    
   28   14   28 1     
   29   15   17 2     
   30   16   29 1     
@<TRIPOS>SUBSTRUCTURE
      1 RES1           1
@<TRIPOS>SET
DONOR_HYDROGENS      STATIC     ATOMS    <user>   **** ""
2 22 23
ATOM$RED        STATIC     ATOMS    COLORGROUP SYSTEM
2 22 23
@<TRIPOS>COMMENT
> <Gold.Version>
2022.3.0

> <Gold.Id.Protein>
unknown|4d1n_clean|pdb

> <Gold.Protein.RotatedTorsions>
[ 17004 16968 16967 16965 ] final  -77.84 input   59.98 | X-H torsion
[ 18512 18476 18475 18473 ] final   43.32 input   59.98 | X-H torsion
[ 18572 18537 18538 18539 ] final -162.81 input   87.04 | X-H torsion
[ 18719 18692 18693 18694 ] final   52.10 input  124.02 | X-H torsion
[ 18790 18749 18750 18751 ] final  -47.54 input   91.60 | X-H torsion
[ 19033 19013 19014 19015 ] final  -90.27 input  122.46 | X-H torsion
[ 17200 17180 17181 17182 ] final  113.75 input   47.21 | X-H torsion
[ 17260 17226 17227 17228 ] final -174.25 input  117.85 | X-H torsion
[ 18826 18813 18814 18815 ] final -115.66 input  116.01 | X-H torsion
[ 18976 18926 18927 18928 ] final  -74.02 input  102.20 | X-H torsion
[ 19112 19073 19074 19075 ] final   11.56 input   89.03 | X-H torsion
[ 18504 18465 18466 18467 ] final   30.53 input  102.26 | X-H torsion
[ 18300 18279 18280 18281 ] final   22.02 input   28.27 | X-H torsion
[ 18330 18317 18318 18319 ] final -140.02 input   50.43 | X-H torsion
[ 18419 18375 18376 18377 ] final  -26.45 input   32.92 | X-H torsion
[ 7530 7517 7518 7519 ] final -113.49 input   89.56 | X-H torsion
[ 7496 7462 7463 7464 ] final -110.53 input  103.52 | X-H torsion
[ 18606 18593 18594 18595 ] final  -92.04 input  124.70 | X-H torsion
[ 10120 10100 10099 10096 ] final   11.26 input   60.00 | X-H torsion
[ 18304 18284 18283 18280 ] final  166.52 input   60.01 | X-H torsion
[ 11501 11468 11469 11470 ] final  -68.09 input   45.03 | X-H torsion
[ 18664 18636 18634 18631 ] final   -7.31 input   60.01 | X-H torsion
[ 18884 18850 18851 18852 ] final   82.67 input   84.91 | X-H torsion
[ 17308 17287 17288 17289 ] final  114.50 input   50.16 | X-H torsion
[ 22456 22422 22423 22424 ] final -147.19 input   54.84 | X-H torsion
[ 11440 11420 11419 11416 ] final  -78.58 input   60.01 | X-H torsion
[ 11650 11609 11610 11611 ] final  -61.76 input   61.57 | X-H torsion
[ 11832 11793 11794 11795 ] final   99.06 input   91.14 | X-H torsion
[ 16996 16957 16958 16959 ] final  178.91 input   91.87 | X-H torsion
[ 27198 18540 18539 18538 ] final   39.24 input   -0.00 | X-H torsion
[ 27200 18633 18632 18631 ] final  124.13 input    0.00 | X-H torsion
[ 27203 18695 18694 18693 ] final  122.53 input   -0.00 | X-H torsion
[ 27222 17133 17132 17131 ] final -109.16 input    0.00 | X-H torsion
[ 27226 11612 11611 11610 ] final  -15.81 input    0.00 | X-H torsion
[ 27230 17060 17059 17058 ] final  148.62 input   -0.00 | X-H torsion
[ 27232 18752 18751 18750 ] final   69.91 input    0.00 | X-H torsion
[ 27234 18596 18595 18594 ] final  -98.89 input   -0.00 | X-H torsion
[ 27238 18929 18928 18927 ] final  -75.32 input   -0.00 | X-H torsion
[ 27240 19016 19015 19014 ] final  179.35 input   -0.00 | X-H torsion
[ 27243 11418 11417 11416 ] final -139.53 input    0.00 | X-H torsion
[ 27245 17183 17182 17181 ] final   86.00 input   -0.00 | X-H torsion
[ 27247 18378 18377 18376 ] final -109.74 input   -0.00 | X-H torsion
[ 27250 18217 18216 18215 ] final  119.21 input    0.00 | X-H torsion
[ 27254 17229 17228 17227 ] final -133.02 input   -0.00 | X-H torsion
[ 27259 18320 18319 18318 ] final  -83.26 input    0.00 | X-H torsion
[ 27261 18468 18467 18466 ] final  -72.46 input    0.00 | X-H torsion
[ 27264 18282 18281 18280 ] final  -75.32 input   -0.00 | X-H torsion
[ 27267 17020 17019 17018 ] final -168.99 input   -0.00 | X-H torsion
[ 27275 16960 16959 16958 ] final -109.63 input    0.00 | X-H torsion

> <Gold.Protein.ActiveResidues>
 TRP414  CYS420  VAL421  GLY422  LEU460  SER462  SER482  GLN483  ILE485  ARG486 
 TYR487  ASP500  ASN503  TRP566  TYR567  GLY568  LEU569  PRO570  ALA571  VAL572 
 SER573  ASN574  PHE589  SER590  GLY591  TRP592  TYR593  MET594  GLY595  THR596 
 GLU597  ILE598  GLY599  VAL600  ARG601  ASP602  TYR603  ARG608  ILE653  VAL654 
 TRP683  PRO687  HEM750  H4B760 

> <Gold.Protein.RotatedAtoms>
  240.2307   10.8433   32.6788 H   0  0  0  0  0  0  0  0  0  0  0  0  # atno 7496 bound_to 7462
  241.6779    8.4347   30.9807 H   0  0  0  0  0  0  0  0  0  0  0  0  # atno 7530 bound_to 7517
  248.9280    1.9158   35.8792 H   0  0  0  0  0  0  0  0  0  0  0  0  # atno 10120 bound_to 10100
  254.9447   19.6901   42.3319 H   0  0  0  0  0  0  0  0  0  0  0  0  # atno 11440 bound_to 11420
  254.3580   16.0463   43.2565 H   0  0  0  0  0  0  0  0  0  0  0  0  # atno 11501 bound_to 11468
  258.1075   13.1276   41.4794 H   0  0  0  0  0  0  0  0  0  0  0  0  # atno 11650 bound_to 11609
  260.3212   18.0405   36.8155 H   0  0  0  0  0  0  0  0  0  0  0  0  # atno 11832 bound_to 11793
  261.3792   13.1733   32.1284 H   0  0  0  0  0  0  0  0  0  0  0  0  # atno 16996 bound_to 16957
  255.8804   15.3646   35.0327 H   0  0  0  0  0  0  0  0  0  0  0  0  # atno 17004 bound_to 16968
  254.5940   10.5671   38.3040 H   0  0  0  0  0  0  0  0  0  0  0  0  # atno 17200 bound_to 17180
  251.6028   11.7727   39.6290 H   0  0  0  0  0  0  0  0  0  0  0  0  # atno 17260 bound_to 17226
  252.1636   13.5275   43.0361 H   0  0  0  0  0  0  0  0  0  0  0  0  # atno 17308 bound_to 17287
  249.7398    5.7139   40.7135 H   0  0  0  0  0  0  0  0  0  0  0  0  # atno 18300 bound_to 18279
  253.5852    4.7158   39.6599 H   0  0  0  0  0  0  0  0  0  0  0  0  # atno 18304 bound_to 18284
  250.1383    5.8587   37.9726 H   0  0  0  0  0  0  0  0  0  0  0  0  # atno 18330 bound_to 18317
  249.9046    6.5862   34.0518 H   0  0  0  0  0  0  0  0  0  0  0  0  # atno 18419 bound_to 18375
  251.8503    7.0927   30.5053 H   0  0  0  0  0  0  0  0  0  0  0  0  # atno 18504 bound_to 18465
  254.2578   13.9853   34.0579 H   0  0  0  0  0  0  0  0  0  0  0  0  # atno 18512 bound_to 18476
  249.4294    9.1734   29.2899 H   0  0  0  0  0  0  0  0  0  0  0  0  # atno 18572 bound_to 18537
  250.6224   10.9773   26.6690 H   0  0  0  0  0  0  0  0  0  0  0  0  # atno 18606 bound_to 18593
  248.1730   14.3683   26.1645 H   0  0  0  0  0  0  0  0  0  0  0  0  # atno 18664 bound_to 18636
  250.6553   14.6105   26.9856 H   0  0  0  0  0  0  0  0  0  0  0  0  # atno 18719 bound_to 18692
  252.0588   16.4702   27.8964 H   0  0  0  0  0  0  0  0  0  0  0  0  # atno 18790 bound_to 18749
  254.7314   16.4828   26.0044 H   0  0  0  0  0  0  0  0  0  0  0  0  # atno 18826 bound_to 18813
  251.7753   17.9668   25.0530 H   0  0  0  0  0  0  0  0  0  0  0  0  # atno 18884 bound_to 18850
  251.5879   20.6555   25.9265 H   0  0  0  0  0  0  0  0  0  0  0  0  # atno 18976 bound_to 18926
  252.6949   21.0186   29.1527 H   0  0  0  0  0  0  0  0  0  0  0  0  # atno 19033 bound_to 19013
  254.7380   21.3090   27.4946 H   0  0  0  0  0  0  0  0  0  0  0  0  # atno 19112 bound_to 19073
  251.1374    5.5979   25.8807 H   0  0  0  0  0  0  0  0  0  0  0  0  # atno 22456 bound_to 22422
  256.8824   16.1285   36.0627 LP  0  0  0  0  0  0  0  0  0  0  0  0  # atno 27193 bound_to 16968
  256.0130   14.8420   36.5682 LP  0  0  0  0  0  0  0  0  0  0  0  0  # atno 27194 bound_to 16968
  255.2958   14.4800   32.9068 LP  0  0  0  0  0  0  0  0  0  0  0  0  # atno 27195 bound_to 18476
  255.7177   13.2788   33.9294 LP  0  0  0  0  0  0  0  0  0  0  0  0  # atno 27196 bound_to 18476
  250.3742   10.6459   29.2843 LP  0  0  0  0  0  0  0  0  0  0  0  0  # atno 27197 bound_to 18537
  250.7490   12.2255   28.6174 LP  0  0  0  0  0  0  0  0  0  0  0  0  # atno 27198 bound_to 18540
  250.6030   13.2727   27.2455 LP  0  0  0  0  0  0  0  0  0  0  0  0  # atno 27199 bound_to 18540
  249.9215   17.8443   26.9445 LP  0  0  0  0  0  0  0  0  0  0  0  0  # atno 27200 bound_to 18633
  251.2149   17.5740   25.8247 LP  0  0  0  0  0  0  0  0  0  0  0  0  # atno 27201 bound_to 18633
  249.2213   15.5974   26.9639 LP  0  0  0  0  0  0  0  0  0  0  0  0  # atno 27202 bound_to 18692
  252.8606   17.5369   29.9686 LP  0  0  0  0  0  0  0  0  0  0  0  0  # atno 27203 bound_to 18695
  251.6501   18.3753   29.0567 LP  0  0  0  0  0  0  0  0  0  0  0  0  # atno 27204 bound_to 18695
  252.5779   14.8155   28.1406 LP  0  0  0  0  0  0  0  0  0  0  0  0  # atno 27209 bound_to 18749
  253.2174   19.5201   28.4188 LP  0  0  0  0  0  0  0  0  0  0  0  0  # atno 27210 bound_to 19013
  251.4350    9.3006   37.6449 LP  0  0  0  0  0  0  0  0  0  0  0  0  # atno 27222 bound_to 17133
  252.7046    8.1803   37.2802 LP  0  0  0  0  0  0  0  0  0  0  0  0  # atno 27223 bound_to 17133
  252.9329   11.0041   37.9736 LP  0  0  0  0  0  0  0  0  0  0  0  0  # atno 27224 bound_to 17180
  251.7744   10.7982   41.0737 LP  0  0  0  0  0  0  0  0  0  0  0  0  # atno 27225 bound_to 17226
  257.6656   13.2208   38.0504 LP  0  0  0  0  0  0  0  0  0  0  0  0  # atno 27226 bound_to 11612
  257.6362   14.9526   38.0474 LP  0  0  0  0  0  0  0  0  0  0  0  0  # atno 27227 bound_to 11612
  256.3273   10.9232   36.7728 LP  0  0  0  0  0  0  0  0  0  0  0  0  # atno 27230 bound_to 17060
  257.2294    9.5764   37.3829 LP  0  0  0  0  0  0  0  0  0  0  0  0  # atno 27231 bound_to 17060
  255.8285   18.3362   26.8581 LP  0  0  0  0  0  0  0  0  0  0  0  0  # atno 27232 bound_to 18752
  254.2804   19.0507   26.5531 LP  0  0  0  0  0  0  0  0  0  0  0  0  # atno 27233 bound_to 18752
  252.5643   14.5909   26.1786 LP  0  0  0  0  0  0  0  0  0  0  0  0  # atno 27234 bound_to 18596
  252.9335   14.4611   24.4913 LP  0  0  0  0  0  0  0  0  0  0  0  0  # atno 27235 bound_to 18596
  253.0196   16.2873   25.6944 LP  0  0  0  0  0  0  0  0  0  0  0  0  # atno 27236 bound_to 18813
  251.0091   19.2974   26.8558 LP  0  0  0  0  0  0  0  0  0  0  0  0  # atno 27237 bound_to 18926
  253.4129   23.0145   27.8864 LP  0  0  0  0  0  0  0  0  0  0  0  0  # atno 27238 bound_to 18929
  253.1382   22.9663   29.5959 LP  0  0  0  0  0  0  0  0  0  0  0  0  # atno 27239 bound_to 18929
  257.0739   22.5852   28.6913 LP  0  0  0  0  0  0  0  0  0  0  0  0  # atno 27240 bound_to 19016
  256.3679   22.2896   30.2451 LP  0  0  0  0  0  0  0  0  0  0  0  0  # atno 27241 bound_to 19016
  255.9658   20.2000   28.0625 LP  0  0  0  0  0  0  0  0  0  0  0  0  # atno 27242 bound_to 19073
  252.2214   14.8937   42.5742 LP  0  0  0  0  0  0  0  0  0  0  0  0  # atno 27243 bound_to 11418
  251.5026   16.4579   42.3830 LP  0  0  0  0  0  0  0  0  0  0  0  0  # atno 27244 bound_to 11418
  254.1158   12.6310   41.1657 LP  0  0  0  0  0  0  0  0  0  0  0  0  # atno 27245 bound_to 17183
  253.6235   11.6135   42.4780 LP  0  0  0  0  0  0  0  0  0  0  0  0  # atno 27246 bound_to 17183
  249.0750    7.5883   31.1865 LP  0  0  0  0  0  0  0  0  0  0  0  0  # atno 27247 bound_to 18378
  249.3823    8.1476   32.7967 LP  0  0  0  0  0  0  0  0  0  0  0  0  # atno 27248 bound_to 18378
  251.9371    8.0019   31.9977 LP  0  0  0  0  0  0  0  0  0  0  0  0  # atno 27249 bound_to 18465
  251.4437    8.9215   40.7963 LP  0  0  0  0  0  0  0  0  0  0  0  0  # atno 27250 bound_to 18217
  249.8065    9.4323   41.0379 LP  0  0  0  0  0  0  0  0  0  0  0  0  # atno 27251 bound_to 18217
  249.8668   11.2608   44.0692 LP  0  0  0  0  0  0  0  0  0  0  0  0  # atno 27254 bound_to 17229
  250.7303   10.4452   42.8086 LP  0  0  0  0  0  0  0  0  0  0  0  0  # atno 27255 bound_to 17229
  250.2887    7.3040   41.1828 LP  0  0  0  0  0  0  0  0  0  0  0  0  # atno 27256 bound_to 18279
  250.6808    7.0584   36.8217 LP  0  0  0  0  0  0  0  0  0  0  0  0  # atno 27257 bound_to 18317
  250.4764    4.9314   34.0308 LP  0  0  0  0  0  0  0  0  0  0  0  0  # atno 27258 bound_to 18375
  252.7162    5.5954   35.5178 LP  0  0  0  0  0  0  0  0  0  0  0  0  # atno 27259 bound_to 18320
  252.3425    4.0707   34.7858 LP  0  0  0  0  0  0  0  0  0  0  0  0  # atno 27260 bound_to 18320
  251.4848    8.0368   27.6635 LP  0  0  0  0  0  0  0  0  0  0  0  0  # atno 27261 bound_to 18468
  249.9987    7.3744   28.2576 LP  0  0  0  0  0  0  0  0  0  0  0  0  # atno 27262 bound_to 18468
  241.8251    8.5758   32.7167 LP  0  0  0  0  0  0  0  0  0  0  0  0  # atno 27263 bound_to 7517
  250.5345    3.9083   38.8576 LP  0  0  0  0  0  0  0  0  0  0  0  0  # atno 27264 bound_to 18282
  248.9087    4.4968   38.7564 LP  0  0  0  0  0  0  0  0  0  0  0  0  # atno 27265 bound_to 18282
  241.9464   10.8086   32.3258 LP  0  0  0  0  0  0  0  0  0  0  0  0  # atno 27266 bound_to 7462
  255.5760    7.6552   33.2408 LP  0  0  0  0  0  0  0  0  0  0  0  0  # atno 27267 bound_to 17020
  256.3602    7.2426   31.7526 LP  0  0  0  0  0  0  0  0  0  0  0  0  # atno 27268 bound_to 17020
  249.6754   10.9662   25.1950 LP  0  0  0  0  0  0  0  0  0  0  0  0  # atno 27269 bound_to 18593
  247.6910    2.8946   36.2800 LP  0  0  0  0  0  0  0  0  0  0  0  0  # atno 27270 bound_to 10100
  247.4029    1.3492   35.8381 LP  0  0  0  0  0  0  0  0  0  0  0  0  # atno 27271 bound_to 10100
  252.0710    4.3987   39.1557 LP  0  0  0  0  0  0  0  0  0  0  0  0  # atno 27272 bound_to 18284
  252.3480    4.8048   40.7129 LP  0  0  0  0  0  0  0  0  0  0  0  0  # atno 27273 bound_to 18284
  254.5932   16.7354   41.6632 LP  0  0  0  0  0  0  0  0  0  0  0  0  # atno 27274 bound_to 11468
  257.5829   10.8926   32.3645 LP  0  0  0  0  0  0  0  0  0  0  0  0  # atno 27275 bound_to 16960
  258.4906   11.1813   30.9178 LP  0  0  0  0  0  0  0  0  0  0  0  0  # atno 27276 bound_to 16960

> <Gold.Score>
     Fitness  S(hb_ext) S(vdw_ext)  S(hb_int)    S(int)      intcor
     41.67       1.74      29.16       0.00      -0.16      -0.76

> <Gold.Goldscore.Fitness>
41.6734

> <Gold.Goldscore.Internal.Vdw>
-0.4442

> <Gold.Goldscore.Internal.Torsion>
-0.4778

> <Gold.Goldscore.External.Vdw>
29.1610

> <Gold.Goldscore.Internal.HBond>
0.0000

> <Gold.Goldscore.External.HBond>
1.7405

> <Gold.Goldscore.Internal.Correction>
-0.7585

> <Gold.Goldscore.Hbonds>
donor molecule, donor type, donor heavy atom, donor atom, acceptor molecule, acceptor atom, score
      P1  H 11475 11507       L1    17  0.29
      P1  H 16968 17004       L1    17  0.13
      P1  H 18476 18512       L1    17  0.09
      P1  H 17226 17260       L1     9  0.12
      L1  H     8    22       P1 11476  0.08

> <Gold.Goldscore.Internal.Vdw.Weighted>
-0.4442

> <Gold.Goldscore.Internal.Torsion.Weighted>
-0.4778

> <Gold.Goldscore.External.Vdw.Weighted>
40.0964

> <Gold.Goldscore.Internal.HBond.Weighted>
0.0000

> <Gold.Goldscore.External.HBond.Weighted>
1.7405

> <Gold.Goldscore.Internal.Correction.Weighted>
-0.7585

> <Gold.Rescore>
     Score     S(PLP)   S(hbond)     S(cho)   S(metal)  DE(clash)   DE(tors)     intcor
     16.72     -14.61       0.78       0.00       0.00       0.00       0.12       ----

> <Gold.PLP.Fitness>
16.7214

> <Gold.PLP.PLP>
-14.6078

> <Gold.PLP.part.hbond>
-3.7860

> <Gold.PLP.part.metal>
0.0000

> <Gold.PLP.part.buried>
15.6990

> <Gold.PLP.part.nonpolar>
-33.0372

> <Gold.PLP.part.repulsive>
3.3360

> <Gold.PLP.ligand.clash>
0.0000

> <Gold.PLP.ligand.torsion>
0.1189

> <Gold.PLP.Chemscore.Hbond>
0.7838

> <Gold.PLP.Chemscore.CHOScore>
0.0000

> <Gold.PLP.Chemscore.Metal>
0.0000

> <Gold.Chemscore.Hbonds>
donor molecule, donor type, donor heavy atom, donor atom, acceptor molecule, acceptor atom, score
      L1  H     8    22       P1 11476  0.38
      P1  H 18476 18512       L1    17  0.37

> <Gold.PLP.Chemscore.Internal.Correction>
   9.000000E+99

#       Name:                CT1002167954
#       Creating user name   hitesit
#       Creation time:       Sun Apr 16 23:06:27 2023


#       File generated by GOLD software.
#

@<TRIPOS>MOLECULE
CT1002167954|ligand_prepared|mol2|1|dock9
    29    30     1
SMALL
NO_CHARGES


@<TRIPOS>ATOM
      1 C1         248.7742  11.3910  35.2613 C.3            1 RES1               0.0000
      2 C2         248.7298  12.8759  35.6758 C.ar           1 RES1               0.0000
      3 C3         249.6950  10.6949  36.2592 C.2            1 RES1               0.0000
      4 C4         247.3327  10.8956  35.2945 C.2            1 RES1               0.0000
      5 C5         249.3273  11.1564  33.8363 C.3            1 RES1               0.0000
      6 C6         249.6189  13.7929  35.1230 C.ar           1 RES1               0.0000
      7 C7         247.8055  13.3434  36.6062 C.ar           1 RES1               0.0000
      8 N8         249.1172   9.8940  37.1997 N.am           1 RES1               0.0000
      9 O9         250.9061  10.8772  36.2459 O.2            1 RES1               0.0000
     10 N10        247.0023   9.9431  36.2226 N.am           1 RES1               0.0000
     11 O11        246.4761  11.3334  34.5363 O.2            1 RES1               0.0000
     12 C12        248.9876   9.7892  33.2641 C.3            1 RES1               0.0000
     13 C13        249.5832  15.1293  35.4849 C.ar           1 RES1               0.0000
     14 C14        247.7717  14.6803  36.9668 C.ar           1 RES1               0.0000
     15 C15        247.8219   9.4422  37.1970 C.2            1 RES1               0.0000
     16 C16        248.6595  15.5740  36.4066 C.ar           1 RES1               0.0000
     17 O17        247.4365   8.6274  38.0305 O.2            1 RES1               0.0000
     18 H18        248.9240  11.9285  33.1694 H              1 RES1               0.0000
     19 H19        250.4184  11.2688  33.8580 H              1 RES1               0.0000
     20 H20        250.3545  13.4609  34.3979 H              1 RES1               0.0000
     21 H21        247.0981  12.6582  37.0608 H              1 RES1               0.0000
     22 H22        249.7022   9.6042  37.9769 H              1 RES1               0.0000
     23 H23        246.0579   9.5732  36.1834 H              1 RES1               0.0000
     24 H24        249.3992   9.6768  32.2633 H              1 RES1               0.0000
     25 H25        249.3952   8.9974  33.8890 H              1 RES1               0.0000
     26 H26        247.9097   9.6530  33.2045 H              1 RES1               0.0000
     27 H27        250.2850  15.8284  35.0421 H              1 RES1               0.0000
     28 H28        247.0434  15.0258  37.6931 H              1 RES1               0.0000
     29 H29        248.6315  16.6211  36.6896 H              1 RES1               0.0000
@<TRIPOS>BOND
    1    1    2 1     
    2    1    3 1     
    3    1    4 1     
    4    1    5 1     
    5    2    6 ar    
    6    2    7 ar    
    7    3    8 1     
    8    3    9 2     
    9    4   10 1     
   10    4   11 2     
   11    5   12 1     
   12    5   18 1     
   13    5   19 1     
   14    6   13 ar    
   15    6   20 1     
   16    7   14 ar    
   17    7   21 1     
   18    8   15 1     
   19    8   22 1     
   20   10   15 1     
   21   10   23 1     
   22   12   24 1     
   23   12   25 1     
   24   12   26 1     
   25   13   16 ar    
   26   13   27 1     
   27   14   16 ar    
   28   14   28 1     
   29   15   17 2     
   30   16   29 1     
@<TRIPOS>SUBSTRUCTURE
      1 RES1           1
@<TRIPOS>SET
DONOR_HYDROGENS      STATIC     ATOMS    <user>   **** ""
2 22 23
ATOM$RED        STATIC     ATOMS    COLORGROUP SYSTEM
2 22 23
@<TRIPOS>COMMENT
> <Gold.Version>
2022.3.0

> <Gold.Id.Protein>
unknown|4d1n_clean|pdb

> <Gold.Protein.RotatedTorsions>
[ 17004 16968 16967 16965 ] final   33.31 input   59.98 | X-H torsion
[ 18512 18476 18475 18473 ] final  -70.93 input   59.98 | X-H torsion
[ 18572 18537 18538 18539 ] final  -64.20 input   87.04 | X-H torsion
[ 18719 18692 18693 18694 ] final   87.18 input  124.02 | X-H torsion
[ 18790 18749 18750 18751 ] final   94.63 input   91.60 | X-H torsion
[ 19033 19013 19014 19015 ] final  168.70 input  122.46 | X-H torsion
[ 17200 17180 17181 17182 ] final  -86.52 input   47.21 | X-H torsion
[ 17260 17226 17227 17228 ] final  -34.38 input  117.85 | X-H torsion
[ 18826 18813 18814 18815 ] final  -24.86 input  116.01 | X-H torsion
[ 18976 18926 18927 18928 ] final   39.03 input  102.20 | X-H torsion
[ 19112 19073 19074 19075 ] final  -34.96 input   89.03 | X-H torsion
[ 18504 18465 18466 18467 ] final  -35.03 input  102.26 | X-H torsion
[ 18300 18279 18280 18281 ] final  -83.02 input   28.27 | X-H torsion
[ 18330 18317 18318 18319 ] final -170.08 input   50.43 | X-H torsion
[ 18419 18375 18376 18377 ] final  -38.30 input   32.92 | X-H torsion
[ 7530 7517 7518 7519 ] final  -63.74 input   89.56 | X-H torsion
[ 7496 7462 7463 7464 ] final  149.78 input  103.52 | X-H torsion
[ 18606 18593 18594 18595 ] final   20.16 input  124.70 | X-H torsion
[ 10120 10100 10099 10096 ] final  -47.11 input   60.00 | X-H torsion
[ 18304 18284 18283 18280 ] final  -10.65 input   60.01 | X-H torsion
[ 11501 11468 11469 11470 ] final  -74.48 input   45.03 | X-H torsion
[ 18664 18636 18634 18631 ] final    3.58 input   60.01 | X-H torsion
[ 18884 18850 18851 18852 ] final -129.39 input   84.91 | X-H torsion
[ 17308 17287 17288 17289 ] final   -2.33 input   50.16 | X-H torsion
[ 22456 22422 22423 22424 ] final -126.90 input   54.84 | X-H torsion
[ 11440 11420 11419 11416 ] final -173.80 input   60.01 | X-H torsion
[ 11650 11609 11610 11611 ] final -167.98 input   61.57 | X-H torsion
[ 11832 11793 11794 11795 ] final  -34.83 input   91.14 | X-H torsion
[ 16996 16957 16958 16959 ] final  -42.10 input   91.87 | X-H torsion
[ 27198 18540 18539 18538 ] final -178.96 input   -0.00 | X-H torsion
[ 27200 18633 18632 18631 ] final   43.06 input    0.00 | X-H torsion
[ 27203 18695 18694 18693 ] final  155.46 input   -0.00 | X-H torsion
[ 27222 17133 17132 17131 ] final  -46.66 input    0.00 | X-H torsion
[ 27226 11612 11611 11610 ] final  169.62 input    0.00 | X-H torsion
[ 27230 17060 17059 17058 ] final  -50.77 input   -0.00 | X-H torsion
[ 27232 18752 18751 18750 ] final   79.88 input    0.00 | X-H torsion
[ 27234 18596 18595 18594 ] final  -49.53 input   -0.00 | X-H torsion
[ 27238 18929 18928 18927 ] final   99.46 input   -0.00 | X-H torsion
[ 27240 19016 19015 19014 ] final   26.20 input   -0.00 | X-H torsion
[ 27243 11418 11417 11416 ] final  102.99 input    0.00 | X-H torsion
[ 27245 17183 17182 17181 ] final  121.70 input   -0.00 | X-H torsion
[ 27247 18378 18377 18376 ] final  -99.14 input   -0.00 | X-H torsion
[ 27250 18217 18216 18215 ] final   98.73 input    0.00 | X-H torsion
[ 27254 17229 17228 17227 ] final   32.00 input   -0.00 | X-H torsion
[ 27259 18320 18319 18318 ] final  118.56 input    0.00 | X-H torsion
[ 27261 18468 18467 18466 ] final  -73.35 input    0.00 | X-H torsion
[ 27264 18282 18281 18280 ] final  -44.99 input   -0.00 | X-H torsion
[ 27267 17020 17019 17018 ] final -116.73 input   -0.00 | X-H torsion
[ 27275 16960 16959 16958 ] final  -18.45 input    0.00 | X-H torsion

> <Gold.Protein.ActiveResidues>
 TRP414  CYS420  VAL421  GLY422  LEU460  SER462  SER482  GLN483  ILE485  ARG486 
 TYR487  ASP500  ASN503  TRP566  TYR567  GLY568  LEU569  PRO570  ALA571  VAL572 
 SER573  ASN574  PHE589  SER590  GLY591  TRP592  TYR593  MET594  GLY595  THR596 
 GLU597  ILE598  GLY599  VAL600  ARG601  ASP602  TYR603  ARG608  ILE653  VAL654 
 TRP683  PRO687  HEM750  H4B760 

> <Gold.Protein.RotatedAtoms>
  241.1764   11.5803   32.0274 H   0  0  0  0  0  0  0  0  0  0  0  0  # atno 7496 bound_to 7462
  241.0966    8.1748   31.3663 H   0  0  0  0  0  0  0  0  0  0  0  0  # atno 7530 bound_to 7517
  248.6319    2.7354   36.1527 H   0  0  0  0  0  0  0  0  0  0  0  0  # atno 10120 bound_to 10100
  253.9681   20.1442   41.4637 H   0  0  0  0  0  0  0  0  0  0  0  0  # atno 11440 bound_to 11420
  254.2606   16.0455   43.2357 H   0  0  0  0  0  0  0  0  0  0  0  0  # atno 11501 bound_to 11468
  258.5590   11.7770   41.4605 H   0  0  0  0  0  0  0  0  0  0  0  0  # atno 11650 bound_to 11609
  260.6318   18.0356   38.4337 H   0  0  0  0  0  0  0  0  0  0  0  0  # atno 11832 bound_to 11793
  260.4766   12.3914   30.9914 H   0  0  0  0  0  0  0  0  0  0  0  0  # atno 16996 bound_to 16957
  255.9308   14.7842   36.4635 H   0  0  0  0  0  0  0  0  0  0  0  0  # atno 17004 bound_to 16968
  252.9080   10.7133   37.8720 H   0  0  0  0  0  0  0  0  0  0  0  0  # atno 17200 bound_to 17180
  252.2631   11.1478   41.0353 H   0  0  0  0  0  0  0  0  0  0  0  0  # atno 17260 bound_to 17226
  250.8392   14.1000   43.4473 H   0  0  0  0  0  0  0  0  0  0  0  0  # atno 17308 bound_to 17287
  249.3913    7.0686   40.6645 H   0  0  0  0  0  0  0  0  0  0  0  0  # atno 18300 bound_to 18279
  251.7484    4.5555   39.9799 H   0  0  0  0  0  0  0  0  0  0  0  0  # atno 18304 bound_to 18284
  249.7712    6.1250   37.8960 H   0  0  0  0  0  0  0  0  0  0  0  0  # atno 18330 bound_to 18317
  250.0377    6.6105   34.1763 H   0  0  0  0  0  0  0  0  0  0  0  0  # atno 18419 bound_to 18375
  251.0874    7.2352   31.0731 H   0  0  0  0  0  0  0  0  0  0  0  0  # atno 18504 bound_to 18465
  255.2082   14.5123   32.9222 H   0  0  0  0  0  0  0  0  0  0  0  0  # atno 18512 bound_to 18476
  250.6456    9.6050   28.9038 H   0  0  0  0  0  0  0  0  0  0  0  0  # atno 18572 bound_to 18537
  249.5973   11.6786   25.8603 H   0  0  0  0  0  0  0  0  0  0  0  0  # atno 18606 bound_to 18593
  248.1816   14.5065   26.2757 H   0  0  0  0  0  0  0  0  0  0  0  0  # atno 18664 bound_to 18636
  250.2746   14.3417   27.2275 H   0  0  0  0  0  0  0  0  0  0  0  0  # atno 18719 bound_to 18692
  252.5214   14.8798   27.5780 H   0  0  0  0  0  0  0  0  0  0  0  0  # atno 18790 bound_to 18749
  253.6885   17.1644   26.2376 H   0  0  0  0  0  0  0  0  0  0  0  0  # atno 18826 bound_to 18813
  252.7684   18.4605   23.7663 H   0  0  0  0  0  0  0  0  0  0  0  0  # atno 18884 bound_to 18850
  251.9445   19.4805   26.7232 H   0  0  0  0  0  0  0  0  0  0  0  0  # atno 18976 bound_to 18926
  252.7268   19.6745   29.4047 H   0  0  0  0  0  0  0  0  0  0  0  0  # atno 19033 bound_to 19013
  255.1033   21.5558   28.0393 H   0  0  0  0  0  0  0  0  0  0  0  0  # atno 19112 bound_to 19073
  251.2936    5.7317   25.6461 H   0  0  0  0  0  0  0  0  0  0  0  0  # atno 22456 bound_to 22422
  255.9575   15.4809   34.9930 LP  0  0  0  0  0  0  0  0  0  0  0  0  # atno 27193 bound_to 16968
  256.8871   16.0738   36.1975 LP  0  0  0  0  0  0  0  0  0  0  0  0  # atno 27194 bound_to 16968
  255.7749   13.3105   33.8611 LP  0  0  0  0  0  0  0  0  0  0  0  0  # atno 27195 bound_to 18476
  254.2810   13.9172   34.1194 LP  0  0  0  0  0  0  0  0  0  0  0  0  # atno 27196 bound_to 18476
  249.1952   10.2275   29.6585 LP  0  0  0  0  0  0  0  0  0  0  0  0  # atno 27197 bound_to 18537
  251.1265   13.0559   27.2585 LP  0  0  0  0  0  0  0  0  0  0  0  0  # atno 27198 bound_to 18540
  250.2254   12.4423   28.6044 LP  0  0  0  0  0  0  0  0  0  0  0  0  # atno 27199 bound_to 18540
  249.9367   17.8884   25.8198 LP  0  0  0  0  0  0  0  0  0  0  0  0  # atno 27200 bound_to 18633
  251.1997   17.5299   26.9495 LP  0  0  0  0  0  0  0  0  0  0  0  0  # atno 27201 bound_to 18633
  249.6013   15.8657   26.7224 LP  0  0  0  0  0  0  0  0  0  0  0  0  # atno 27202 bound_to 18692
  253.0845   17.7126   29.5686 LP  0  0  0  0  0  0  0  0  0  0  0  0  # atno 27203 bound_to 18695
  251.4261   18.1995   29.4566 LP  0  0  0  0  0  0  0  0  0  0  0  0  # atno 27204 bound_to 18695
  252.1318   16.3493   28.4477 LP  0  0  0  0  0  0  0  0  0  0  0  0  # atno 27209 bound_to 18749
  253.1863   20.8279   28.1736 LP  0  0  0  0  0  0  0  0  0  0  0  0  # atno 27210 bound_to 19013
  251.6580    9.1090   36.7958 LP  0  0  0  0  0  0  0  0  0  0  0  0  # atno 27222 bound_to 17133
  252.4816    8.3719   38.1293 LP  0  0  0  0  0  0  0  0  0  0  0  0  # atno 27223 bound_to 17133
  254.5710   10.8622   38.3933 LP  0  0  0  0  0  0  0  0  0  0  0  0  # atno 27224 bound_to 17180
  251.1378   11.4006   39.7178 LP  0  0  0  0  0  0  0  0  0  0  0  0  # atno 27225 bound_to 17226
  257.6855   14.9495   37.9821 LP  0  0  0  0  0  0  0  0  0  0  0  0  # atno 27226 bound_to 11612
  257.6162   13.2240   38.1157 LP  0  0  0  0  0  0  0  0  0  0  0  0  # atno 27227 bound_to 11612
  257.0043    9.5727   37.5683 LP  0  0  0  0  0  0  0  0  0  0  0  0  # atno 27230 bound_to 17060
  256.5525   10.9269   36.5874 LP  0  0  0  0  0  0  0  0  0  0  0  0  # atno 27231 bound_to 17060
  255.8457   18.3415   26.7087 LP  0  0  0  0  0  0  0  0  0  0  0  0  # atno 27232 bound_to 18752
  254.2632   19.0454   26.7025 LP  0  0  0  0  0  0  0  0  0  0  0  0  # atno 27233 bound_to 18752
  252.9974   14.0380   26.0059 LP  0  0  0  0  0  0  0  0  0  0  0  0  # atno 27234 bound_to 18596
  252.5005   15.0139   24.6640 LP  0  0  0  0  0  0  0  0  0  0  0  0  # atno 27235 bound_to 18596
  254.0277   15.6286   25.4690 LP  0  0  0  0  0  0  0  0  0  0  0  0  # atno 27236 bound_to 18813
  250.6568   20.4584   26.0687 LP  0  0  0  0  0  0  0  0  0  0  0  0  # atno 27237 bound_to 18926
  253.0656   22.9934   29.5814 LP  0  0  0  0  0  0  0  0  0  0  0  0  # atno 27238 bound_to 18929
  253.4855   22.9873   27.9010 LP  0  0  0  0  0  0  0  0  0  0  0  0  # atno 27239 bound_to 18929
  256.6773   22.0330   30.2328 LP  0  0  0  0  0  0  0  0  0  0  0  0  # atno 27240 bound_to 19016
  256.7645   22.8418   28.7036 LP  0  0  0  0  0  0  0  0  0  0  0  0  # atno 27241 bound_to 19016
  255.6109   19.9602   27.5333 LP  0  0  0  0  0  0  0  0  0  0  0  0  # atno 27242 bound_to 19073
  251.8482   16.0145   41.6817 LP  0  0  0  0  0  0  0  0  0  0  0  0  # atno 27243 bound_to 11418
  251.8758   15.3370   43.2755 LP  0  0  0  0  0  0  0  0  0  0  0  0  # atno 27244 bound_to 11418
  253.7066   12.8660   41.4092 LP  0  0  0  0  0  0  0  0  0  0  0  0  # atno 27245 bound_to 17183
  254.0327   11.3785   42.2345 LP  0  0  0  0  0  0  0  0  0  0  0  0  # atno 27246 bound_to 17183
  249.0422    7.4486   31.2572 LP  0  0  0  0  0  0  0  0  0  0  0  0  # atno 27247 bound_to 18378
  249.4150    8.2874   32.7260 LP  0  0  0  0  0  0  0  0  0  0  0  0  # atno 27248 bound_to 18378
  252.6770    7.8636   31.4470 LP  0  0  0  0  0  0  0  0  0  0  0  0  # atno 27249 bound_to 18465
  251.4540    8.9989   41.0940 LP  0  0  0  0  0  0  0  0  0  0  0  0  # atno 27250 bound_to 18217
  249.7962    9.3549   40.7402 LP  0  0  0  0  0  0  0  0  0  0  0  0  # atno 27251 bound_to 18217
  250.5375   10.4782   42.6956 LP  0  0  0  0  0  0  0  0  0  0  0  0  # atno 27254 bound_to 17229
  250.0596   11.2277   44.1822 LP  0  0  0  0  0  0  0  0  0  0  0  0  # atno 27255 bound_to 17229
  250.6304    5.9758   41.2307 LP  0  0  0  0  0  0  0  0  0  0  0  0  # atno 27256 bound_to 18279
  251.0376    6.7994   36.8962 LP  0  0  0  0  0  0  0  0  0  0  0  0  # atno 27257 bound_to 18317
  250.3478    4.9079   33.9104 LP  0  0  0  0  0  0  0  0  0  0  0  0  # atno 27258 bound_to 18375
  252.4489    4.2399   34.5260 LP  0  0  0  0  0  0  0  0  0  0  0  0  # atno 27259 bound_to 18320
  252.6098    5.4262   35.7777 LP  0  0  0  0  0  0  0  0  0  0  0  0  # atno 27260 bound_to 18320
  251.4778    8.0436   27.6540 LP  0  0  0  0  0  0  0  0  0  0  0  0  # atno 27261 bound_to 18468
  250.0057    7.3676   28.2670 LP  0  0  0  0  0  0  0  0  0  0  0  0  # atno 27262 bound_to 18468
  242.3920    8.8294   32.3405 LP  0  0  0  0  0  0  0  0  0  0  0  0  # atno 27263 bound_to 7517
  250.4460    4.0829   39.2662 LP  0  0  0  0  0  0  0  0  0  0  0  0  # atno 27264 bound_to 18282
  248.9972    4.3222   38.3478 LP  0  0  0  0  0  0  0  0  0  0  0  0  # atno 27265 bound_to 18282
  241.0363   10.0993   32.9528 LP  0  0  0  0  0  0  0  0  0  0  0  0  # atno 27266 bound_to 7462
  255.6209    8.2103   32.7196 LP  0  0  0  0  0  0  0  0  0  0  0  0  # atno 27267 bound_to 17020
  256.3153    6.6875   32.2738 LP  0  0  0  0  0  0  0  0  0  0  0  0  # atno 27268 bound_to 17020
  250.6617   10.2914   25.9732 LP  0  0  0  0  0  0  0  0  0  0  0  0  # atno 27269 bound_to 18593
  247.0897    2.2159   36.1274 LP  0  0  0  0  0  0  0  0  0  0  0  0  # atno 27270 bound_to 10100
  248.3023    1.2028   35.7153 LP  0  0  0  0  0  0  0  0  0  0  0  0  # atno 27271 bound_to 10100
  253.2336    4.8821   40.5586 LP  0  0  0  0  0  0  0  0  0  0  0  0  # atno 27272 bound_to 18284
  253.0358    4.4829   38.9876 LP  0  0  0  0  0  0  0  0  0  0  0  0  # atno 27273 bound_to 18284
  254.6869   16.7362   41.6832 LP  0  0  0  0  0  0  0  0  0  0  0  0  # atno 27274 bound_to 11468
  258.2502   11.8313   31.9121 LP  0  0  0  0  0  0  0  0  0  0  0  0  # atno 27275 bound_to 16960
  257.8234   10.2426   31.3701 LP  0  0  0  0  0  0  0  0  0  0  0  0  # atno 27276 bound_to 16960

> <Gold.Score>
     Fitness  S(hb_ext) S(vdw_ext)  S(hb_int)    S(int)      intcor
     41.33       6.34      26.08       0.00      -0.87      -0.76

> <Gold.Goldscore.Fitness>
41.3255

> <Gold.Goldscore.Internal.Vdw>
-0.8023

> <Gold.Goldscore.Internal.Torsion>
-0.8301

> <Gold.Goldscore.External.Vdw>
26.0794

> <Gold.Goldscore.Internal.HBond>
0.0000

> <Gold.Goldscore.External.HBond>
6.3402

> <Gold.Goldscore.Internal.Correction>
-0.7585

> <Gold.Goldscore.Hbonds>
donor molecule, donor type, donor heavy atom, donor atom, acceptor molecule, acceptor atom, score
      P1  H 17180 17200       L1     9  0.73
      P1  M 26928 27277       L1    11  0.47
      L1  H     8    22       P1 18217  0.08

> <Gold.Goldscore.Internal.Vdw.Weighted>
-0.8023

> <Gold.Goldscore.Internal.Torsion.Weighted>
-0.8301

> <Gold.Goldscore.External.Vdw.Weighted>
35.8591

> <Gold.Goldscore.Internal.HBond.Weighted>
0.0000

> <Gold.Goldscore.External.HBond.Weighted>
6.3402

> <Gold.Goldscore.Internal.Correction.Weighted>
-0.7585

> <Gold.Rescore>
     Score     S(PLP)   S(hbond)     S(cho)   S(metal)  DE(clash)   DE(tors)     intcor
    -50.94      51.80       0.00       0.00       0.62       0.00       1.43       ----

> <Gold.PLP.Fitness>
-50.9417

> <Gold.PLP.PLP>
51.8010

> <Gold.PLP.part.hbond>
0.0000

> <Gold.PLP.part.metal>
-0.2096

> <Gold.PLP.part.buried>
80.6403

> <Gold.PLP.part.nonpolar>
-40.0137

> <Gold.PLP.part.repulsive>
8.8212

> <Gold.PLP.ligand.clash>
0.0000

> <Gold.PLP.ligand.torsion>
1.4285

> <Gold.PLP.Chemscore.Hbond>
0.0000

> <Gold.PLP.Chemscore.CHOScore>
0.0000

> <Gold.PLP.Chemscore.Metal>
0.6194

> <Gold.Chemscore.Hbonds>
donor molecule, donor type, donor heavy atom, donor atom, acceptor molecule, acceptor atom, score
      P1  M 26928 26928       L1    11  0.77

> <Gold.PLP.Chemscore.Internal.Correction>
   9.000000E+99

#       Name:                CT1002167954
#       Creating user name   hitesit
#       Creation time:       Sun Apr 16 23:06:23 2023


#       File generated by GOLD software.
#

@<TRIPOS>MOLECULE
CT1002167954|ligand_prepared|mol2|1|dock4
    29    30     1
SMALL
NO_CHARGES


@<TRIPOS>ATOM
      1 C1         248.4206  11.7588  35.5448 C.3            1 RES1               0.0000
      2 C2         248.2988  13.2292  35.9940 C.ar           1 RES1               0.0000
      3 C3         249.7764  11.2689  36.0450 C.2            1 RES1               0.0000
      4 C4         247.2307  11.0264  36.1549 C.2            1 RES1               0.0000
      5 C5         248.3645  11.5673  34.0113 C.3            1 RES1               0.0000
      6 C6         247.4848  13.5770  37.0679 C.ar           1 RES1               0.0000
      7 C7         248.9951  14.2468  35.3472 C.ar           1 RES1               0.0000
      8 N8         249.7868  10.4180  37.1108 N.am           1 RES1               0.0000
      9 O9         250.8222  11.6544  35.5373 O.2            1 RES1               0.0000
     10 N10        247.4830  10.0680  37.1012 N.am           1 RES1               0.0000
     11 O11        246.0759  11.2822  35.8367 O.2            1 RES1               0.0000
     12 C12        248.1714  10.1218  33.5806 C.3            1 RES1               0.0000
     13 C13        247.3731  14.8939  37.4821 C.ar           1 RES1               0.0000
     14 C14        248.8818  15.5632  35.7630 C.ar           1 RES1               0.0000
     15 C15        248.7053   9.7522  37.6291 C.2            1 RES1               0.0000
     16 C16        248.0718  15.8877  36.8304 C.ar           1 RES1               0.0000
     17 O17        248.8457   8.9163  38.5172 O.2            1 RES1               0.0000
     18 H18        247.5391  12.1685  33.6103 H              1 RES1               0.0000
     19 H19        249.2972  11.9444  33.5739 H              1 RES1               0.0000
     20 H20        246.9255  12.8088  37.5914 H              1 RES1               0.0000
     21 H21        249.6374  14.0150  34.5044 H              1 RES1               0.0000
     22 H22        250.6814  10.2624  37.5643 H              1 RES1               0.0000
     23 H23        246.6859   9.5412  37.4439 H              1 RES1               0.0000
     24 H24        248.1389  10.0436  32.4959 H              1 RES1               0.0000
     25 H25        248.9879   9.4996  33.9409 H              1 RES1               0.0000
     26 H26        247.2402   9.7223  33.9771 H              1 RES1               0.0000
     27 H27        246.7333  15.1443  38.3218 H              1 RES1               0.0000
     28 H28        249.4330  16.3422  35.2467 H              1 RES1               0.0000
     29 H29        247.9845  16.9192  37.1553 H              1 RES1               0.0000
@<TRIPOS>BOND
    1    1    2 1     
    2    1    3 1     
    3    1    4 1     
    4    1    5 1     
    5    2    6 ar    
    6    2    7 ar    
    7    3    8 1     
    8    3    9 2     
    9    4   10 1     
   10    4   11 2     
   11    5   12 1     
   12    5   18 1     
   13    5   19 1     
   14    6   13 ar    
   15    6   20 1     
   16    7   14 ar    
   17    7   21 1     
   18    8   15 1     
   19    8   22 1     
   20   10   15 1     
   21   10   23 1     
   22   12   24 1     
   23   12   25 1     
   24   12   26 1     
   25   13   16 ar    
   26   13   27 1     
   27   14   16 ar    
   28   14   28 1     
   29   15   17 2     
   30   16   29 1     
@<TRIPOS>SUBSTRUCTURE
      1 RES1           1
@<TRIPOS>SET
DONOR_HYDROGENS      STATIC     ATOMS    <user>   **** ""
2 22 23
ATOM$RED        STATIC     ATOMS    COLORGROUP SYSTEM
2 22 23
@<TRIPOS>COMMENT
> <Gold.Version>
2022.3.0

> <Gold.Id.Protein>
unknown|4d1n_clean|pdb

> <Gold.Protein.RotatedTorsions>
[ 17004 16968 16967 16965 ] final   33.25 input   59.98 | X-H torsion
[ 18512 18476 18475 18473 ] final  -95.47 input   59.98 | X-H torsion
[ 18572 18537 18538 18539 ] final  -84.65 input   87.04 | X-H torsion
[ 18719 18692 18693 18694 ] final  -80.51 input  124.02 | X-H torsion
[ 18790 18749 18750 18751 ] final    1.04 input   91.60 | X-H torsion
[ 19033 19013 19014 19015 ] final   32.28 input  122.46 | X-H torsion
[ 17200 17180 17181 17182 ] final  106.34 input   47.21 | X-H torsion
[ 17260 17226 17227 17228 ] final -175.35 input  117.85 | X-H torsion
[ 18826 18813 18814 18815 ] final  139.80 input  116.01 | X-H torsion
[ 18976 18926 18927 18928 ] final   79.69 input  102.20 | X-H torsion
[ 19112 19073 19074 19075 ] final  -81.18 input   89.03 | X-H torsion
[ 18504 18465 18466 18467 ] final  179.40 input  102.26 | X-H torsion
[ 18300 18279 18280 18281 ] final  115.50 input   28.27 | X-H torsion
[ 18330 18317 18318 18319 ] final -161.06 input   50.43 | X-H torsion
[ 18419 18375 18376 18377 ] final  -47.38 input   32.92 | X-H torsion
[ 7530 7517 7518 7519 ] final -155.10 input   89.56 | X-H torsion
[ 7496 7462 7463 7464 ] final   71.29 input  103.52 | X-H torsion
[ 18606 18593 18594 18595 ] final  -86.16 input  124.70 | X-H torsion
[ 10120 10100 10099 10096 ] final -111.45 input   60.00 | X-H torsion
[ 18304 18284 18283 18280 ] final -149.58 input   60.01 | X-H torsion
[ 11501 11468 11469 11470 ] final  -16.86 input   45.03 | X-H torsion
[ 18664 18636 18634 18631 ] final  -82.04 input   60.01 | X-H torsion
[ 18884 18850 18851 18852 ] final -151.46 input   84.91 | X-H torsion
[ 17308 17287 17288 17289 ] final    9.48 input   50.16 | X-H torsion
[ 22456 22422 22423 22424 ] final -136.26 input   54.84 | X-H torsion
[ 11440 11420 11419 11416 ] final  167.06 input   60.01 | X-H torsion
[ 11650 11609 11610 11611 ] final  160.20 input   61.57 | X-H torsion
[ 11832 11793 11794 11795 ] final    4.09 input   91.14 | X-H torsion
[ 16996 16957 16958 16959 ] final  139.86 input   91.87 | X-H torsion
[ 27198 18540 18539 18538 ] final   42.25 input   -0.00 | X-H torsion
[ 27200 18633 18632 18631 ] final -115.13 input    0.00 | X-H torsion
[ 27203 18695 18694 18693 ] final  -22.37 input   -0.00 | X-H torsion
[ 27222 17133 17132 17131 ] final  133.47 input    0.00 | X-H torsion
[ 27226 11612 11611 11610 ] final -126.25 input    0.00 | X-H torsion
[ 27230 17060 17059 17058 ] final -141.65 input   -0.00 | X-H torsion
[ 27232 18752 18751 18750 ] final   65.01 input    0.00 | X-H torsion
[ 27234 18596 18595 18594 ] final  154.47 input   -0.00 | X-H torsion
[ 27238 18929 18928 18927 ] final -111.61 input   -0.00 | X-H torsion
[ 27240 19016 19015 19014 ] final    7.42 input   -0.00 | X-H torsion
[ 27243 11418 11417 11416 ] final -152.43 input    0.00 | X-H torsion
[ 27245 17183 17182 17181 ] final   72.72 input   -0.00 | X-H torsion
[ 27247 18378 18377 18376 ] final  165.51 input   -0.00 | X-H torsion
[ 27250 18217 18216 18215 ] final   38.15 input    0.00 | X-H torsion
[ 27254 17229 17228 17227 ] final  -83.92 input   -0.00 | X-H torsion
[ 27259 18320 18319 18318 ] final  -75.83 input    0.00 | X-H torsion
[ 27261 18468 18467 18466 ] final -104.34 input    0.00 | X-H torsion
[ 27264 18282 18281 18280 ] final -119.81 input   -0.00 | X-H torsion
[ 27267 17020 17019 17018 ] final  -37.87 input   -0.00 | X-H torsion
[ 27275 16960 16959 16958 ] final   58.74 input    0.00 | X-H torsion

> <Gold.Protein.ActiveResidues>
 TRP414  CYS420  VAL421  GLY422  LEU460  SER462  SER482  GLN483  ILE485  ARG486 
 TYR487  ASP500  ASN503  TRP566  TYR567  GLY568  LEU569  PRO570  ALA571  VAL572 
 SER573  ASN574  PHE589  SER590  GLY591  TRP592  TYR593  MET594  GLY595  THR596 
 GLU597  ILE598  GLY599  VAL600  ARG601  ASP602  TYR603  ARG608  ILE653  VAL654 
 TRP683  PRO687  HEM750  H4B760 

> <Gold.Protein.RotatedAtoms>
  241.9707   10.8185   32.2809 H   0  0  0  0  0  0  0  0  0  0  0  0  # atno 7496 bound_to 7462
  242.2262    8.6990   31.1375 H   0  0  0  0  0  0  0  0  0  0  0  0  # atno 7530 bound_to 7517
  247.6522    2.8719   36.2795 H   0  0  0  0  0  0  0  0  0  0  0  0  # atno 10120 bound_to 10100
  253.8264   19.9590   41.2574 H   0  0  0  0  0  0  0  0  0  0  0  0  # atno 11440 bound_to 11420
  255.0902   16.1928   43.0612 H   0  0  0  0  0  0  0  0  0  0  0  0  # atno 11501 bound_to 11468
  258.3458   11.5265   41.0998 H   0  0  0  0  0  0  0  0  0  0  0  0  # atno 11650 bound_to 11609
  260.3050   18.3946   38.0871 H   0  0  0  0  0  0  0  0  0  0  0  0  # atno 11832 bound_to 11793
  260.8925   13.3650   32.3976 H   0  0  0  0  0  0  0  0  0  0  0  0  # atno 16996 bound_to 16957
  255.9302   14.7839   36.4627 H   0  0  0  0  0  0  0  0  0  0  0  0  # atno 17004 bound_to 16968
  254.6054   10.6727   38.3471 H   0  0  0  0  0  0  0  0  0  0  0  0  # atno 17200 bound_to 17180
  251.5874   11.7656   39.6262 H   0  0  0  0  0  0  0  0  0  0  0  0  # atno 17260 bound_to 17226
  250.9975   14.1871   43.4335 H   0  0  0  0  0  0  0  0  0  0  0  0  # atno 17308 bound_to 17287
  250.7548    6.2107   41.3239 H   0  0  0  0  0  0  0  0  0  0  0  0  # atno 18300 bound_to 18279
  253.4395    4.8564   40.3298 H   0  0  0  0  0  0  0  0  0  0  0  0  # atno 18304 bound_to 18284
  249.8671    6.0316   37.9352 H   0  0  0  0  0  0  0  0  0  0  0  0  # atno 18330 bound_to 18317
  250.1447    6.6042   34.2678 H   0  0  0  0  0  0  0  0  0  0  0  0  # atno 18419 bound_to 18375
  252.3759    8.0371   31.8321 H   0  0  0  0  0  0  0  0  0  0  0  0  # atno 18504 bound_to 18465
  255.5530   14.3138   32.9249 H   0  0  0  0  0  0  0  0  0  0  0  0  # atno 18512 bound_to 18476
  250.4698    9.3432   28.9116 H   0  0  0  0  0  0  0  0  0  0  0  0  # atno 18572 bound_to 18537
  250.5784   11.0546   26.6911 H   0  0  0  0  0  0  0  0  0  0  0  0  # atno 18606 bound_to 18593
  247.4861   14.0084   25.3344 H   0  0  0  0  0  0  0  0  0  0  0  0  # atno 18664 bound_to 18636
  249.7660   15.8871   26.6330 H   0  0  0  0  0  0  0  0  0  0  0  0  # atno 18719 bound_to 18692
  252.1132   16.0770   27.2797 H   0  0  0  0  0  0  0  0  0  0  0  0  # atno 18790 bound_to 18749
  253.8006   15.6131   25.4048 H   0  0  0  0  0  0  0  0  0  0  0  0  # atno 18826 bound_to 18813
  252.4928   18.2806   23.6878 H   0  0  0  0  0  0  0  0  0  0  0  0  # atno 18884 bound_to 18850
  251.4024   19.2476   26.8770 H   0  0  0  0  0  0  0  0  0  0  0  0  # atno 18976 bound_to 18926
  253.3601   20.2294   27.9908 H   0  0  0  0  0  0  0  0  0  0  0  0  # atno 19033 bound_to 19013
  255.6287   21.3027   28.4198 H   0  0  0  0  0  0  0  0  0  0  0  0  # atno 19112 bound_to 19073
  251.2257    5.6576   25.7500 H   0  0  0  0  0  0  0  0  0  0  0  0  # atno 22456 bound_to 22422
  255.9581   15.4818   34.9928 LP  0  0  0  0  0  0  0  0  0  0  0  0  # atno 27193 bound_to 16968
  256.8871   16.0734   36.1985 LP  0  0  0  0  0  0  0  0  0  0  0  0  # atno 27194 bound_to 16968
  255.4900   13.2211   34.1286 LP  0  0  0  0  0  0  0  0  0  0  0  0  # atno 27195 bound_to 18476
  254.2184   14.2067   33.8493 LP  0  0  0  0  0  0  0  0  0  0  0  0  # atno 27196 bound_to 18476
  249.3657   10.4812   29.6510 LP  0  0  0  0  0  0  0  0  0  0  0  0  # atno 27197 bound_to 18537
  250.7919   12.2173   28.6051 LP  0  0  0  0  0  0  0  0  0  0  0  0  # atno 27198 bound_to 18540
  250.5601   13.2808   27.2578 LP  0  0  0  0  0  0  0  0  0  0  0  0  # atno 27199 bound_to 18540
  251.3609   17.5024   26.6654 LP  0  0  0  0  0  0  0  0  0  0  0  0  # atno 27200 bound_to 18633
  249.7755   17.9159   26.1038 LP  0  0  0  0  0  0  0  0  0  0  0  0  # atno 27201 bound_to 18633
  250.1091   14.3229   27.3159 LP  0  0  0  0  0  0  0  0  0  0  0  0  # atno 27202 bound_to 18692
  251.4204   18.1844   29.4851 LP  0  0  0  0  0  0  0  0  0  0  0  0  # atno 27203 bound_to 18695
  253.0903   17.7278   29.5401 LP  0  0  0  0  0  0  0  0  0  0  0  0  # atno 27204 bound_to 18695
  252.5255   15.1947   28.7354 LP  0  0  0  0  0  0  0  0  0  0  0  0  # atno 27209 bound_to 18749
  252.5701   20.2880   29.5495 LP  0  0  0  0  0  0  0  0  0  0  0  0  # atno 27210 bound_to 19013
  252.4805    8.3729   38.1306 LP  0  0  0  0  0  0  0  0  0  0  0  0  # atno 27222 bound_to 17133
  251.6591    9.1080   36.7945 LP  0  0  0  0  0  0  0  0  0  0  0  0  # atno 27223 bound_to 17133
  252.9219   10.9016   37.9317 LP  0  0  0  0  0  0  0  0  0  0  0  0  # atno 27224 bound_to 17180
  251.7892   10.8049   41.0763 LP  0  0  0  0  0  0  0  0  0  0  0  0  # atno 27225 bound_to 17226
  258.1343   14.3964   37.4006 LP  0  0  0  0  0  0  0  0  0  0  0  0  # atno 27226 bound_to 11612
  257.1674   13.7770   38.6973 LP  0  0  0  0  0  0  0  0  0  0  0  0  # atno 27227 bound_to 11612
  256.0581   10.3648   37.5448 LP  0  0  0  0  0  0  0  0  0  0  0  0  # atno 27230 bound_to 17060
  257.4986   10.1349   36.6109 LP  0  0  0  0  0  0  0  0  0  0  0  0  # atno 27231 bound_to 17060
  255.8113   18.3376   26.9301 LP  0  0  0  0  0  0  0  0  0  0  0  0  # atno 27232 bound_to 18752
  254.2975   19.0494   26.4811 LP  0  0  0  0  0  0  0  0  0  0  0  0  # atno 27233 bound_to 18752
  252.3362   15.1769   24.9400 LP  0  0  0  0  0  0  0  0  0  0  0  0  # atno 27234 bound_to 18596
  253.1616   13.8751   25.7299 LP  0  0  0  0  0  0  0  0  0  0  0  0  # atno 27235 bound_to 18596
  253.9193   17.1280   26.2739 LP  0  0  0  0  0  0  0  0  0  0  0  0  # atno 27236 bound_to 18813
  251.1924   20.6886   25.9166 LP  0  0  0  0  0  0  0  0  0  0  0  0  # atno 27237 bound_to 18926
  253.8623   22.8338   28.1237 LP  0  0  0  0  0  0  0  0  0  0  0  0  # atno 27238 bound_to 18929
  252.6888   23.1470   29.3586 LP  0  0  0  0  0  0  0  0  0  0  0  0  # atno 27239 bound_to 18929
  256.4558   22.2064   30.2596 LP  0  0  0  0  0  0  0  0  0  0  0  0  # atno 27240 bound_to 19016
  256.9860   22.6684   28.6768 LP  0  0  0  0  0  0  0  0  0  0  0  0  # atno 27241 bound_to 19016
  255.1004   20.2061   27.1636 LP  0  0  0  0  0  0  0  0  0  0  0  0  # atno 27242 bound_to 19073
  252.2506   14.9078   42.3823 LP  0  0  0  0  0  0  0  0  0  0  0  0  # atno 27243 bound_to 11418
  251.4734   16.4437   42.5749 LP  0  0  0  0  0  0  0  0  0  0  0  0  # atno 27244 bound_to 11418
  254.2520   12.4874   41.1359 LP  0  0  0  0  0  0  0  0  0  0  0  0  # atno 27245 bound_to 17183
  253.4873   11.7571   42.5078 LP  0  0  0  0  0  0  0  0  0  0  0  0  # atno 27246 bound_to 17183
  249.4062    8.6247   31.6097 LP  0  0  0  0  0  0  0  0  0  0  0  0  # atno 27247 bound_to 18378
  249.0511    7.1113   32.3735 LP  0  0  0  0  0  0  0  0  0  0  0  0  # atno 27248 bound_to 18378
  251.4273    7.0860   30.7109 LP  0  0  0  0  0  0  0  0  0  0  0  0  # atno 27249 bound_to 18465
  250.9274    9.3104   41.7176 LP  0  0  0  0  0  0  0  0  0  0  0  0  # atno 27250 bound_to 18217
  250.3228    9.0434   40.1166 LP  0  0  0  0  0  0  0  0  0  0  0  0  # atno 27251 bound_to 18217
  249.4953   11.1760   43.4588 LP  0  0  0  0  0  0  0  0  0  0  0  0  # atno 27254 bound_to 17229
  251.1019   10.5300   43.4191 LP  0  0  0  0  0  0  0  0  0  0  0  0  # atno 27255 bound_to 17229
  249.2935    6.8170   40.5842 LP  0  0  0  0  0  0  0  0  0  0  0  0  # atno 27256 bound_to 18279
  250.9445    6.8902   36.8581 LP  0  0  0  0  0  0  0  0  0  0  0  0  # atno 27257 bound_to 18317
  250.2445    4.9140   33.8220 LP  0  0  0  0  0  0  0  0  0  0  0  0  # atno 27258 bound_to 18375
  252.6822    5.5491   35.6143 LP  0  0  0  0  0  0  0  0  0  0  0  0  # atno 27259 bound_to 18320
  252.3765    4.1170   34.6893 LP  0  0  0  0  0  0  0  0  0  0  0  0  # atno 27260 bound_to 18320
  251.1417    8.2171   27.3875 LP  0  0  0  0  0  0  0  0  0  0  0  0  # atno 27261 bound_to 18468
  250.3418    7.1941   28.5336 LP  0  0  0  0  0  0  0  0  0  0  0  0  # atno 27262 bound_to 18468
  241.2901    8.3180   32.5637 LP  0  0  0  0  0  0  0  0  0  0  0  0  # atno 27263 bound_to 7517
  250.2699    3.8062   38.2664 LP  0  0  0  0  0  0  0  0  0  0  0  0  # atno 27264 bound_to 18282
  249.1732    4.5989   39.3476 LP  0  0  0  0  0  0  0  0  0  0  0  0  # atno 27265 bound_to 18282
  240.2718   10.8325   32.7088 LP  0  0  0  0  0  0  0  0  0  0  0  0  # atno 27266 bound_to 7462
  256.1239    7.9183   31.7857 LP  0  0  0  0  0  0  0  0  0  0  0  0  # atno 27267 bound_to 17020
  255.8123    6.9795   33.2076 LP  0  0  0  0  0  0  0  0  0  0  0  0  # atno 27268 bound_to 17020
  249.7177   10.8918   25.1738 LP  0  0  0  0  0  0  0  0  0  0  0  0  # atno 27269 bound_to 18593
  247.4374    1.3233   35.8273 LP  0  0  0  0  0  0  0  0  0  0  0  0  # atno 27270 bound_to 10100
  248.9407    1.9581   35.8878 LP  0  0  0  0  0  0  0  0  0  0  0  0  # atno 27271 bound_to 10100
  252.7367    4.4297   38.9257 LP  0  0  0  0  0  0  0  0  0  0  0  0  # atno 27272 bound_to 18284
  251.8291    4.6322   40.2681 LP  0  0  0  0  0  0  0  0  0  0  0  0  # atno 27273 bound_to 18284
  253.8887   16.5944   41.8512 LP  0  0  0  0  0  0  0  0  0  0  0  0  # atno 27274 bound_to 11468
  258.5224   11.3378   30.9903 LP  0  0  0  0  0  0  0  0  0  0  0  0  # atno 27275 bound_to 16960
  257.5511   10.7361   32.2920 LP  0  0  0  0  0  0  0  0  0  0  0  0  # atno 27276 bound_to 16960

> <Gold.Score>
     Fitness  S(hb_ext) S(vdw_ext)  S(hb_int)    S(int)      intcor
     36.39       2.33      26.04       0.00      -1.74      -0.76

> <Gold.Goldscore.Fitness>
36.3929

> <Gold.Goldscore.Internal.Vdw>
-1.8740

> <Gold.Goldscore.Internal.Torsion>
-0.6232

> <Gold.Goldscore.External.Vdw>
26.0388

> <Gold.Goldscore.Internal.HBond>
0.0000

> <Gold.Goldscore.External.HBond>
2.3282

> <Gold.Goldscore.Internal.Correction>
-0.7585

> <Gold.Goldscore.Hbonds>
donor molecule, donor type, donor heavy atom, donor atom, acceptor molecule, acceptor atom, score
      P1  M 26928 27277       L1    11  0.07
      L1  H     8    22       P1 17133  0.21
      L1  H     8    22       P1 17180  0.20

> <Gold.Goldscore.Internal.Vdw.Weighted>
-1.8740

> <Gold.Goldscore.Internal.Torsion.Weighted>
-0.6232

> <Gold.Goldscore.External.Vdw.Weighted>
35.8033

> <Gold.Goldscore.Internal.HBond.Weighted>
0.0000

> <Gold.Goldscore.External.HBond.Weighted>
2.3282

> <Gold.Goldscore.Internal.Correction.Weighted>
-0.7585

> <Gold.Rescore>
     Score     S(PLP)   S(hbond)     S(cho)   S(metal)  DE(clash)   DE(tors)     intcor
     34.78     -29.88       0.42       0.00       1.00       1.38       0.49       ----

> <Gold.PLP.Fitness>
34.7833

> <Gold.PLP.PLP>
-29.8766

> <Gold.PLP.part.hbond>
-3.0000

> <Gold.PLP.part.metal>
-0.6111

> <Gold.PLP.part.buried>
26.6119

> <Gold.PLP.part.nonpolar>
-57.9062

> <Gold.PLP.part.repulsive>
2.3829

> <Gold.PLP.ligand.clash>
1.3756

> <Gold.PLP.ligand.torsion>
0.4924

> <Gold.PLP.Chemscore.Hbond>
0.4224

> <Gold.PLP.Chemscore.CHOScore>
0.0000

> <Gold.PLP.Chemscore.Metal>
1.0000

> <Gold.Chemscore.Hbonds>
donor molecule, donor type, donor heavy atom, donor atom, acceptor molecule, acceptor atom, score
      L1  H     8    22       P1 17133  0.76
      P1  M 26928 26928       L1    11  1.00

> <Gold.PLP.Chemscore.Internal.Correction>
   9.000000E+99

#       Name:                CT1002167954
#       Creating user name   hitesit
#       Creation time:       Sun Apr 16 23:06:26 2023


#       File generated by GOLD software.
#

@<TRIPOS>MOLECULE
CT1002167954|ligand_prepared|mol2|1|dock8
    29    30     1
SMALL
NO_CHARGES


@<TRIPOS>ATOM
      1 C1         248.4942  11.4459  35.2994 C.3            1 RES1               0.0000
      2 C2         249.4917  12.6197  35.3753 C.ar           1 RES1               0.0000
      3 C3         247.5653  11.7481  34.1272 C.2            1 RES1               0.0000
      4 C4         249.3321  10.1848  35.1202 C.2            1 RES1               0.0000
      5 C5         247.6358  11.2720  36.5740 C.3            1 RES1               0.0000
      6 C6         249.2780  13.6755  36.2564 C.ar           1 RES1               0.0000
      7 C7         250.6296  12.6594  34.5738 C.ar           1 RES1               0.0000
      8 N8         247.7319  11.0211  32.9854 N.am           1 RES1               0.0000
      9 O9         246.7257  12.6376  34.1900 O.2            1 RES1               0.0000
     10 N10        249.2135   9.4973  33.9407 N.am           1 RES1               0.0000
     11 O11        250.1064   9.7894  35.9830 O.2            1 RES1               0.0000
     12 C12        246.8682   9.9603  36.6221 C.3            1 RES1               0.0000
     13 C13        250.1709  14.7313  36.3357 C.ar           1 RES1               0.0000
     14 C14        251.5211  13.7164  34.6545 C.ar           1 RES1               0.0000
     15 C15        248.4743   9.8753  32.8531 C.2            1 RES1               0.0000
     16 C16        251.2932  14.7523  35.5352 C.ar           1 RES1               0.0000
     17 O17        248.4610   9.2324  31.8072 O.2            1 RES1               0.0000
     18 H18        248.2913  11.3299  37.4517 H              1 RES1               0.0000
     19 H19        246.9209  12.1018  36.6342 H              1 RES1               0.0000
     20 H20        248.3991  13.6775  36.8925 H              1 RES1               0.0000
     21 H21        250.8287  11.8559  33.8729 H              1 RES1               0.0000
     22 H22        247.2610  11.3609  32.1529 H              1 RES1               0.0000
     23 H23        249.7233   8.6227  33.8668 H              1 RES1               0.0000
     24 H24        246.2828   9.8892  37.5364 H              1 RES1               0.0000
     25 H25        246.1878   9.8803  35.7769 H              1 RES1               0.0000
     26 H26        247.5501   9.1130  36.5896 H              1 RES1               0.0000
     27 H27        249.9862  15.5448  37.0294 H              1 RES1               0.0000
     28 H28        252.4027  13.7290  34.0222 H              1 RES1               0.0000
     29 H29        251.9927  15.5793  35.5978 H              1 RES1               0.0000
@<TRIPOS>BOND
    1    1    2 1     
    2    1    3 1     
    3    1    4 1     
    4    1    5 1     
    5    2    6 ar    
    6    2    7 ar    
    7    3    8 1     
    8    3    9 2     
    9    4   10 1     
   10    4   11 2     
   11    5   12 1     
   12    5   18 1     
   13    5   19 1     
   14    6   13 ar    
   15    6   20 1     
   16    7   14 ar    
   17    7   21 1     
   18    8   15 1     
   19    8   22 1     
   20   10   15 1     
   21   10   23 1     
   22   12   24 1     
   23   12   25 1     
   24   12   26 1     
   25   13   16 ar    
   26   13   27 1     
   27   14   16 ar    
   28   14   28 1     
   29   15   17 2     
   30   16   29 1     
@<TRIPOS>SUBSTRUCTURE
      1 RES1           1
@<TRIPOS>SET
DONOR_HYDROGENS      STATIC     ATOMS    <user>   **** ""
2 22 23
ATOM$RED        STATIC     ATOMS    COLORGROUP SYSTEM
2 22 23
@<TRIPOS>COMMENT
> <Gold.Version>
2022.3.0

> <Gold.Id.Protein>
unknown|4d1n_clean|pdb

> <Gold.Protein.RotatedTorsions>
[ 17004 16968 16967 16965 ] final   52.53 input   59.98 | X-H torsion
[ 18512 18476 18475 18473 ] final -170.06 input   59.98 | X-H torsion
[ 18572 18537 18538 18539 ] final -152.35 input   87.04 | X-H torsion
[ 18719 18692 18693 18694 ] final -124.37 input  124.02 | X-H torsion
[ 18790 18749 18750 18751 ] final  101.90 input   91.60 | X-H torsion
[ 19033 19013 19014 19015 ] final -102.19 input  122.46 | X-H torsion
[ 17200 17180 17181 17182 ] final  159.79 input   47.21 | X-H torsion
[ 17260 17226 17227 17228 ] final -113.84 input  117.85 | X-H torsion
[ 18826 18813 18814 18815 ] final -148.19 input  116.01 | X-H torsion
[ 18976 18926 18927 18928 ] final  -14.24 input  102.20 | X-H torsion
[ 19112 19073 19074 19075 ] final  125.61 input   89.03 | X-H torsion
[ 18504 18465 18466 18467 ] final   -5.92 input  102.26 | X-H torsion
[ 18300 18279 18280 18281 ] final -176.47 input   28.27 | X-H torsion
[ 18330 18317 18318 18319 ] final  163.97 input   50.43 | X-H torsion
[ 18419 18375 18376 18377 ] final  145.40 input   32.92 | X-H torsion
[ 7530 7517 7518 7519 ] final  106.41 input   89.56 | X-H torsion
[ 7496 7462 7463 7464 ] final  156.97 input  103.52 | X-H torsion
[ 18606 18593 18594 18595 ] final -142.55 input  124.70 | X-H torsion
[ 10120 10100 10099 10096 ] final  173.97 input   60.00 | X-H torsion
[ 18304 18284 18283 18280 ] final   59.96 input   60.01 | X-H torsion
[ 11501 11468 11469 11470 ] final  -73.15 input   45.03 | X-H torsion
[ 18664 18636 18634 18631 ] final   40.09 input   60.01 | X-H torsion
[ 18884 18850 18851 18852 ] final   79.19 input   84.91 | X-H torsion
[ 17308 17287 17288 17289 ] final   86.65 input   50.16 | X-H torsion
[ 22456 22422 22423 22424 ] final  -14.38 input   54.84 | X-H torsion
[ 11440 11420 11419 11416 ] final -148.25 input   60.01 | X-H torsion
[ 11650 11609 11610 11611 ] final  -59.52 input   61.57 | X-H torsion
[ 11832 11793 11794 11795 ] final  157.10 input   91.14 | X-H torsion
[ 16996 16957 16958 16959 ] final   70.50 input   91.87 | X-H torsion
[ 27198 18540 18539 18538 ] final -164.46 input   -0.00 | X-H torsion
[ 27200 18633 18632 18631 ] final   85.78 input    0.00 | X-H torsion
[ 27203 18695 18694 18693 ] final   22.43 input   -0.00 | X-H torsion
[ 27222 17133 17132 17131 ] final  -91.51 input    0.00 | X-H torsion
[ 27226 11612 11611 11610 ] final  164.52 input    0.00 | X-H torsion
[ 27230 17060 17059 17058 ] final  153.09 input   -0.00 | X-H torsion
[ 27232 18752 18751 18750 ] final  -48.06 input    0.00 | X-H torsion
[ 27234 18596 18595 18594 ] final  -27.11 input   -0.00 | X-H torsion
[ 27238 18929 18928 18927 ] final  173.19 input   -0.00 | X-H torsion
[ 27240 19016 19015 19014 ] final   19.14 input   -0.00 | X-H torsion
[ 27243 11418 11417 11416 ] final  -16.06 input    0.00 | X-H torsion
[ 27245 17183 17182 17181 ] final -175.21 input   -0.00 | X-H torsion
[ 27247 18378 18377 18376 ] final  -30.18 input   -0.00 | X-H torsion
[ 27250 18217 18216 18215 ] final  165.08 input    0.00 | X-H torsion
[ 27254 17229 17228 17227 ] final  123.03 input   -0.00 | X-H torsion
[ 27259 18320 18319 18318 ] final   85.29 input    0.00 | X-H torsion
[ 27261 18468 18467 18466 ] final -151.63 input    0.00 | X-H torsion
[ 27264 18282 18281 18280 ] final   95.68 input   -0.00 | X-H torsion
[ 27267 17020 17019 17018 ] final -107.68 input   -0.00 | X-H torsion
[ 27275 16960 16959 16958 ] final  -59.33 input    0.00 | X-H torsion

> <Gold.Protein.ActiveResidues>
 TRP414  CYS420  VAL421  GLY422  LEU460  SER462  SER482  GLN483  ILE485  ARG486 
 TYR487  ASP500  ASN503  TRP566  TYR567  GLY568  LEU569  PRO570  ALA571  VAL572 
 SER573  ASN574  PHE589  SER590  GLY591  TRP592  TYR593  MET594  GLY595  THR596 
 GLU597  ILE598  GLY599  VAL600  ARG601  ASP602  TYR603  ARG608  ILE653  VAL654 
 TRP683  PRO687  HEM750  H4B760 

> <Gold.Protein.RotatedAtoms>
  241.0668   11.5937   32.0456 H   0  0  0  0  0  0  0  0  0  0  0  0  # atno 7496 bound_to 7462
  242.3235    8.7936   32.4711 H   0  0  0  0  0  0  0  0  0  0  0  0  # atno 7530 bound_to 7517
  247.0833    1.9193   36.0413 H   0  0  0  0  0  0  0  0  0  0  0  0  # atno 10120 bound_to 10100
  254.2286   20.2501   41.7678 H   0  0  0  0  0  0  0  0  0  0  0  0  # atno 11440 bound_to 11420
  254.2807   16.0453   43.2409 H   0  0  0  0  0  0  0  0  0  0  0  0  # atno 11501 bound_to 11468
  258.0844   13.1416   41.4575 H   0  0  0  0  0  0  0  0  0  0  0  0  # atno 11650 bound_to 11609
  260.8311   17.3371   36.8074 H   0  0  0  0  0  0  0  0  0  0  0  0  # atno 11832 bound_to 11793
  259.9514   13.1750   32.1117 H   0  0  0  0  0  0  0  0  0  0  0  0  # atno 16996 bound_to 16957
  256.1245   14.9329   36.6586 H   0  0  0  0  0  0  0  0  0  0  0  0  # atno 17004 bound_to 16968
  254.2329   10.0551   38.0059 H   0  0  0  0  0  0  0  0  0  0  0  0  # atno 17200 bound_to 17180
  252.3410   11.8405   40.1339 H   0  0  0  0  0  0  0  0  0  0  0  0  # atno 17260 bound_to 17226
  252.0226   13.9097   43.1529 H   0  0  0  0  0  0  0  0  0  0  0  0  # atno 17308 bound_to 17287
  250.5089    7.1655   41.2893 H   0  0  0  0  0  0  0  0  0  0  0  0  # atno 18300 bound_to 18279
  252.2571    4.3970   39.0384 H   0  0  0  0  0  0  0  0  0  0  0  0  # atno 18304 bound_to 18284
  249.5904    6.4315   37.7172 H   0  0  0  0  0  0  0  0  0  0  0  0  # atno 18330 bound_to 18317
  250.4104    4.8878   33.9277 H   0  0  0  0  0  0  0  0  0  0  0  0  # atno 18419 bound_to 18375
  251.3445    7.0981   30.7350 H   0  0  0  0  0  0  0  0  0  0  0  0  # atno 18504 bound_to 18465
  255.9139   13.4757   33.5981 H   0  0  0  0  0  0  0  0  0  0  0  0  # atno 18512 bound_to 18476
  249.5600    9.1068   29.2212 H   0  0  0  0  0  0  0  0  0  0  0  0  # atno 18572 bound_to 18537
  250.7627   10.3961   26.1970 H   0  0  0  0  0  0  0  0  0  0  0  0  # atno 18606 bound_to 18593
  248.0105   15.0125   26.5177 H   0  0  0  0  0  0  0  0  0  0  0  0  # atno 18664 bound_to 18636
  249.2414   15.6245   26.9144 H   0  0  0  0  0  0  0  0  0  0  0  0  # atno 18719 bound_to 18692
  252.5466   14.8354   27.6789 H   0  0  0  0  0  0  0  0  0  0  0  0  # atno 18790 bound_to 18749
  254.6820   16.0502   25.7613 H   0  0  0  0  0  0  0  0  0  0  0  0  # atno 18826 bound_to 18813
  251.7996   17.9863   25.0967 H   0  0  0  0  0  0  0  0  0  0  0  0  # atno 18884 bound_to 18850
  252.1585   20.1083   26.3002 H   0  0  0  0  0  0  0  0  0  0  0  0  # atno 18976 bound_to 18926
  252.6396   20.9096   29.2904 H   0  0  0  0  0  0  0  0  0  0  0  0  # atno 19033 bound_to 19013
  255.4074   19.9911   27.3197 H   0  0  0  0  0  0  0  0  0  0  0  0  # atno 19112 bound_to 19073
  251.1795    7.1999   25.6233 H   0  0  0  0  0  0  0  0  0  0  0  0  # atno 22456 bound_to 22422
  255.7917   15.2334   35.0942 LP  0  0  0  0  0  0  0  0  0  0  0  0  # atno 27193 bound_to 16968
  256.8580   16.1717   35.8999 LP  0  0  0  0  0  0  0  0  0  0  0  0  # atno 27194 bound_to 16968
  254.4501   13.6689   34.2813 LP  0  0  0  0  0  0  0  0  0  0  0  0  # atno 27195 bound_to 18476
  254.8946   14.6034   33.0181 LP  0  0  0  0  0  0  0  0  0  0  0  0  # atno 27196 bound_to 18476
  250.2476   10.7104   29.3508 LP  0  0  0  0  0  0  0  0  0  0  0  0  # atno 27197 bound_to 18537
  250.9393   13.1605   27.2163 LP  0  0  0  0  0  0  0  0  0  0  0  0  # atno 27198 bound_to 18540
  250.4127   12.3377   28.6466 LP  0  0  0  0  0  0  0  0  0  0  0  0  # atno 27199 bound_to 18540
  249.7274   17.9145   26.4144 LP  0  0  0  0  0  0  0  0  0  0  0  0  # atno 27200 bound_to 18633
  251.4090   17.5038   26.3548 LP  0  0  0  0  0  0  0  0  0  0  0  0  # atno 27201 bound_to 18633
  250.6329   14.5851   27.0349 LP  0  0  0  0  0  0  0  0  0  0  0  0  # atno 27202 bound_to 18692
  251.5675   17.8333   30.0243 LP  0  0  0  0  0  0  0  0  0  0  0  0  # atno 27203 bound_to 18695
  252.9432   18.0789   29.0010 LP  0  0  0  0  0  0  0  0  0  0  0  0  # atno 27204 bound_to 18695
  252.1075   16.3922   28.3504 LP  0  0  0  0  0  0  0  0  0  0  0  0  # atno 27209 bound_to 18749
  253.2712   19.6262   28.2849 LP  0  0  0  0  0  0  0  0  0  0  0  0  # atno 27210 bound_to 19013
  251.4243    9.3118   37.3797 LP  0  0  0  0  0  0  0  0  0  0  0  0  # atno 27222 bound_to 17133
  252.7153    8.1691   37.5454 LP  0  0  0  0  0  0  0  0  0  0  0  0  # atno 27223 bound_to 17133
  253.2838   11.5016   38.2632 LP  0  0  0  0  0  0  0  0  0  0  0  0  # atno 27224 bound_to 17180
  251.0627   10.7327   40.5868 LP  0  0  0  0  0  0  0  0  0  0  0  0  # atno 27225 bound_to 17226
  257.6392   14.9526   38.0435 LP  0  0  0  0  0  0  0  0  0  0  0  0  # atno 27226 bound_to 11612
  257.6626   13.2208   38.0544 LP  0  0  0  0  0  0  0  0  0  0  0  0  # atno 27227 bound_to 11612
  256.2818   10.9114   36.8212 LP  0  0  0  0  0  0  0  0  0  0  0  0  # atno 27230 bound_to 17060
  257.2749    9.5883   37.3345 LP  0  0  0  0  0  0  0  0  0  0  0  0  # atno 27231 bound_to 17060
  254.5437   18.8615   27.3845 LP  0  0  0  0  0  0  0  0  0  0  0  0  # atno 27232 bound_to 18752
  255.5652   18.5255   26.0267 LP  0  0  0  0  0  0  0  0  0  0  0  0  # atno 27233 bound_to 18752
  253.1528   13.8825   25.7507 LP  0  0  0  0  0  0  0  0  0  0  0  0  # atno 27234 bound_to 18596
  252.3451   15.1694   24.9192 LP  0  0  0  0  0  0  0  0  0  0  0  0  # atno 27235 bound_to 18596
  253.0674   16.7055   25.9293 LP  0  0  0  0  0  0  0  0  0  0  0  0  # atno 27236 bound_to 18813
  250.4453   19.8381   26.4866 LP  0  0  0  0  0  0  0  0  0  0  0  0  # atno 27237 bound_to 18926
  253.9736   22.7048   29.1668 LP  0  0  0  0  0  0  0  0  0  0  0  0  # atno 27238 bound_to 18929
  252.5775   23.2760   28.3155 LP  0  0  0  0  0  0  0  0  0  0  0  0  # atno 27239 bound_to 18929
  256.5922   22.0941   30.2527 LP  0  0  0  0  0  0  0  0  0  0  0  0  # atno 27240 bound_to 19016
  256.8496   22.7808   28.6836 LP  0  0  0  0  0  0  0  0  0  0  0  0  # atno 27241 bound_to 19016
  255.3153   21.4804   28.2324 LP  0  0  0  0  0  0  0  0  0  0  0  0  # atno 27242 bound_to 19073
  251.5208   16.1279   43.1337 LP  0  0  0  0  0  0  0  0  0  0  0  0  # atno 27243 bound_to 11418
  252.2032   15.2236   41.8235 LP  0  0  0  0  0  0  0  0  0  0  0  0  # atno 27244 bound_to 11418
  253.2175   12.6043   42.1257 LP  0  0  0  0  0  0  0  0  0  0  0  0  # atno 27245 bound_to 17183
  254.5218   11.6402   41.5180 LP  0  0  0  0  0  0  0  0  0  0  0  0  # atno 27246 bound_to 17183
  249.0116    7.0447   32.1501 LP  0  0  0  0  0  0  0  0  0  0  0  0  # atno 27247 bound_to 18378
  249.4457    8.6912   31.8331 LP  0  0  0  0  0  0  0  0  0  0  0  0  # atno 27248 bound_to 18378
  252.4276    7.9966   31.7749 LP  0  0  0  0  0  0  0  0  0  0  0  0  # atno 27249 bound_to 18465
  251.0679    8.8732   40.2377 LP  0  0  0  0  0  0  0  0  0  0  0  0  # atno 27250 bound_to 18217
  250.1823    9.4806   41.5966 LP  0  0  0  0  0  0  0  0  0  0  0  0  # atno 27251 bound_to 18217
  251.0711   10.6827   43.7913 LP  0  0  0  0  0  0  0  0  0  0  0  0  # atno 27254 bound_to 17229
  249.5260   11.0232   43.0865 LP  0  0  0  0  0  0  0  0  0  0  0  0  # atno 27255 bound_to 17229
  249.5346    5.8808   40.6182 LP  0  0  0  0  0  0  0  0  0  0  0  0  # atno 27256 bound_to 18279
  251.2135    6.5014   37.0700 LP  0  0  0  0  0  0  0  0  0  0  0  0  # atno 27257 bound_to 18317
  249.9878    6.5722   34.1507 LP  0  0  0  0  0  0  0  0  0  0  0  0  # atno 27258 bound_to 18375
  252.2966    4.0247   34.9458 LP  0  0  0  0  0  0  0  0  0  0  0  0  # atno 27259 bound_to 18320
  252.7621    5.6414   35.3578 LP  0  0  0  0  0  0  0  0  0  0  0  0  # atno 27260 bound_to 18320
  250.4520    8.1960   27.3082 LP  0  0  0  0  0  0  0  0  0  0  0  0  # atno 27261 bound_to 18468
  251.0315    7.2152   28.6128 LP  0  0  0  0  0  0  0  0  0  0  0  0  # atno 27262 bound_to 18468
  241.1952    8.2257   31.2628 LP  0  0  0  0  0  0  0  0  0  0  0  0  # atno 27263 bound_to 7517
  248.9257    4.5348   38.8858 LP  0  0  0  0  0  0  0  0  0  0  0  0  # atno 27264 bound_to 18282
  250.5174    3.8703   38.7282 LP  0  0  0  0  0  0  0  0  0  0  0  0  # atno 27265 bound_to 18282
  241.1417   10.0863   32.9353 LP  0  0  0  0  0  0  0  0  0  0  0  0  # atno 27266 bound_to 7462
  255.6610    8.2525   32.5959 LP  0  0  0  0  0  0  0  0  0  0  0  0  # atno 27267 bound_to 17020
  256.2752    6.6453   32.3974 LP  0  0  0  0  0  0  0  0  0  0  0  0  # atno 27268 bound_to 17020
  249.5403   11.5254   25.6491 LP  0  0  0  0  0  0  0  0  0  0  0  0  # atno 27269 bound_to 18593
  248.5757    1.3469   35.7350 LP  0  0  0  0  0  0  0  0  0  0  0  0  # atno 27270 bound_to 10100
  248.3749    2.8933   36.2199 LP  0  0  0  0  0  0  0  0  0  0  0  0  # atno 27271 bound_to 10100
  252.1528    4.7580   40.6216 LP  0  0  0  0  0  0  0  0  0  0  0  0  # atno 27272 bound_to 18284
  253.6041    4.7667   39.8731 LP  0  0  0  0  0  0  0  0  0  0  0  0  # atno 27273 bound_to 18284
  254.6676   16.7363   41.6783 LP  0  0  0  0  0  0  0  0  0  0  0  0  # atno 27274 bound_to 11468
  257.9039   11.5538   32.3232 LP  0  0  0  0  0  0  0  0  0  0  0  0  # atno 27275 bound_to 16960
  258.1696   10.5201   30.9591 LP  0  0  0  0  0  0  0  0  0  0  0  0  # atno 27276 bound_to 16960

> <Gold.Score>
     Fitness  S(hb_ext) S(vdw_ext)  S(hb_int)    S(int)      intcor
     34.15       1.75      23.95       0.00      -0.54      -0.76

> <Gold.Goldscore.Fitness>
34.1513

> <Gold.Goldscore.Internal.Vdw>
-0.7067

> <Gold.Goldscore.Internal.Torsion>
-0.5888

> <Gold.Goldscore.External.Vdw>
23.9536

> <Gold.Goldscore.Internal.HBond>
0.0000

> <Gold.Goldscore.External.HBond>
1.7521

> <Gold.Goldscore.Internal.Correction>
-0.7585

> <Gold.Goldscore.Hbonds>
donor molecule, donor type, donor heavy atom, donor atom, acceptor molecule, acceptor atom, score
      L1  H    10    23       P1 18375  0.29

> <Gold.Goldscore.Internal.Vdw.Weighted>
-0.7067

> <Gold.Goldscore.Internal.Torsion.Weighted>
-0.5888

> <Gold.Goldscore.External.Vdw.Weighted>
32.9362

> <Gold.Goldscore.Internal.HBond.Weighted>
0.0000

> <Gold.Goldscore.External.HBond.Weighted>
1.7521

> <Gold.Goldscore.Internal.Correction.Weighted>
-0.7585

> <Gold.Rescore>
     Score     S(PLP)   S(hbond)     S(cho)   S(metal)  DE(clash)   DE(tors)     intcor
     30.97     -30.69       0.54       0.00       0.00       0.00       0.68       ----

> <Gold.PLP.Fitness>
30.9667

> <Gold.PLP.PLP>
-30.6938

> <Gold.PLP.part.hbond>
-4.0000

> <Gold.PLP.part.metal>
0.0000

> <Gold.PLP.part.buried>
14.4183

> <Gold.PLP.part.nonpolar>
-43.8028

> <Gold.PLP.part.repulsive>
0.8055

> <Gold.PLP.ligand.clash>
0.0000

> <Gold.PLP.ligand.torsion>
0.6795

> <Gold.PLP.Chemscore.Hbond>
0.5440

> <Gold.PLP.Chemscore.CHOScore>
0.0000

> <Gold.PLP.Chemscore.Metal>
0.0000

> <Gold.Chemscore.Hbonds>
donor molecule, donor type, donor heavy atom, donor atom, acceptor molecule, acceptor atom, score
      L1  H    10    23       P1 18378  0.29

> <Gold.PLP.Chemscore.Internal.Correction>
   9.000000E+99

#       Name:                CT1002167954
#       Creating user name   hitesit
#       Creation time:       Sun Apr 16 23:06:20 2023


#       File generated by GOLD software.
#

@<TRIPOS>MOLECULE
CT1002167954|ligand_prepared|mol2|1|dock1
    29    30     1
SMALL
NO_CHARGES


@<TRIPOS>ATOM
      1 C1         250.5955  17.3371  34.2516 C.3            1 RES1               0.0000
      2 C2         250.0953  16.0106  34.8591 C.ar           1 RES1               0.0000
      3 C3         251.0808  18.1880  35.4216 C.2            1 RES1               0.0000
      4 C4         251.6896  16.9651  33.2570 C.2            1 RES1               0.0000
      5 C5         249.5052  18.1258  33.4897 C.3            1 RES1               0.0000
      6 C6         250.7457  14.8128  34.5781 C.ar           1 RES1               0.0000
      7 C7         248.9884  15.9692  35.7027 C.ar           1 RES1               0.0000
      8 N8         252.4273  18.3359  35.5796 N.am           1 RES1               0.0000
      9 O9         250.2951  18.6889  36.2166 O.2            1 RES1               0.0000
     10 N10        252.9696  17.3718  33.5286 N.am           1 RES1               0.0000
     11 O11        251.4575  16.3092  32.2489 O.2            1 RES1               0.0000
     12 C12        250.0520  19.2585  32.6352 C.3            1 RES1               0.0000
     13 C13        250.3074  13.6173  35.1231 C.ar           1 RES1               0.0000
     14 C14        248.5516  14.7726  36.2465 C.ar           1 RES1               0.0000
     15 C15        253.3932  18.0139  34.6603 C.2            1 RES1               0.0000
     16 C16        249.2104  13.5964  35.9579 C.ar           1 RES1               0.0000
     17 O17        254.5710  18.2986  34.8571 O.2            1 RES1               0.0000
     18 H18        248.9531  17.4315  32.8443 H              1 RES1               0.0000
     19 H19        248.7974  18.5423  34.2170 H              1 RES1               0.0000
     20 H20        251.6093  14.8092  33.9213 H              1 RES1               0.0000
     21 H21        248.4539  16.8821  35.9428 H              1 RES1               0.0000
     22 H22        252.7455  18.7214  36.4630 H              1 RES1               0.0000
     23 H23        253.6718  17.1781  32.8217 H              1 RES1               0.0000
     24 H24        249.2457  19.7789  32.1226 H              1 RES1               0.0000
     25 H25        250.5859  19.9814  33.2486 H              1 RES1               0.0000
     26 H26        250.7407  18.8771  31.8841 H              1 RES1               0.0000
     27 H27        250.8286  12.6942  34.8918 H              1 RES1               0.0000
     28 H28        247.6874  14.7608  36.9025 H              1 RES1               0.0000
     29 H29        248.8675  12.6599  36.3850 H              1 RES1               0.0000
@<TRIPOS>BOND
    1    1    2 1     
    2    1    3 1     
    3    1    4 1     
    4    1    5 1     
    5    2    6 ar    
    6    2    7 ar    
    7    3    8 1     
    8    3    9 2     
    9    4   10 1     
   10    4   11 2     
   11    5   12 1     
   12    5   18 1     
   13    5   19 1     
   14    6   13 ar    
   15    6   20 1     
   16    7   14 ar    
   17    7   21 1     
   18    8   15 1     
   19    8   22 1     
   20   10   15 1     
   21   10   23 1     
   22   12   24 1     
   23   12   25 1     
   24   12   26 1     
   25   13   16 ar    
   26   13   27 1     
   27   14   16 ar    
   28   14   28 1     
   29   15   17 2     
   30   16   29 1     
@<TRIPOS>SUBSTRUCTURE
      1 RES1           1
@<TRIPOS>SET
DONOR_HYDROGENS      STATIC     ATOMS    <user>   **** ""
2 22 23
ATOM$RED        STATIC     ATOMS    COLORGROUP SYSTEM
2 22 23
@<TRIPOS>COMMENT
> <Gold.Version>
2022.3.0

> <Gold.Id.Protein>
unknown|4d1n_clean|pdb

> <Gold.Protein.RotatedTorsions>
[ 17004 16968 16967 16965 ] final   92.82 input   59.98 | X-H torsion
[ 18512 18476 18475 18473 ] final   33.14 input   59.98 | X-H torsion
[ 18572 18537 18538 18539 ] final   60.66 input   87.04 | X-H torsion
[ 18719 18692 18693 18694 ] final    3.53 input  124.02 | X-H torsion
[ 18790 18749 18750 18751 ] final  170.69 input   91.60 | X-H torsion
[ 19033 19013 19014 19015 ] final  119.79 input  122.46 | X-H torsion
[ 17200 17180 17181 17182 ] final  -52.70 input   47.21 | X-H torsion
[ 17260 17226 17227 17228 ] final -122.18 input  117.85 | X-H torsion
[ 18826 18813 18814 18815 ] final  -90.21 input  116.01 | X-H torsion
[ 18976 18926 18927 18928 ] final  -56.09 input  102.20 | X-H torsion
[ 19112 19073 19074 19075 ] final   50.86 input   89.03 | X-H torsion
[ 18504 18465 18466 18467 ] final   40.90 input  102.26 | X-H torsion
[ 18300 18279 18280 18281 ] final  -34.45 input   28.27 | X-H torsion
[ 18330 18317 18318 18319 ] final  177.65 input   50.43 | X-H torsion
[ 18419 18375 18376 18377 ] final   81.70 input   32.92 | X-H torsion
[ 7530 7517 7518 7519 ] final  135.05 input   89.56 | X-H torsion
[ 7496 7462 7463 7464 ] final  -33.50 input  103.52 | X-H torsion
[ 18606 18593 18594 18595 ] final -105.02 input  124.70 | X-H torsion
[ 10120 10100 10099 10096 ] final   14.23 input   60.00 | X-H torsion
[ 18304 18284 18283 18280 ] final  178.19 input   60.01 | X-H torsion
[ 11501 11468 11469 11470 ] final  137.75 input   45.03 | X-H torsion
[ 18664 18636 18634 18631 ] final  -96.35 input   60.01 | X-H torsion
[ 18884 18850 18851 18852 ] final  -96.41 input   84.91 | X-H torsion
[ 17308 17287 17288 17289 ] final  -49.40 input   50.16 | X-H torsion
[ 22456 22422 22423 22424 ] final   22.71 input   54.84 | X-H torsion
[ 11440 11420 11419 11416 ] final  143.22 input   60.01 | X-H torsion
[ 11650 11609 11610 11611 ] final  -53.75 input   61.57 | X-H torsion
[ 11832 11793 11794 11795 ] final  -22.79 input   91.14 | X-H torsion
[ 16996 16957 16958 16959 ] final -133.14 input   91.87 | X-H torsion
[ 27198 18540 18539 18538 ] final  148.84 input   -0.00 | X-H torsion
[ 27200 18633 18632 18631 ] final   81.41 input    0.00 | X-H torsion
[ 27203 18695 18694 18693 ] final  -12.16 input   -0.00 | X-H torsion
[ 27222 17133 17132 17131 ] final   61.52 input    0.00 | X-H torsion
[ 27226 11612 11611 11610 ] final   79.83 input    0.00 | X-H torsion
[ 27230 17060 17059 17058 ] final -142.72 input   -0.00 | X-H torsion
[ 27232 18752 18751 18750 ] final   -1.88 input    0.00 | X-H torsion
[ 27234 18596 18595 18594 ] final -145.42 input   -0.00 | X-H torsion
[ 27238 18929 18928 18927 ] final -114.00 input   -0.00 | X-H torsion
[ 27240 19016 19015 19014 ] final   38.64 input   -0.00 | X-H torsion
[ 27243 11418 11417 11416 ] final  -52.93 input    0.00 | X-H torsion
[ 27245 17183 17182 17181 ] final -106.42 input   -0.00 | X-H torsion
[ 27247 18378 18377 18376 ] final -100.56 input   -0.00 | X-H torsion
[ 27250 18217 18216 18215 ] final -161.05 input    0.00 | X-H torsion
[ 27254 17229 17228 17227 ] final   24.15 input   -0.00 | X-H torsion
[ 27259 18320 18319 18318 ] final   21.35 input    0.00 | X-H torsion
[ 27261 18468 18467 18466 ] final  169.05 input    0.00 | X-H torsion
[ 27264 18282 18281 18280 ] final   99.92 input   -0.00 | X-H torsion
[ 27267 17020 17019 17018 ] final   91.15 input   -0.00 | X-H torsion
[ 27275 16960 16959 16958 ] final  169.96 input    0.00 | X-H torsion

> <Gold.Protein.ActiveResidues>
 TRP414  CYS420  VAL421  GLY422  LEU460  SER462  SER482  GLN483  ILE485  ARG486 
 TYR487  ASP500  ASN503  TRP566  TYR567  GLY568  LEU569  PRO570  ALA571  VAL572 
 SER573  ASN574  PHE589  SER590  GLY591  TRP592  TYR593  MET594  GLY595  THR596 
 GLU597  ILE598  GLY599  VAL600  ARG601  ASP602  TYR603  ARG608  ILE653  VAL654 
 TRP683  PRO687  HEM750  H4B760 

> <Gold.Protein.RotatedAtoms>
  240.9781   10.0669   32.9519 H   0  0  0  0  0  0  0  0  0  0  0  0  # atno 7496 bound_to 7462
  242.5234    8.8739   32.0902 H   0  0  0  0  0  0  0  0  0  0  0  0  # atno 7530 bound_to 7517
  248.9182    1.8700   35.8662 H   0  0  0  0  0  0  0  0  0  0  0  0  # atno 10120 bound_to 10100
  253.7400   19.6352   41.0642 H   0  0  0  0  0  0  0  0  0  0  0  0  # atno 11440 bound_to 11420
  254.2042   16.6755   41.6415 H   0  0  0  0  0  0  0  0  0  0  0  0  # atno 11501 bound_to 11468
  258.0246   13.1722   41.3982 H   0  0  0  0  0  0  0  0  0  0  0  0  # atno 11650 bound_to 11609
  260.5210   18.1694   38.3625 H   0  0  0  0  0  0  0  0  0  0  0  0  # atno 11832 bound_to 11793
  261.5319   12.7734   31.5551 H   0  0  0  0  0  0  0  0  0  0  0  0  # atno 16996 bound_to 16957
  256.5518   15.4020   36.7739 H   0  0  0  0  0  0  0  0  0  0  0  0  # atno 17004 bound_to 16968
  252.9622   11.1880   38.0673 H   0  0  0  0  0  0  0  0  0  0  0  0  # atno 17200 bound_to 17180
  252.2663   11.8701   40.0321 H   0  0  0  0  0  0  0  0  0  0  0  0  # atno 17260 bound_to 17226
  250.4571   13.5119   43.3947 H   0  0  0  0  0  0  0  0  0  0  0  0  # atno 17308 bound_to 17287
  249.2617    6.3697   40.5196 H   0  0  0  0  0  0  0  0  0  0  0  0  # atno 18300 bound_to 18279
  253.5984    4.7613   39.8442 H   0  0  0  0  0  0  0  0  0  0  0  0  # atno 18304 bound_to 18284
  249.6667    6.2651   37.8225 H   0  0  0  0  0  0  0  0  0  0  0  0  # atno 18330 bound_to 18317
  249.7094    5.2908   33.4487 H   0  0  0  0  0  0  0  0  0  0  0  0  # atno 18419 bound_to 18375
  252.0068    7.1264   30.4927 H   0  0  0  0  0  0  0  0  0  0  0  0  # atno 18504 bound_to 18465
  254.2282   14.1058   33.9477 H   0  0  0  0  0  0  0  0  0  0  0  0  # atno 18512 bound_to 18476
  249.7863   10.7667   29.5300 H   0  0  0  0  0  0  0  0  0  0  0  0  # atno 18572 bound_to 18537
  250.7012   10.8080   26.5926 H   0  0  0  0  0  0  0  0  0  0  0  0  # atno 18606 bound_to 18593
  247.2906   14.0870   25.2345 H   0  0  0  0  0  0  0  0  0  0  0  0  # atno 18664 bound_to 18636
  250.7372   15.2419   26.6571 H   0  0  0  0  0  0  0  0  0  0  0  0  # atno 18719 bound_to 18692
  252.5845   15.0632   28.6592 H   0  0  0  0  0  0  0  0  0  0  0  0  # atno 18790 bound_to 18749
  254.5776   16.8076   26.1613 H   0  0  0  0  0  0  0  0  0  0  0  0  # atno 18826 bound_to 18813
  253.0751   18.6844   24.0942 H   0  0  0  0  0  0  0  0  0  0  0  0  # atno 18884 bound_to 18850
  251.8285   20.5487   26.0003 H   0  0  0  0  0  0  0  0  0  0  0  0  # atno 18976 bound_to 18926
  253.0513   19.3784   28.8170 H   0  0  0  0  0  0  0  0  0  0  0  0  # atno 19033 bound_to 19013
  254.7318   20.8146   27.1606 H   0  0  0  0  0  0  0  0  0  0  0  0  # atno 19112 bound_to 19073
  250.8526    7.3294   26.0634 H   0  0  0  0  0  0  0  0  0  0  0  0  # atno 22456 bound_to 22422
  255.6271   14.8205   35.5677 LP  0  0  0  0  0  0  0  0  0  0  0  0  # atno 27193 bound_to 16968
  256.5923   16.1123   35.3103 LP  0  0  0  0  0  0  0  0  0  0  0  0  # atno 27194 bound_to 16968
  255.4420   14.3988   32.9046 LP  0  0  0  0  0  0  0  0  0  0  0  0  # atno 27195 bound_to 18476
  255.6014   13.2385   34.0426 LP  0  0  0  0  0  0  0  0  0  0  0  0  # atno 27196 bound_to 18476
  250.0282    9.1014   29.0515 LP  0  0  0  0  0  0  0  0  0  0  0  0  # atno 27197 bound_to 18537
  251.4252   12.7653   27.4974 LP  0  0  0  0  0  0  0  0  0  0  0  0  # atno 27198 bound_to 18540
  249.9268   12.7329   28.3655 LP  0  0  0  0  0  0  0  0  0  0  0  0  # atno 27199 bound_to 18540
  249.7283   17.9171   26.3483 LP  0  0  0  0  0  0  0  0  0  0  0  0  # atno 27200 bound_to 18633
  251.4081   17.5012   26.4209 LP  0  0  0  0  0  0  0  0  0  0  0  0  # atno 27201 bound_to 18633
  249.1395   14.9670   27.2918 LP  0  0  0  0  0  0  0  0  0  0  0  0  # atno 27202 bound_to 18692
  251.4096   18.1092   29.6191 LP  0  0  0  0  0  0  0  0  0  0  0  0  # atno 27203 bound_to 18695
  253.1010   17.8030   29.4061 LP  0  0  0  0  0  0  0  0  0  0  0  0  # atno 27204 bound_to 18695
  252.0709   16.1724   27.4049 LP  0  0  0  0  0  0  0  0  0  0  0  0  # atno 27209 bound_to 18749
  252.8706   21.1160   28.7455 LP  0  0  0  0  0  0  0  0  0  0  0  0  # atno 27210 bound_to 19013
  252.6745    8.2078   37.1455 LP  0  0  0  0  0  0  0  0  0  0  0  0  # atno 27222 bound_to 17133
  251.4650    9.2731   37.7796 LP  0  0  0  0  0  0  0  0  0  0  0  0  # atno 27223 bound_to 17133
  254.5183   10.4009   38.2036 LP  0  0  0  0  0  0  0  0  0  0  0  0  # atno 27224 bound_to 17180
  251.1347   10.7042   40.6850 LP  0  0  0  0  0  0  0  0  0  0  0  0  # atno 27225 bound_to 17226
  257.1305   14.1641   38.7369 LP  0  0  0  0  0  0  0  0  0  0  0  0  # atno 27226 bound_to 11612
  258.1712   14.0093   37.3610 LP  0  0  0  0  0  0  0  0  0  0  0  0  # atno 27227 bound_to 11612
  256.0542   10.3773   37.5354 LP  0  0  0  0  0  0  0  0  0  0  0  0  # atno 27230 bound_to 17060
  257.5025   10.1223   36.6203 LP  0  0  0  0  0  0  0  0  0  0  0  0  # atno 27231 bound_to 17060
  255.1374   18.5823   27.5604 LP  0  0  0  0  0  0  0  0  0  0  0  0  # atno 27232 bound_to 18752
  254.9715   18.8046   25.8507 LP  0  0  0  0  0  0  0  0  0  0  0  0  # atno 27233 bound_to 18752
  252.2693   15.0777   25.7992 LP  0  0  0  0  0  0  0  0  0  0  0  0  # atno 27234 bound_to 18596
  253.2286   13.9742   24.8707 LP  0  0  0  0  0  0  0  0  0  0  0  0  # atno 27235 bound_to 18596
  253.1683   15.9734   25.5427 LP  0  0  0  0  0  0  0  0  0  0  0  0  # atno 27236 bound_to 18813
  250.7713   19.4030   26.7829 LP  0  0  0  0  0  0  0  0  0  0  0  0  # atno 27237 bound_to 18926
  253.8855   22.8233   28.1495 LP  0  0  0  0  0  0  0  0  0  0  0  0  # atno 27238 bound_to 18929
  252.6656   23.1575   29.3329 LP  0  0  0  0  0  0  0  0  0  0  0  0  # atno 27239 bound_to 18929
  256.8282   21.9409   30.1696 LP  0  0  0  0  0  0  0  0  0  0  0  0  # atno 27240 bound_to 19016
  256.6136   22.9339   28.7667 LP  0  0  0  0  0  0  0  0  0  0  0  0  # atno 27241 bound_to 19016
  255.9717   20.6803   28.3870 LP  0  0  0  0  0  0  0  0  0  0  0  0  # atno 27242 bound_to 19073
  251.7122   15.6543   43.3313 LP  0  0  0  0  0  0  0  0  0  0  0  0  # atno 27243 bound_to 11418
  252.0118   15.6972   41.6259 LP  0  0  0  0  0  0  0  0  0  0  0  0  # atno 27244 bound_to 11418
  253.4956   11.7471   42.5070 LP  0  0  0  0  0  0  0  0  0  0  0  0  # atno 27245 bound_to 17183
  254.2437   12.4973   41.1368 LP  0  0  0  0  0  0  0  0  0  0  0  0  # atno 27246 bound_to 17183
  249.0463    7.4667   31.2461 LP  0  0  0  0  0  0  0  0  0  0  0  0  # atno 27247 bound_to 18378
  249.4110    8.2693   32.7370 LP  0  0  0  0  0  0  0  0  0  0  0  0  # atno 27248 bound_to 18378
  251.7853    7.9692   32.0100 LP  0  0  0  0  0  0  0  0  0  0  0  0  # atno 27249 bound_to 18465
  250.5966    8.9588   40.0795 LP  0  0  0  0  0  0  0  0  0  0  0  0  # atno 27250 bound_to 18217
  250.6536    9.3950   41.7548 LP  0  0  0  0  0  0  0  0  0  0  0  0  # atno 27251 bound_to 18217
  250.4293   10.5059   42.6563 LP  0  0  0  0  0  0  0  0  0  0  0  0  # atno 27254 bound_to 17229
  250.1679   11.2001   44.2215 LP  0  0  0  0  0  0  0  0  0  0  0  0  # atno 27255 bound_to 17229
  250.7574    6.6610   41.3728 LP  0  0  0  0  0  0  0  0  0  0  0  0  # atno 27256 bound_to 18279
  251.1393    6.6632   36.9676 LP  0  0  0  0  0  0  0  0  0  0  0  0  # atno 27257 bound_to 18317
  250.6650    6.1829   34.6134 LP  0  0  0  0  0  0  0  0  0  0  0  0  # atno 27258 bound_to 18375
  252.2400    4.3425   35.8042 LP  0  0  0  0  0  0  0  0  0  0  0  0  # atno 27259 bound_to 18320
  252.8187    5.3236   34.4994 LP  0  0  0  0  0  0  0  0  0  0  0  0  # atno 27260 bound_to 18320
  250.0031    7.9308   27.5685 LP  0  0  0  0  0  0  0  0  0  0  0  0  # atno 27261 bound_to 18468
  251.4804    7.4804   28.3526 LP  0  0  0  0  0  0  0  0  0  0  0  0  # atno 27262 bound_to 18468
  241.0002    8.1474   31.6343 LP  0  0  0  0  0  0  0  0  0  0  0  0  # atno 27263 bound_to 7517
  248.9152    4.5179   38.8249 LP  0  0  0  0  0  0  0  0  0  0  0  0  # atno 27264 bound_to 18282
  250.5280    3.8872   38.7891 LP  0  0  0  0  0  0  0  0  0  0  0  0  # atno 27265 bound_to 18282
  241.2271   11.5559   32.0630 LP  0  0  0  0  0  0  0  0  0  0  0  0  # atno 27266 bound_to 7462
  256.1688    6.6222   32.6590 LP  0  0  0  0  0  0  0  0  0  0  0  0  # atno 27267 bound_to 17020
  255.7674    8.2756   32.3344 LP  0  0  0  0  0  0  0  0  0  0  0  0  # atno 27268 bound_to 17020
  249.5995   11.1291   25.2685 LP  0  0  0  0  0  0  0  0  0  0  0  0  # atno 27269 bound_to 18593
  247.7373    2.9104   36.2808 LP  0  0  0  0  0  0  0  0  0  0  0  0  # atno 27270 bound_to 10100
  247.3665    1.3794   35.8504 LP  0  0  0  0  0  0  0  0  0  0  0  0  # atno 27271 bound_to 10100
  252.2287    4.3931   39.0468 LP  0  0  0  0  0  0  0  0  0  0  0  0  # atno 27272 bound_to 18284
  252.1770    4.7646   40.6361 LP  0  0  0  0  0  0  0  0  0  0  0  0  # atno 27273 bound_to 18284
  254.7411   16.1299   43.2172 LP  0  0  0  0  0  0  0  0  0  0  0  0  # atno 27274 bound_to 11468
  257.7599   10.2324   31.4797 LP  0  0  0  0  0  0  0  0  0  0  0  0  # atno 27275 bound_to 16960
  258.3137   11.8415   31.8026 LP  0  0  0  0  0  0  0  0  0  0  0  0  # atno 27276 bound_to 16960

> <Gold.Score>
     Fitness  S(hb_ext) S(vdw_ext)  S(hb_int)    S(int)      intcor
     33.99       5.95      23.14       0.00      -3.78      -0.83

> <Gold.Goldscore.Fitness>
33.9883

> <Gold.Goldscore.Internal.Vdw>
-3.9873

> <Gold.Goldscore.Internal.Torsion>
-0.6243

> <Gold.Goldscore.External.Vdw>
23.1384

> <Gold.Goldscore.Internal.HBond>
0.0000

> <Gold.Goldscore.External.HBond>
5.9528

> <Gold.Goldscore.Internal.Correction>
-0.8319

> <Gold.Goldscore.Hbonds>
donor molecule, donor type, donor heavy atom, donor atom, acceptor molecule, acceptor atom, score
      P1  H 11704 11756       L1    17  0.30
      P1  H 19356 19407       L1    17  0.07
      L1  H    10    23       P1 19020  0.62

> <Gold.Goldscore.Internal.Vdw.Weighted>
-3.9873

> <Gold.Goldscore.Internal.Torsion.Weighted>
-0.6243

> <Gold.Goldscore.External.Vdw.Weighted>
31.8153

> <Gold.Goldscore.Internal.HBond.Weighted>
0.0000

> <Gold.Goldscore.External.HBond.Weighted>
5.9528

> <Gold.Goldscore.Internal.Correction.Weighted>
-0.8319

> <Gold.Rescore>
     Score     S(PLP)   S(hbond)     S(cho)   S(metal)  DE(clash)   DE(tors)     intcor
     22.46     -16.76       2.74       0.00       0.00       1.96       0.27       ----

> <Gold.PLP.Fitness>
22.4645

> <Gold.PLP.PLP>
-16.7560

> <Gold.PLP.part.hbond>
-4.0000

> <Gold.PLP.part.metal>
0.0000

> <Gold.PLP.part.buried>
8.7494

> <Gold.PLP.part.nonpolar>
-27.0415

> <Gold.PLP.part.repulsive>
3.1051

> <Gold.PLP.ligand.clash>
1.9599

> <Gold.PLP.ligand.torsion>
0.2698

> <Gold.PLP.Chemscore.Hbond>
2.7360

> <Gold.PLP.Chemscore.CHOScore>
0.0000

> <Gold.PLP.Chemscore.Metal>
0.0000

> <Gold.Chemscore.Hbonds>
donor molecule, donor type, donor heavy atom, donor atom, acceptor molecule, acceptor atom, score
      L1  H    10    23       P1 19020  0.55
      P1  H 11704 11756       L1    17  0.86
      P1  H 19356 19407       L1    17  0.78

> <Gold.PLP.Chemscore.Internal.Correction>
   9.000000E+99

#       Name:                CT1002167954
#       Creating user name   hitesit
#       Creation time:       Sun Apr 16 23:06:21 2023


#       File generated by GOLD software.
#

@<TRIPOS>MOLECULE
CT1002167954|ligand_prepared|mol2|1|dock2
    29    30     1
SMALL
NO_CHARGES


@<TRIPOS>ATOM
      1 C1         250.0476  18.7613  35.3037 C.3            1 RES1               0.0000
      2 C2         249.9829  17.2206  35.3296 C.ar           1 RES1               0.0000
      3 C3         251.0387  19.1301  34.2038 C.2            1 RES1               0.0000
      4 C4         248.6244  19.2438  35.0462 C.2            1 RES1               0.0000
      5 C5         250.5318  19.3887  36.6317 C.3            1 RES1               0.0000
      6 C6         249.3485  16.5554  36.3745 C.ar           1 RES1               0.0000
      7 C7         250.5496  16.4523  34.3161 C.ar           1 RES1               0.0000
      8 N8         250.5339  19.6340  33.0414 N.am           1 RES1               0.0000
      9 O9         252.2418  18.9447  34.3392 O.2            1 RES1               0.0000
     10 N10        248.3702  19.8934  33.8667 N.am           1 RES1               0.0000
     11 O11        247.7172  19.0527  35.8467 O.2            1 RES1               0.0000
     12 C12        250.7579  20.8904  36.5539 C.3            1 RES1               0.0000
     13 C13        249.2804  15.1724  36.4037 C.ar           1 RES1               0.0000
     14 C14        250.4806  15.0692  34.3474 C.ar           1 RES1               0.0000
     15 C15        249.2536  20.0832  32.8392 C.2            1 RES1               0.0000
     16 C16        249.8460  14.4284  35.3902 C.ar           1 RES1               0.0000
     17 O17        248.9356  20.6288  31.7864 O.2            1 RES1               0.0000
     18 H18        249.7876  19.1836  37.4112 H              1 RES1               0.0000
     19 H19        251.4706  18.9053  36.9290 H              1 RES1               0.0000
     20 H20        248.8998  17.1240  37.1822 H              1 RES1               0.0000
     21 H21        251.0549  16.9348  33.4864 H              1 RES1               0.0000
     22 H22        251.1667  19.6812  32.2492 H              1 RES1               0.0000
     23 H23        247.4359  20.2705  33.7433 H              1 RES1               0.0000
     24 H24        251.0967  21.2796  37.5117 H              1 RES1               0.0000
     25 H25        251.5110  21.1288  35.8057 H              1 RES1               0.0000
     26 H26        249.8380  21.4054  36.2850 H              1 RES1               0.0000
     27 H27        248.7810  14.6728  37.2273 H              1 RES1               0.0000
     28 H28        250.9276  14.4877  33.5479 H              1 RES1               0.0000
     29 H29        249.7922  13.3450  35.4131 H              1 RES1               0.0000
@<TRIPOS>BOND
    1    1    2 1     
    2    1    3 1     
    3    1    4 1     
    4    1    5 1     
    5    2    6 ar    
    6    2    7 ar    
    7    3    8 1     
    8    3    9 2     
    9    4   10 1     
   10    4   11 2     
   11    5   12 1     
   12    5   18 1     
   13    5   19 1     
   14    6   13 ar    
   15    6   20 1     
   16    7   14 ar    
   17    7   21 1     
   18    8   15 1     
   19    8   22 1     
   20   10   15 1     
   21   10   23 1     
   22   12   24 1     
   23   12   25 1     
   24   12   26 1     
   25   13   16 ar    
   26   13   27 1     
   27   14   16 ar    
   28   14   28 1     
   29   15   17 2     
   30   16   29 1     
@<TRIPOS>SUBSTRUCTURE
      1 RES1           1
@<TRIPOS>SET
DONOR_HYDROGENS      STATIC     ATOMS    <user>   **** ""
2 22 23
ATOM$RED        STATIC     ATOMS    COLORGROUP SYSTEM
2 22 23
@<TRIPOS>COMMENT
> <Gold.Version>
2022.3.0

> <Gold.Id.Protein>
unknown|4d1n_clean|pdb

> <Gold.Protein.RotatedTorsions>
[ 17004 16968 16967 16965 ] final   97.90 input   59.98 | X-H torsion
[ 18512 18476 18475 18473 ] final   62.80 input   59.98 | X-H torsion
[ 18572 18537 18538 18539 ] final  -45.38 input   87.04 | X-H torsion
[ 18719 18692 18693 18694 ] final  -96.76 input  124.02 | X-H torsion
[ 18790 18749 18750 18751 ] final  -83.56 input   91.60 | X-H torsion
[ 19033 19013 19014 19015 ] final  100.91 input  122.46 | X-H torsion
[ 17200 17180 17181 17182 ] final  148.56 input   47.21 | X-H torsion
[ 17260 17226 17227 17228 ] final  143.74 input  117.85 | X-H torsion
[ 18826 18813 18814 18815 ] final  -70.40 input  116.01 | X-H torsion
[ 18976 18926 18927 18928 ] final  111.79 input  102.20 | X-H torsion
[ 19112 19073 19074 19075 ] final  -22.37 input   89.03 | X-H torsion
[ 18504 18465 18466 18467 ] final  -15.81 input  102.26 | X-H torsion
[ 18300 18279 18280 18281 ] final   75.68 input   28.27 | X-H torsion
[ 18330 18317 18318 18319 ] final  126.55 input   50.43 | X-H torsion
[ 18419 18375 18376 18377 ] final   59.22 input   32.92 | X-H torsion
[ 7530 7517 7518 7519 ] final -153.79 input   89.56 | X-H torsion
[ 7496 7462 7463 7464 ] final  120.25 input  103.52 | X-H torsion
[ 18606 18593 18594 18595 ] final  100.49 input  124.70 | X-H torsion
[ 10120 10100 10099 10096 ] final  118.28 input   60.00 | X-H torsion
[ 18304 18284 18283 18280 ] final  -51.89 input   60.01 | X-H torsion
[ 11501 11468 11469 11470 ] final -149.64 input   45.03 | X-H torsion
[ 18664 18636 18634 18631 ] final  174.90 input   60.01 | X-H torsion
[ 18884 18850 18851 18852 ] final  -38.13 input   84.91 | X-H torsion
[ 17308 17287 17288 17289 ] final  -41.38 input   50.16 | X-H torsion
[ 22456 22422 22423 22424 ] final  101.35 input   54.84 | X-H torsion
[ 11440 11420 11419 11416 ] final -138.64 input   60.01 | X-H torsion
[ 11650 11609 11610 11611 ] final  -58.41 input   61.57 | X-H torsion
[ 11832 11793 11794 11795 ] final   -2.14 input   91.14 | X-H torsion
[ 16996 16957 16958 16959 ] final   35.07 input   91.87 | X-H torsion
[ 27198 18540 18539 18538 ] final  -32.62 input   -0.00 | X-H torsion
[ 27200 18633 18632 18631 ] final   70.15 input    0.00 | X-H torsion
[ 27203 18695 18694 18693 ] final   39.98 input   -0.00 | X-H torsion
[ 27222 17133 17132 17131 ] final  -92.34 input    0.00 | X-H torsion
[ 27226 11612 11611 11610 ] final   18.91 input    0.00 | X-H torsion
[ 27230 17060 17059 17058 ] final -137.22 input   -0.00 | X-H torsion
[ 27232 18752 18751 18750 ] final -148.56 input    0.00 | X-H torsion
[ 27234 18596 18595 18594 ] final   20.16 input   -0.00 | X-H torsion
[ 27238 18929 18928 18927 ] final -123.32 input   -0.00 | X-H torsion
[ 27240 19016 19015 19014 ] final  -48.69 input   -0.00 | X-H torsion
[ 27243 11418 11417 11416 ] final  -33.25 input    0.00 | X-H torsion
[ 27245 17183 17182 17181 ] final  119.74 input   -0.00 | X-H torsion
[ 27247 18378 18377 18376 ] final  -77.69 input   -0.00 | X-H torsion
[ 27250 18217 18216 18215 ] final   25.70 input    0.00 | X-H torsion
[ 27254 17229 17228 17227 ] final   98.73 input   -0.00 | X-H torsion
[ 27259 18320 18319 18318 ] final  -47.77 input    0.00 | X-H torsion
[ 27261 18468 18467 18466 ] final  -90.86 input    0.00 | X-H torsion
[ 27264 18282 18281 18280 ] final -147.48 input   -0.00 | X-H torsion
[ 27267 17020 17019 17018 ] final  112.68 input   -0.00 | X-H torsion
[ 27275 16960 16959 16958 ] final   -8.53 input    0.00 | X-H torsion

> <Gold.Protein.ActiveResidues>
 TRP414  CYS420  VAL421  GLY422  LEU460  SER462  SER482  GLN483  ILE485  ARG486 
 TYR487  ASP500  ASN503  TRP566  TYR567  GLY568  LEU569  PRO570  ALA571  VAL572 
 SER573  ASN574  PHE589  SER590  GLY591  TRP592  TYR593  MET594  GLY595  THR596 
 GLU597  ILE598  GLY599  VAL600  ARG601  ASP602  TYR603  ARG608  ILE653  VAL654 
 TRP683  PRO687  HEM750  H4B760 

> <Gold.Protein.RotatedAtoms>
  241.5962   11.4048   32.0296 H   0  0  0  0  0  0  0  0  0  0  0  0  # atno 7496 bound_to 7462
  242.2113    8.6915   31.1260 H   0  0  0  0  0  0  0  0  0  0  0  0  # atno 7530 bound_to 7517
  247.5825    1.2448   35.7939 H   0  0  0  0  0  0  0  0  0  0  0  0  # atno 10120 bound_to 10100
  254.3384   20.2437   41.8797 H   0  0  0  0  0  0  0  0  0  0  0  0  # atno 11440 bound_to 11420
  253.5899   16.3080   42.4192 H   0  0  0  0  0  0  0  0  0  0  0  0  # atno 11501 bound_to 11468
  258.0730   13.1481   41.4464 H   0  0  0  0  0  0  0  0  0  0  0  0  # atno 11650 bound_to 11609
  260.3495   18.3534   38.1632 H   0  0  0  0  0  0  0  0  0  0  0  0  # atno 11832 bound_to 11793
  259.7897   12.8846   31.6917 H   0  0  0  0  0  0  0  0  0  0  0  0  # atno 16996 bound_to 16957
  256.5997   15.4678   36.7574 H   0  0  0  0  0  0  0  0  0  0  0  0  # atno 17004 bound_to 16968
  254.3613   10.1471   38.0778 H   0  0  0  0  0  0  0  0  0  0  0  0  # atno 17200 bound_to 17180
  251.0873   11.4062   39.7206 H   0  0  0  0  0  0  0  0  0  0  0  0  # atno 17260 bound_to 17226
  250.4867   13.6298   43.4152 H   0  0  0  0  0  0  0  0  0  0  0  0  # atno 17308 bound_to 17287
  250.4345    5.7546   41.0998 H   0  0  0  0  0  0  0  0  0  0  0  0  # atno 18300 bound_to 18279
  252.0517    4.7276   40.5393 H   0  0  0  0  0  0  0  0  0  0  0  0  # atno 18304 bound_to 18284
  249.6232    6.8678   37.3539 H   0  0  0  0  0  0  0  0  0  0  0  0  # atno 18330 bound_to 18317
  249.5650    5.6059   33.4276 H   0  0  0  0  0  0  0  0  0  0  0  0  # atno 18419 bound_to 18375
  251.2375    7.1328   30.8388 H   0  0  0  0  0  0  0  0  0  0  0  0  # atno 18504 bound_to 18465
  254.3860   13.7517   34.2289 H   0  0  0  0  0  0  0  0  0  0  0  0  # atno 18512 bound_to 18476
  250.7254    9.8821   28.9385 H   0  0  0  0  0  0  0  0  0  0  0  0  # atno 18572 bound_to 18537
  249.7772   10.8180   25.1164 H   0  0  0  0  0  0  0  0  0  0  0  0  # atno 18606 bound_to 18593
  246.6178   15.1761   25.5078 H   0  0  0  0  0  0  0  0  0  0  0  0  # atno 18664 bound_to 18636
  249.5419   15.8384   26.7226 H   0  0  0  0  0  0  0  0  0  0  0  0  # atno 18719 bound_to 18692
  252.1423   16.3957   28.4361 H   0  0  0  0  0  0  0  0  0  0  0  0  # atno 18790 bound_to 18749
  254.3593   17.0068   26.2410 H   0  0  0  0  0  0  0  0  0  0  0  0  # atno 18826 bound_to 18813
  253.0803   18.7720   24.9503 H   0  0  0  0  0  0  0  0  0  0  0  0  # atno 18884 bound_to 18850
  250.9234   19.3099   26.8317 H   0  0  0  0  0  0  0  0  0  0  0  0  # atno 18976 bound_to 18926
  253.1734   19.4284   28.5579 H   0  0  0  0  0  0  0  0  0  0  0  0  # atno 19033 bound_to 19013
  254.9753   21.5378   27.8938 H   0  0  0  0  0  0  0  0  0  0  0  0  # atno 19112 bound_to 19073
  250.4327    6.5444   26.7466 H   0  0  0  0  0  0  0  0  0  0  0  0  # atno 22456 bound_to 22422
  255.6275   14.7867   35.6441 LP  0  0  0  0  0  0  0  0  0  0  0  0  # atno 27193 bound_to 16968
  256.5437   16.0799   35.2506 LP  0  0  0  0  0  0  0  0  0  0  0  0  # atno 27194 bound_to 16968
  255.0017   14.5841   32.9739 LP  0  0  0  0  0  0  0  0  0  0  0  0  # atno 27195 bound_to 18476
  255.8826   13.4102   33.6899 LP  0  0  0  0  0  0  0  0  0  0  0  0  # atno 27196 bound_to 18476
  249.1179    9.9589   29.6249 LP  0  0  0  0  0  0  0  0  0  0  0  0  # atno 27197 bound_to 18537
  249.9182   12.7470   28.3507 LP  0  0  0  0  0  0  0  0  0  0  0  0  # atno 27198 bound_to 18540
  251.4337   12.7512   27.5122 LP  0  0  0  0  0  0  0  0  0  0  0  0  # atno 27199 bound_to 18540
  249.7530   17.9182   26.1802 LP  0  0  0  0  0  0  0  0  0  0  0  0  # atno 27200 bound_to 18633
  251.3834   17.5001   26.5890 LP  0  0  0  0  0  0  0  0  0  0  0  0  # atno 27201 bound_to 18633
  250.3329   14.3715   27.2264 LP  0  0  0  0  0  0  0  0  0  0  0  0  # atno 27202 bound_to 18692
  251.7479   17.7040   30.1676 LP  0  0  0  0  0  0  0  0  0  0  0  0  # atno 27203 bound_to 18695
  252.7628   18.2082   28.8577 LP  0  0  0  0  0  0  0  0  0  0  0  0  # atno 27204 bound_to 18695
  252.4974   14.8873   27.6201 LP  0  0  0  0  0  0  0  0  0  0  0  0  # atno 27209 bound_to 18749
  252.7519   21.0674   28.9976 LP  0  0  0  0  0  0  0  0  0  0  0  0  # atno 27210 bound_to 19013
  251.4234    9.3125   37.3921 LP  0  0  0  0  0  0  0  0  0  0  0  0  # atno 27222 bound_to 17133
  252.7162    8.1684   37.5330 LP  0  0  0  0  0  0  0  0  0  0  0  0  # atno 27223 bound_to 17133
  253.1590   11.4122   38.1933 LP  0  0  0  0  0  0  0  0  0  0  0  0  # atno 27224 bound_to 17180
  252.2714   11.1515   40.9853 LP  0  0  0  0  0  0  0  0  0  0  0  0  # atno 27225 bound_to 17226
  257.3660   13.3706   38.4440 LP  0  0  0  0  0  0  0  0  0  0  0  0  # atno 27226 bound_to 11612
  257.9358   14.8028   37.6539 LP  0  0  0  0  0  0  0  0  0  0  0  0  # atno 27227 bound_to 11612
  256.0769   10.3123   37.5818 LP  0  0  0  0  0  0  0  0  0  0  0  0  # atno 27230 bound_to 17060
  257.4799   10.1874   36.5739 LP  0  0  0  0  0  0  0  0  0  0  0  0  # atno 27231 bound_to 17060
  254.5525   18.9729   26.0575 LP  0  0  0  0  0  0  0  0  0  0  0  0  # atno 27232 bound_to 18752
  255.5564   18.4141   27.3536 LP  0  0  0  0  0  0  0  0  0  0  0  0  # atno 27233 bound_to 18752
  253.2633   13.8836   25.0652 LP  0  0  0  0  0  0  0  0  0  0  0  0  # atno 27234 bound_to 18596
  252.2345   15.1683   25.6047 LP  0  0  0  0  0  0  0  0  0  0  0  0  # atno 27235 bound_to 18596
  253.3793   15.7808   25.4657 LP  0  0  0  0  0  0  0  0  0  0  0  0  # atno 27236 bound_to 18813
  251.6656   20.6270   25.9614 LP  0  0  0  0  0  0  0  0  0  0  0  0  # atno 27237 bound_to 18926
  253.9652   22.7854   28.2591 LP  0  0  0  0  0  0  0  0  0  0  0  0  # atno 27238 bound_to 18929
  252.5859   23.1953   29.2232 LP  0  0  0  0  0  0  0  0  0  0  0  0  # atno 27239 bound_to 18929
  256.0381   22.7872   29.8700 LP  0  0  0  0  0  0  0  0  0  0  0  0  # atno 27240 bound_to 19016
  257.4037   22.0876   29.0663 LP  0  0  0  0  0  0  0  0  0  0  0  0  # atno 27241 bound_to 19016
  255.7352   19.9777   27.6746 LP  0  0  0  0  0  0  0  0  0  0  0  0  # atno 27242 bound_to 19073
  251.5967   15.9189   43.2663 LP  0  0  0  0  0  0  0  0  0  0  0  0  # atno 27243 bound_to 11418
  252.1273   15.4326   41.6909 LP  0  0  0  0  0  0  0  0  0  0  0  0  # atno 27244 bound_to 11418
  253.7289   12.8600   41.3906 LP  0  0  0  0  0  0  0  0  0  0  0  0  # atno 27245 bound_to 17183
  254.0104   11.3845   42.2531 LP  0  0  0  0  0  0  0  0  0  0  0  0  # atno 27246 bound_to 17183
  248.9963    7.2141   31.4734 LP  0  0  0  0  0  0  0  0  0  0  0  0  # atno 27247 bound_to 18378
  249.4609    8.5218   32.5098 LP  0  0  0  0  0  0  0  0  0  0  0  0  # atno 27248 bound_to 18378
  252.5314    7.9630   31.6743 LP  0  0  0  0  0  0  0  0  0  0  0  0  # atno 27249 bound_to 18465
  250.7518    9.3676   41.7523 LP  0  0  0  0  0  0  0  0  0  0  0  0  # atno 27250 bound_to 18217
  250.4984    8.9862   40.0819 LP  0  0  0  0  0  0  0  0  0  0  0  0  # atno 27251 bound_to 18217
  251.1068   10.5423   43.4567 LP  0  0  0  0  0  0  0  0  0  0  0  0  # atno 27254 bound_to 17229
  249.4904   11.1637   43.4211 LP  0  0  0  0  0  0  0  0  0  0  0  0  # atno 27255 bound_to 17229
  249.6075    7.2641   40.8040 LP  0  0  0  0  0  0  0  0  0  0  0  0  # atno 27256 bound_to 18279
  251.1815    6.0772   37.4233 LP  0  0  0  0  0  0  0  0  0  0  0  0  # atno 27257 bound_to 18317
  250.8045    5.8785   34.6338 LP  0  0  0  0  0  0  0  0  0  0  0  0  # atno 27258 bound_to 18375
  252.5362    5.2748   35.8967 LP  0  0  0  0  0  0  0  0  0  0  0  0  # atno 27259 bound_to 18320
  252.5225    4.3913   34.4069 LP  0  0  0  0  0  0  0  0  0  0  0  0  # atno 27260 bound_to 18320
  251.3088    8.1575   27.4869 LP  0  0  0  0  0  0  0  0  0  0  0  0  # atno 27261 bound_to 18468
  250.1747    7.2537   28.4341 LP  0  0  0  0  0  0  0  0  0  0  0  0  # atno 27262 bound_to 18468
  241.3047    8.3253   32.5749 LP  0  0  0  0  0  0  0  0  0  0  0  0  # atno 27263 bound_to 7517
  249.9277    3.8592   38.0392 LP  0  0  0  0  0  0  0  0  0  0  0  0  # atno 27264 bound_to 18282
  249.5155    4.5459   39.5749 LP  0  0  0  0  0  0  0  0  0  0  0  0  # atno 27265 bound_to 18282
  240.6322   10.2682   32.9506 LP  0  0  0  0  0  0  0  0  0  0  0  0  # atno 27266 bound_to 7462
  256.0215    6.7040   32.9352 LP  0  0  0  0  0  0  0  0  0  0  0  0  # atno 27267 bound_to 17020
  255.9147    8.1938   32.0581 LP  0  0  0  0  0  0  0  0  0  0  0  0  # atno 27268 bound_to 17020
  250.4886   11.1195   26.6889 LP  0  0  0  0  0  0  0  0  0  0  0  0  # atno 27269 bound_to 18593
  248.9476    2.1195   35.9360 LP  0  0  0  0  0  0  0  0  0  0  0  0  # atno 27270 bound_to 10100
  247.5006    2.7996   36.2679 LP  0  0  0  0  0  0  0  0  0  0  0  0  # atno 27271 bound_to 10100
  253.5863    4.7953   40.0027 LP  0  0  0  0  0  0  0  0  0  0  0  0  # atno 27272 bound_to 18284
  252.3774    4.3964   38.9799 LP  0  0  0  0  0  0  0  0  0  0  0  0  # atno 27273 bound_to 18284
  255.3322   16.4836   42.4689 LP  0  0  0  0  0  0  0  0  0  0  0  0  # atno 27274 bound_to 11468
  258.3245   11.8415   31.7824 LP  0  0  0  0  0  0  0  0  0  0  0  0  # atno 27275 bound_to 16960
  257.7491   10.2324   31.4999 LP  0  0  0  0  0  0  0  0  0  0  0  0  # atno 27276 bound_to 16960

> <Gold.Score>
     Fitness  S(hb_ext) S(vdw_ext)  S(hb_int)    S(int)      intcor
     33.30       6.36      20.61       0.00      -1.40      -0.83

> <Gold.Goldscore.Fitness>
33.2988

> <Gold.Goldscore.Internal.Vdw>
-1.7859

> <Gold.Goldscore.Internal.Torsion>
-0.4505

> <Gold.Goldscore.External.Vdw>
20.6122

> <Gold.Goldscore.Internal.HBond>
0.0000

> <Gold.Goldscore.External.HBond>
6.3616

> <Gold.Goldscore.Internal.Correction>
-0.8319

> <Gold.Goldscore.Hbonds>
donor molecule, donor type, donor heavy atom, donor atom, acceptor molecule, acceptor atom, score
      P1  H 19355 19405       L1     9  0.03
      L1  H     8    22       P1 19019  0.03
      L1  H    10    23       P1 27122  1.00

> <Gold.Goldscore.Internal.Vdw.Weighted>
-1.7859

> <Gold.Goldscore.Internal.Torsion.Weighted>
-0.4505

> <Gold.Goldscore.External.Vdw.Weighted>
28.3418

> <Gold.Goldscore.Internal.HBond.Weighted>
0.0000

> <Gold.Goldscore.External.HBond.Weighted>
6.3616

> <Gold.Goldscore.Internal.Correction.Weighted>
-0.8319

> <Gold.Rescore>
     Score     S(PLP)   S(hbond)     S(cho)   S(metal)  DE(clash)   DE(tors)     intcor
     17.59     -17.09       0.68       0.00       0.00       1.09       0.24       ----

> <Gold.PLP.Fitness>
17.5891

> <Gold.PLP.PLP>
-17.0925

> <Gold.PLP.part.hbond>
-4.4486

> <Gold.PLP.part.metal>
0.0000

> <Gold.PLP.part.buried>
-1.5568

> <Gold.PLP.part.nonpolar>
-14.2032

> <Gold.PLP.part.repulsive>
1.4517

> <Gold.PLP.ligand.clash>
1.0856

> <Gold.PLP.ligand.torsion>
0.2359

> <Gold.PLP.Chemscore.Hbond>
0.6847

> <Gold.PLP.Chemscore.CHOScore>
0.0000

> <Gold.PLP.Chemscore.Metal>
0.0000

> <Gold.Chemscore.Hbonds>
donor molecule, donor type, donor heavy atom, donor atom, acceptor molecule, acceptor atom, score
      L1  H     8    22       P1 19019  0.01
      L1  H    10    23       P1 27122  0.39
      P1  H 19355 19405       L1     9  0.63

> <Gold.PLP.Chemscore.Internal.Correction>
   9.000000E+99

#       Name:                CT1002167954
#       Creating user name   hitesit
#       Creation time:       Sun Apr 16 23:06:27 2023


#       File generated by GOLD software.
#

@<TRIPOS>MOLECULE
CT1002167954|ligand_prepared|mol2|1|dock10
    29    30     1
SMALL
NO_CHARGES


@<TRIPOS>ATOM
      1 C1         249.9737  18.9154  35.4795 C.3            1 RES1               0.0000
      2 C2         249.8694  17.3808  35.5931 C.ar           1 RES1               0.0000
      3 C3         251.0517  19.1955  34.4366 C.2            1 RES1               0.0000
      4 C4         248.5856  19.4095  35.0877 C.2            1 RES1               0.0000
      5 C5         250.3744  19.6138  36.7998 C.3            1 RES1               0.0000
      6 C6         249.1602  16.7941  36.6369 C.ar           1 RES1               0.0000
      7 C7         250.4737  16.5404  34.6619 C.ar           1 RES1               0.0000
      8 N8         250.6461  19.6366  33.2115 N.am           1 RES1               0.0000
      9 O9         252.2367  18.9947  34.6726 O.2            1 RES1               0.0000
     10 N10        248.4347  19.9899  33.8555 N.am           1 RES1               0.0000
     11 O11        247.6176  19.2865  35.8281 O.2            1 RES1               0.0000
     12 C12        250.6903  21.0926  36.6399 C.3            1 RES1               0.0000
     13 C13        249.0563  15.4172  36.7444 C.ar           1 RES1               0.0000
     14 C14        250.3687  15.1636  34.7713 C.ar           1 RES1               0.0000
     15 C15        249.3956  20.0980  32.8874 C.2            1 RES1               0.0000
     16 C16        249.6600  14.6011  35.8115 C.ar           1 RES1               0.0000
     17 O17        249.1693  20.5838  31.7829 O.2            1 RES1               0.0000
     18 H18        249.5545  19.5038  37.5204 H              1 RES1               0.0000
     19 H19        251.2550  19.1075  37.2140 H              1 RES1               0.0000
     20 H20        248.6805  17.4202  37.3819 H              1 RES1               0.0000
     21 H21        251.0372  16.9607  33.8358 H              1 RES1               0.0000
     22 H22        251.3364  19.6220  32.4675 H              1 RES1               0.0000
     23 H23        247.5216  20.3772  33.6401 H              1 RES1               0.0000
     24 H24        250.9653  21.5339  37.5956 H              1 RES1               0.0000
     25 H25        251.5181  21.2377  35.9489 H              1 RES1               0.0000
     26 H26        249.8277  21.6316  36.2534 H              1 RES1               0.0000
     27 H27        248.4986  14.9794  37.5656 H              1 RES1               0.0000
     28 H28        250.8459  14.5251  34.0352 H              1 RES1               0.0000
     29 H29        249.5781  13.5224  35.8957 H              1 RES1               0.0000
@<TRIPOS>BOND
    1    1    2 1     
    2    1    3 1     
    3    1    4 1     
    4    1    5 1     
    5    2    6 ar    
    6    2    7 ar    
    7    3    8 1     
    8    3    9 2     
    9    4   10 1     
   10    4   11 2     
   11    5   12 1     
   12    5   18 1     
   13    5   19 1     
   14    6   13 ar    
   15    6   20 1     
   16    7   14 ar    
   17    7   21 1     
   18    8   15 1     
   19    8   22 1     
   20   10   15 1     
   21   10   23 1     
   22   12   24 1     
   23   12   25 1     
   24   12   26 1     
   25   13   16 ar    
   26   13   27 1     
   27   14   16 ar    
   28   14   28 1     
   29   15   17 2     
   30   16   29 1     
@<TRIPOS>SUBSTRUCTURE
      1 RES1           1
@<TRIPOS>SET
DONOR_HYDROGENS      STATIC     ATOMS    <user>   **** ""
2 22 23
ATOM$RED        STATIC     ATOMS    COLORGROUP SYSTEM
2 22 23
@<TRIPOS>COMMENT
> <Gold.Version>
2022.3.0

> <Gold.Id.Protein>
unknown|4d1n_clean|pdb

> <Gold.Protein.RotatedTorsions>
[ 17004 16968 16967 16965 ] final -150.10 input   59.98 | X-H torsion
[ 18512 18476 18475 18473 ] final  -21.98 input   59.98 | X-H torsion
[ 18572 18537 18538 18539 ] final   -2.27 input   87.04 | X-H torsion
[ 18719 18692 18693 18694 ] final  139.76 input  124.02 | X-H torsion
[ 18790 18749 18750 18751 ] final  107.10 input   91.60 | X-H torsion
[ 19033 19013 19014 19015 ] final -119.24 input  122.46 | X-H torsion
[ 17200 17180 17181 17182 ] final  147.11 input   47.21 | X-H torsion
[ 17260 17226 17227 17228 ] final -172.96 input  117.85 | X-H torsion
[ 18826 18813 18814 18815 ] final  169.58 input  116.01 | X-H torsion
[ 18976 18926 18927 18928 ] final  147.27 input  102.20 | X-H torsion
[ 19112 19073 19074 19075 ] final  125.62 input   89.03 | X-H torsion
[ 18504 18465 18466 18467 ] final  138.82 input  102.26 | X-H torsion
[ 18300 18279 18280 18281 ] final   15.34 input   28.27 | X-H torsion
[ 18330 18317 18318 18319 ] final -127.08 input   50.43 | X-H torsion
[ 18419 18375 18376 18377 ] final  166.45 input   32.92 | X-H torsion
[ 7530 7517 7518 7519 ] final -101.52 input   89.56 | X-H torsion
[ 7496 7462 7463 7464 ] final  -80.73 input  103.52 | X-H torsion
[ 18606 18593 18594 18595 ] final  172.80 input  124.70 | X-H torsion
[ 10120 10100 10099 10096 ] final  -72.63 input   60.00 | X-H torsion
[ 18304 18284 18283 18280 ] final   41.63 input   60.01 | X-H torsion
[ 11501 11468 11469 11470 ] final   53.36 input   45.03 | X-H torsion
[ 18664 18636 18634 18631 ] final  -67.98 input   60.01 | X-H torsion
[ 18884 18850 18851 18852 ] final -102.10 input   84.91 | X-H torsion
[ 17308 17287 17288 17289 ] final   78.23 input   50.16 | X-H torsion
[ 22456 22422 22423 22424 ] final   39.24 input   54.84 | X-H torsion
[ 11440 11420 11419 11416 ] final   31.60 input   60.01 | X-H torsion
[ 11650 11609 11610 11611 ] final -108.81 input   61.57 | X-H torsion
[ 11832 11793 11794 11795 ] final  -12.60 input   91.14 | X-H torsion
[ 16996 16957 16958 16959 ] final    2.88 input   91.87 | X-H torsion
[ 27198 18540 18539 18538 ] final -142.25 input   -0.00 | X-H torsion
[ 27200 18633 18632 18631 ] final   55.64 input    0.00 | X-H torsion
[ 27203 18695 18694 18693 ] final  -96.25 input   -0.00 | X-H torsion
[ 27222 17133 17132 17131 ] final   62.65 input    0.00 | X-H torsion
[ 27226 11612 11611 11610 ] final   21.80 input    0.00 | X-H torsion
[ 27230 17060 17059 17058 ] final  170.93 input   -0.00 | X-H torsion
[ 27232 18752 18751 18750 ] final  -69.61 input    0.00 | X-H torsion
[ 27234 18596 18595 18594 ] final  131.61 input   -0.00 | X-H torsion
[ 27238 18929 18928 18927 ] final  170.76 input   -0.00 | X-H torsion
[ 27240 19016 19015 19014 ] final  -94.99 input   -0.00 | X-H torsion
[ 27243 11418 11417 11416 ] final -179.40 input    0.00 | X-H torsion
[ 27245 17183 17182 17181 ] final  175.09 input   -0.00 | X-H torsion
[ 27247 18378 18377 18376 ] final -163.85 input   -0.00 | X-H torsion
[ 27250 18217 18216 18215 ] final  132.98 input    0.00 | X-H torsion
[ 27254 17229 17228 17227 ] final -101.39 input   -0.00 | X-H torsion
[ 27259 18320 18319 18318 ] final  108.80 input    0.00 | X-H torsion
[ 27261 18468 18467 18466 ] final  108.44 input    0.00 | X-H torsion
[ 27264 18282 18281 18280 ] final  111.48 input   -0.00 | X-H torsion
[ 27267 17020 17019 17018 ] final -112.15 input   -0.00 | X-H torsion
[ 27275 16960 16959 16958 ] final  -67.65 input    0.00 | X-H torsion

> <Gold.Protein.ActiveResidues>
 TRP414  CYS420  VAL421  GLY422  LEU460  SER462  SER482  GLN483  ILE485  ARG486 
 TYR487  ASP500  ASN503  TRP566  TYR567  GLY568  LEU569  PRO570  ALA571  VAL572 
 SER573  ASN574  PHE589  SER590  GLY591  TRP592  TYR593  MET594  GLY595  THR596 
 GLU597  ILE598  GLY599  VAL600  ARG601  ASP602  TYR603  ARG608  ILE653  VAL654 
 TRP683  PRO687  HEM750  H4B760 

> <Gold.Protein.RotatedAtoms>
  240.3824   10.4539   32.8686 H   0  0  0  0  0  0  0  0  0  0  0  0  # atno 7496 bound_to 7462
  241.5144    8.3591   31.0200 H   0  0  0  0  0  0  0  0  0  0  0  0  # atno 7530 bound_to 7517
  248.2715    2.9191   36.2397 H   0  0  0  0  0  0  0  0  0  0  0  0  # atno 10120 bound_to 10100
  254.5768   18.4235   41.5452 H   0  0  0  0  0  0  0  0  0  0  0  0  # atno 11440 bound_to 11420
  255.2940   16.5818   42.1331 H   0  0  0  0  0  0  0  0  0  0  0  0  # atno 11501 bound_to 11468
  258.5103   12.6066   41.7471 H   0  0  0  0  0  0  0  0  0  0  0  0  # atno 11650 bound_to 11609
  260.4324   18.2686   38.2753 H   0  0  0  0  0  0  0  0  0  0  0  0  # atno 11832 bound_to 11793
  259.9261   12.6162   31.3075 H   0  0  0  0  0  0  0  0  0  0  0  0  # atno 16996 bound_to 16957
  256.6186   16.1222   35.3496 H   0  0  0  0  0  0  0  0  0  0  0  0  # atno 17004 bound_to 16968
  254.3762   10.1608   38.0873 H   0  0  0  0  0  0  0  0  0  0  0  0  # atno 17200 bound_to 17180
  251.6208   11.7806   39.6325 H   0  0  0  0  0  0  0  0  0  0  0  0  # atno 17260 bound_to 17226
  251.9447   14.0055   43.1912 H   0  0  0  0  0  0  0  0  0  0  0  0  # atno 17308 bound_to 17287
  249.6576    5.7607   40.6732 H   0  0  0  0  0  0  0  0  0  0  0  0  # atno 18300 bound_to 18279
  252.0166    4.4078   39.2141 H   0  0  0  0  0  0  0  0  0  0  0  0  # atno 18304 bound_to 18284
  250.3256    5.7913   37.9565 H   0  0  0  0  0  0  0  0  0  0  0  0  # atno 18330 bound_to 18317
  250.6311    4.9755   34.1500 H   0  0  0  0  0  0  0  0  0  0  0  0  # atno 18419 bound_to 18375
  252.7274    7.8458   31.3636 H   0  0  0  0  0  0  0  0  0  0  0  0  # atno 18504 bound_to 18465
  254.5213   14.5692   33.2773 H   0  0  0  0  0  0  0  0  0  0  0  0  # atno 18512 bound_to 18476
  250.5802   10.4850   29.1423 H   0  0  0  0  0  0  0  0  0  0  0  0  # atno 18572 bound_to 18537
  250.5107   10.2285   25.5899 H   0  0  0  0  0  0  0  0  0  0  0  0  # atno 18606 bound_to 18593
  247.6728   13.9781   25.4634 H   0  0  0  0  0  0  0  0  0  0  0  0  # atno 18664 bound_to 18636
  249.5295   14.4574   27.3917 H   0  0  0  0  0  0  0  0  0  0  0  0  # atno 18719 bound_to 18692
  252.5625   14.8114   27.7545 H   0  0  0  0  0  0  0  0  0  0  0  0  # atno 18790 bound_to 18749
  254.2467   15.6638   25.4921 H   0  0  0  0  0  0  0  0  0  0  0  0  # atno 18826 bound_to 18813
  253.0351   18.6524   24.0229 H   0  0  0  0  0  0  0  0  0  0  0  0  # atno 18884 bound_to 18850
  250.5319   19.6104   26.6261 H   0  0  0  0  0  0  0  0  0  0  0  0  # atno 18976 bound_to 18926
  252.5855   20.7065   29.4479 H   0  0  0  0  0  0  0  0  0  0  0  0  # atno 19033 bound_to 19013
  255.4076   19.9910   27.3198 H   0  0  0  0  0  0  0  0  0  0  0  0  # atno 19112 bound_to 19073
  250.7119    7.2702   26.2671 H   0  0  0  0  0  0  0  0  0  0  0  0  # atno 22456 bound_to 22422
  256.5231   15.3656   36.7872 LP  0  0  0  0  0  0  0  0  0  0  0  0  # atno 27193 bound_to 16968
  255.6291   14.8421   35.5248 LP  0  0  0  0  0  0  0  0  0  0  0  0  # atno 27194 bound_to 16968
  255.9438   13.7796   33.2598 LP  0  0  0  0  0  0  0  0  0  0  0  0  # atno 27195 bound_to 18476
  254.8042   13.3908   34.3629 LP  0  0  0  0  0  0  0  0  0  0  0  0  # atno 27196 bound_to 18476
  249.2587    9.3744   29.4274 LP  0  0  0  0  0  0  0  0  0  0  0  0  # atno 27197 bound_to 18537
  250.6244   13.2681   27.2401 LP  0  0  0  0  0  0  0  0  0  0  0  0  # atno 27198 bound_to 18540
  250.7276   12.2301   28.6228 LP  0  0  0  0  0  0  0  0  0  0  0  0  # atno 27199 bound_to 18540
  249.8308   17.9077   25.9762 LP  0  0  0  0  0  0  0  0  0  0  0  0  # atno 27200 bound_to 18633
  251.3056   17.5106   26.7931 LP  0  0  0  0  0  0  0  0  0  0  0  0  # atno 27201 bound_to 18633
  250.3452   15.7502   26.5584 LP  0  0  0  0  0  0  0  0  0  0  0  0  # atno 27202 bound_to 18692
  252.1536   18.4078   28.7808 LP  0  0  0  0  0  0  0  0  0  0  0  0  # atno 27203 bound_to 18695
  252.3570   17.5044   30.2445 LP  0  0  0  0  0  0  0  0  0  0  0  0  # atno 27204 bound_to 18695
  252.0921   16.4153   28.2775 LP  0  0  0  0  0  0  0  0  0  0  0  0  # atno 27209 bound_to 18749
  253.3239   19.8238   28.1316 LP  0  0  0  0  0  0  0  0  0  0  0  0  # atno 27210 bound_to 19013
  252.6791    8.2036   37.1615 LP  0  0  0  0  0  0  0  0  0  0  0  0  # atno 27222 bound_to 17133
  251.4605    9.2772   37.7636 LP  0  0  0  0  0  0  0  0  0  0  0  0  # atno 27223 bound_to 17133
  253.1445   11.3989   38.1841 LP  0  0  0  0  0  0  0  0  0  0  0  0  # atno 27224 bound_to 17180
  251.7571   10.7905   41.0703 LP  0  0  0  0  0  0  0  0  0  0  0  0  # atno 27225 bound_to 17226
  257.3443   13.3961   38.4721 LP  0  0  0  0  0  0  0  0  0  0  0  0  # atno 27226 bound_to 11612
  257.9574   14.7773   37.6258 LP  0  0  0  0  0  0  0  0  0  0  0  0  # atno 27227 bound_to 11612
  256.1328   10.8249   37.0274 LP  0  0  0  0  0  0  0  0  0  0  0  0  # atno 27230 bound_to 17060
  257.4239    9.6748   37.1283 LP  0  0  0  0  0  0  0  0  0  0  0  0  # atno 27231 bound_to 17060
  254.3571   18.9655   27.1412 LP  0  0  0  0  0  0  0  0  0  0  0  0  # atno 27232 bound_to 18752
  255.7517   18.4214   26.2700 LP  0  0  0  0  0  0  0  0  0  0  0  0  # atno 27233 bound_to 18752
  252.4914   15.0239   24.6749 LP  0  0  0  0  0  0  0  0  0  0  0  0  # atno 27234 bound_to 18596
  253.0065   14.0280   25.9951 LP  0  0  0  0  0  0  0  0  0  0  0  0  # atno 27235 bound_to 18596
  253.4882   17.0790   26.1896 LP  0  0  0  0  0  0  0  0  0  0  0  0  # atno 27236 bound_to 18813
  252.0524   20.3301   26.1646 LP  0  0  0  0  0  0  0  0  0  0  0  0  # atno 27237 bound_to 18926
  253.9551   22.7087   29.1982 LP  0  0  0  0  0  0  0  0  0  0  0  0  # atno 27238 bound_to 18929
  252.5960   23.2720   28.2841 LP  0  0  0  0  0  0  0  0  0  0  0  0  # atno 27239 bound_to 18929
  256.1485   23.0502   29.2516 LP  0  0  0  0  0  0  0  0  0  0  0  0  # atno 27240 bound_to 19016
  257.2933   21.8246   29.6847 LP  0  0  0  0  0  0  0  0  0  0  0  0  # atno 27241 bound_to 19016
  255.3152   21.4805   28.2323 LP  0  0  0  0  0  0  0  0  0  0  0  0  # atno 27242 bound_to 19073
  252.2477   15.0595   42.0080 LP  0  0  0  0  0  0  0  0  0  0  0  0  # atno 27243 bound_to 11418
  251.4763   16.2920   42.9492 LP  0  0  0  0  0  0  0  0  0  0  0  0  # atno 27244 bound_to 11418
  253.2517   12.6966   42.0175 LP  0  0  0  0  0  0  0  0  0  0  0  0  # atno 27245 bound_to 17183
  254.4876   11.5478   41.6263 LP  0  0  0  0  0  0  0  0  0  0  0  0  # atno 27246 bound_to 17183
  249.2945    8.3405   31.2689 LP  0  0  0  0  0  0  0  0  0  0  0  0  # atno 27247 bound_to 18378
  249.1628    7.3954   32.7143 LP  0  0  0  0  0  0  0  0  0  0  0  0  # atno 27248 bound_to 18378
  251.0865    7.2715   31.1653 LP  0  0  0  0  0  0  0  0  0  0  0  0  # atno 27249 bound_to 18465
  251.3780    8.8871   40.6023 LP  0  0  0  0  0  0  0  0  0  0  0  0  # atno 27250 bound_to 18217
  249.8722    9.4668   41.2319 LP  0  0  0  0  0  0  0  0  0  0  0  0  # atno 27251 bound_to 18217
  249.5698   11.2391   43.7031 LP  0  0  0  0  0  0  0  0  0  0  0  0  # atno 27254 bound_to 17229
  251.0274   10.4669   43.1747 LP  0  0  0  0  0  0  0  0  0  0  0  0  # atno 27255 bound_to 17229
  250.3692    7.2581   41.2222 LP  0  0  0  0  0  0  0  0  0  0  0  0  # atno 27256 bound_to 18279
  250.4987    7.1239   36.8374 LP  0  0  0  0  0  0  0  0  0  0  0  0  # atno 27257 bound_to 18317
  249.7746    6.4875   33.9358 LP  0  0  0  0  0  0  0  0  0  0  0  0  # atno 27258 bound_to 18375
  252.3989    4.1520   34.6330 LP  0  0  0  0  0  0  0  0  0  0  0  0  # atno 27259 bound_to 18320
  252.6598    5.5141   35.6706 LP  0  0  0  0  0  0  0  0  0  0  0  0  # atno 27260 bound_to 18320
  249.9920    7.3813   28.2480 LP  0  0  0  0  0  0  0  0  0  0  0  0  # atno 27261 bound_to 18468
  251.4915    8.0299   27.6730 LP  0  0  0  0  0  0  0  0  0  0  0  0  # atno 27262 bound_to 18468
  241.9846    8.6496   32.6783 LP  0  0  0  0  0  0  0  0  0  0  0  0  # atno 27263 bound_to 7517
  248.9090    4.4632   38.6593 LP  0  0  0  0  0  0  0  0  0  0  0  0  # atno 27264 bound_to 18282
  250.5341    3.9418   38.9547 LP  0  0  0  0  0  0  0  0  0  0  0  0  # atno 27265 bound_to 18282
  241.8004   11.1834   32.1431 LP  0  0  0  0  0  0  0  0  0  0  0  0  # atno 27266 bound_to 7462
  255.6402    8.2342   32.6574 LP  0  0  0  0  0  0  0  0  0  0  0  0  # atno 27267 bound_to 17020
  256.2960    6.6636   32.3359 LP  0  0  0  0  0  0  0  0  0  0  0  0  # atno 27268 bound_to 17020
  249.7828   11.6866   26.2333 LP  0  0  0  0  0  0  0  0  0  0  0  0  # atno 27269 bound_to 18593
  247.0964    1.8175   36.0064 LP  0  0  0  0  0  0  0  0  0  0  0  0  # atno 27270 bound_to 10100
  248.6583    1.4164   35.7488 LP  0  0  0  0  0  0  0  0  0  0  0  0  # atno 27271 bound_to 10100
  252.4240    4.8198   40.7345 LP  0  0  0  0  0  0  0  0  0  0  0  0  # atno 27272 bound_to 18284
  253.5752    4.6940   39.5832 LP  0  0  0  0  0  0  0  0  0  0  0  0  # atno 27273 bound_to 18284
  253.6925   16.2202   42.7442 LP  0  0  0  0  0  0  0  0  0  0  0  0  # atno 27274 bound_to 11468
  257.8359   11.4591   32.3701 LP  0  0  0  0  0  0  0  0  0  0  0  0  # atno 27275 bound_to 16960
  258.2376   10.6148   30.9122 LP  0  0  0  0  0  0  0  0  0  0  0  0  # atno 27276 bound_to 16960

> <Gold.Score>
     Fitness  S(hb_ext) S(vdw_ext)  S(hb_int)    S(int)      intcor
     33.09       6.63      20.30       0.00      -1.46      -0.76

> <Gold.Goldscore.Fitness>
33.0865

> <Gold.Goldscore.Internal.Vdw>
-1.7184

> <Gold.Goldscore.Internal.Torsion>
-0.5034

> <Gold.Goldscore.External.Vdw>
20.3027

> <Gold.Goldscore.Internal.HBond>
0.0000

> <Gold.Goldscore.External.HBond>
6.6336

> <Gold.Goldscore.Internal.Correction>
-0.7585

> <Gold.Goldscore.Hbonds>
donor molecule, donor type, donor heavy atom, donor atom, acceptor molecule, acceptor atom, score
      P1  H 19355 19405       L1     9  0.01
      L1  H     8    22       P1 19019  0.11
      L1  H    10    23       P1 27122  0.98

> <Gold.Goldscore.Internal.Vdw.Weighted>
-1.7184

> <Gold.Goldscore.Internal.Torsion.Weighted>
-0.5034

> <Gold.Goldscore.External.Vdw.Weighted>
27.9162

> <Gold.Goldscore.Internal.HBond.Weighted>
0.0000

> <Gold.Goldscore.External.HBond.Weighted>
6.6336

> <Gold.Goldscore.Internal.Correction.Weighted>
-0.7585

> <Gold.Rescore>
     Score     S(PLP)   S(hbond)     S(cho)   S(metal)  DE(clash)   DE(tors)     intcor
     18.61     -16.06       1.40       0.00       0.00       1.16       0.25       ----

> <Gold.PLP.Fitness>
18.6059

> <Gold.PLP.PLP>
-16.0572

> <Gold.PLP.part.hbond>
-3.3073

> <Gold.PLP.part.metal>
0.0000

> <Gold.PLP.part.buried>
-0.7406

> <Gold.PLP.part.nonpolar>
-13.7297

> <Gold.PLP.part.repulsive>
0.6736

> <Gold.PLP.ligand.clash>
1.1590

> <Gold.PLP.ligand.torsion>
0.2510

> <Gold.PLP.Chemscore.Hbond>
1.4033

> <Gold.PLP.Chemscore.CHOScore>
0.0000

> <Gold.PLP.Chemscore.Metal>
0.0000

> <Gold.Chemscore.Hbonds>
donor molecule, donor type, donor heavy atom, donor atom, acceptor molecule, acceptor atom, score
      L1  H     8    22       P1 19019  0.28
      L1  H    10    23       P1 27122  0.34
      P1  H 19355 19405       L1     9  0.18

> <Gold.PLP.Chemscore.Internal.Correction>
   9.000000E+99

#       Name:                CT1002167954
#       Creating user name   hitesit
#       Creation time:       Sun Apr 16 23:06:25 2023


#       File generated by GOLD software.
#

@<TRIPOS>MOLECULE
CT1002167954|ligand_prepared|mol2|1|dock7
    29    30     1
SMALL
NO_CHARGES


@<TRIPOS>ATOM
      1 C1         251.5561  17.4525  34.1091 C.3            1 RES1               0.0000
      2 C2         250.7472  16.2291  34.5862 C.ar           1 RES1               0.0000
      3 C3         252.1185  18.1108  35.3655 C.2            1 RES1               0.0000
      4 C4         252.6205  16.9159  33.1583 C.2            1 RES1               0.0000
      5 C5         250.7136  18.4980  33.3419 C.3            1 RES1               0.0000
      6 C6         251.2271  14.9388  34.3819 C.ar           1 RES1               0.0000
      7 C7         249.5230  16.3746  35.2332 C.ar           1 RES1               0.0000
      8 N8         253.4506  17.9600  35.6156 N.am           1 RES1               0.0000
      9 O9         251.3966  18.7195  36.1457 O.2            1 RES1               0.0000
     10 N10        253.9330  17.0250  33.5365 N.am           1 RES1               0.0000
     11 O11        252.3334  16.3845  32.0927 O.2            1 RES1               0.0000
     12 C12        249.7354  17.8887  32.3499 C.3            1 RES1               0.0000
     13 C13        250.5107  13.8342  34.8116 C.ar           1 RES1               0.0000
     14 C14        248.8080  15.2685  35.6619 C.ar           1 RES1               0.0000
     15 C15        254.3947  17.4950  34.7357 C.2            1 RES1               0.0000
     16 C16        249.3010  13.9982  35.4522 C.ar           1 RES1               0.0000
     17 O17        255.5878  17.5111  35.0243 O.2            1 RES1               0.0000
     18 H18        250.1522  19.1000  34.0670 H              1 RES1               0.0000
     19 H19        251.3916  19.1702  32.8015 H              1 RES1               0.0000
     20 H20        252.1760  14.7900  33.8774 H              1 RES1               0.0000
     21 H21        249.1152  17.3644  35.4081 H              1 RES1               0.0000
     22 H22        253.7749  18.2167  36.5426 H              1 RES1               0.0000
     23 H23        254.6306  16.7285  32.8613 H              1 RES1               0.0000
     24 H24        249.1699  18.6654  31.8392 H              1 RES1               0.0000
     25 H25        250.2619  17.3035  31.5989 H              1 RES1               0.0000
     26 H26        249.0298  17.2337  32.8568 H              1 RES1               0.0000
     27 H27        250.9023  12.8365  34.6429 H              1 RES1               0.0000
     28 H28        247.8561  15.4023  36.1651 H              1 RES1               0.0000
     29 H29        248.7401  13.1326  35.7890 H              1 RES1               0.0000
@<TRIPOS>BOND
    1    1    2 1     
    2    1    3 1     
    3    1    4 1     
    4    1    5 1     
    5    2    6 ar    
    6    2    7 ar    
    7    3    8 1     
    8    3    9 2     
    9    4   10 1     
   10    4   11 2     
   11    5   12 1     
   12    5   18 1     
   13    5   19 1     
   14    6   13 ar    
   15    6   20 1     
   16    7   14 ar    
   17    7   21 1     
   18    8   15 1     
   19    8   22 1     
   20   10   15 1     
   21   10   23 1     
   22   12   24 1     
   23   12   25 1     
   24   12   26 1     
   25   13   16 ar    
   26   13   27 1     
   27   14   16 ar    
   28   14   28 1     
   29   15   17 2     
   30   16   29 1     
@<TRIPOS>SUBSTRUCTURE
      1 RES1           1
@<TRIPOS>SET
DONOR_HYDROGENS      STATIC     ATOMS    <user>   **** ""
2 22 23
ATOM$RED        STATIC     ATOMS    COLORGROUP SYSTEM
2 22 23
@<TRIPOS>COMMENT
> <Gold.Version>
2022.3.0

> <Gold.Id.Protein>
unknown|4d1n_clean|pdb

> <Gold.Protein.RotatedTorsions>
[ 17004 16968 16967 16965 ] final -135.92 input   59.98 | X-H torsion
[ 18512 18476 18475 18473 ] final -170.14 input   59.98 | X-H torsion
[ 18572 18537 18538 18539 ] final  -23.55 input   87.04 | X-H torsion
[ 18719 18692 18693 18694 ] final  -58.52 input  124.02 | X-H torsion
[ 18790 18749 18750 18751 ] final   78.87 input   91.60 | X-H torsion
[ 19033 19013 19014 19015 ] final   -0.88 input  122.46 | X-H torsion
[ 17200 17180 17181 17182 ] final   51.23 input   47.21 | X-H torsion
[ 17260 17226 17227 17228 ] final  -12.83 input  117.85 | X-H torsion
[ 18826 18813 18814 18815 ] final  125.82 input  116.01 | X-H torsion
[ 18976 18926 18927 18928 ] final  166.86 input  102.20 | X-H torsion
[ 19112 19073 19074 19075 ] final  -76.85 input   89.03 | X-H torsion
[ 18504 18465 18466 18467 ] final   22.03 input  102.26 | X-H torsion
[ 18300 18279 18280 18281 ] final  108.50 input   28.27 | X-H torsion
[ 18330 18317 18318 18319 ] final    1.46 input   50.43 | X-H torsion
[ 18419 18375 18376 18377 ] final  151.18 input   32.92 | X-H torsion
[ 7530 7517 7518 7519 ] final   57.27 input   89.56 | X-H torsion
[ 7496 7462 7463 7464 ] final    3.67 input  103.52 | X-H torsion
[ 18606 18593 18594 18595 ] final   60.20 input  124.70 | X-H torsion
[ 10120 10100 10099 10096 ] final   92.69 input   60.00 | X-H torsion
[ 18304 18284 18283 18280 ] final -104.54 input   60.01 | X-H torsion
[ 11501 11468 11469 11470 ] final  156.40 input   45.03 | X-H torsion
[ 18664 18636 18634 18631 ] final -162.18 input   60.01 | X-H torsion
[ 18884 18850 18851 18852 ] final   69.52 input   84.91 | X-H torsion
[ 17308 17287 17288 17289 ] final  107.52 input   50.16 | X-H torsion
[ 22456 22422 22423 22424 ] final -154.46 input   54.84 | X-H torsion
[ 11440 11420 11419 11416 ] final  175.42 input   60.01 | X-H torsion
[ 11650 11609 11610 11611 ] final   -3.01 input   61.57 | X-H torsion
[ 11832 11793 11794 11795 ] final   18.02 input   91.14 | X-H torsion
[ 16996 16957 16958 16959 ] final   49.60 input   91.87 | X-H torsion
[ 27198 18540 18539 18538 ] final   77.03 input   -0.00 | X-H torsion
[ 27200 18633 18632 18631 ] final   47.60 input    0.00 | X-H torsion
[ 27203 18695 18694 18693 ] final  -90.41 input   -0.00 | X-H torsion
[ 27222 17133 17132 17131 ] final -126.97 input    0.00 | X-H torsion
[ 27226 11612 11611 11610 ] final  -66.79 input    0.00 | X-H torsion
[ 27230 17060 17059 17058 ] final -105.96 input   -0.00 | X-H torsion
[ 27232 18752 18751 18750 ] final  124.55 input    0.00 | X-H torsion
[ 27234 18596 18595 18594 ] final   52.81 input   -0.00 | X-H torsion
[ 27238 18929 18928 18927 ] final  -55.58 input   -0.00 | X-H torsion
[ 27240 19016 19015 19014 ] final -109.07 input   -0.00 | X-H torsion
[ 27243 11418 11417 11416 ] final  176.56 input    0.00 | X-H torsion
[ 27245 17183 17182 17181 ] final  -99.30 input   -0.00 | X-H torsion
[ 27247 18378 18377 18376 ] final -110.59 input   -0.00 | X-H torsion
[ 27250 18217 18216 18215 ] final  -60.83 input    0.00 | X-H torsion
[ 27254 17229 17228 17227 ] final  142.58 input   -0.00 | X-H torsion
[ 27259 18320 18319 18318 ] final  146.08 input    0.00 | X-H torsion
[ 27261 18468 18467 18466 ] final  174.44 input    0.00 | X-H torsion
[ 27264 18282 18281 18280 ] final  -99.55 input   -0.00 | X-H torsion
[ 27267 17020 17019 17018 ] final  163.35 input   -0.00 | X-H torsion
[ 27275 16960 16959 16958 ] final  -20.53 input    0.00 | X-H torsion

> <Gold.Protein.ActiveResidues>
 TRP414  CYS420  VAL421  GLY422  LEU460  SER462  SER482  GLN483  ILE485  ARG486 
 TYR487  ASP500  ASN503  TRP566  TYR567  GLY568  LEU569  PRO570  ALA571  VAL572 
 SER573  ASN574  PHE589  SER590  GLY591  TRP592  TYR593  MET594  GLY595  THR596 
 GLU597  ILE598  GLY599  VAL600  ARG601  ASP602  TYR603  ARG608  ILE653  VAL654 
 TRP683  PRO687  HEM750  H4B760 

> <Gold.Protein.RotatedAtoms>
  241.5261   10.0996   32.8030 H   0  0  0  0  0  0  0  0  0  0  0  0  # atno 7496 bound_to 7462
  241.7011    8.5101   32.7428 H   0  0  0  0  0  0  0  0  0  0  0  0  # atno 7530 bound_to 7517
  247.9829    1.1555   35.7319 H   0  0  0  0  0  0  0  0  0  0  0  0  # atno 10120 bound_to 10100
  253.8813   20.0498   41.3434 H   0  0  0  0  0  0  0  0  0  0  0  0  # atno 11440 bound_to 11420
  253.9483   16.6057   41.7566 H   0  0  0  0  0  0  0  0  0  0  0  0  # atno 11501 bound_to 11468
  257.5609   13.0748   40.8002 H   0  0  0  0  0  0  0  0  0  0  0  0  # atno 11650 bound_to 11609
  260.2223   18.4587   37.8967 H   0  0  0  0  0  0  0  0  0  0  0  0  # atno 11832 bound_to 11793
  259.8173   13.0105   31.8733 H   0  0  0  0  0  0  0  0  0  0  0  0  # atno 16996 bound_to 16957
  256.4821   16.0280   35.1886 H   0  0  0  0  0  0  0  0  0  0  0  0  # atno 17004 bound_to 16968
  254.2661   11.3989   38.5238 H   0  0  0  0  0  0  0  0  0  0  0  0  # atno 17200 bound_to 17180
  252.0169   10.9411   41.1232 H   0  0  0  0  0  0  0  0  0  0  0  0  # atno 17260 bound_to 17226
  252.1464   13.6298   43.0630 H   0  0  0  0  0  0  0  0  0  0  0  0  # atno 17308 bound_to 17287
  250.7209    6.1126   41.2949 H   0  0  0  0  0  0  0  0  0  0  0  0  # atno 18300 bound_to 18279
  252.8457    4.8754   40.7311 H   0  0  0  0  0  0  0  0  0  0  0  0  # atno 18304 bound_to 18284
  251.1272    6.7054   36.9202 H   0  0  0  0  0  0  0  0  0  0  0  0  # atno 18330 bound_to 18317
  250.4750    4.9007   33.9885 H   0  0  0  0  0  0  0  0  0  0  0  0  # atno 18419 bound_to 18375
  251.7230    7.0764   30.5340 H   0  0  0  0  0  0  0  0  0  0  0  0  # atno 18504 bound_to 18465
  255.9136   13.4750   33.5991 H   0  0  0  0  0  0  0  0  0  0  0  0  # atno 18512 bound_to 18476
  250.7080   10.2071   29.0238 H   0  0  0  0  0  0  0  0  0  0  0  0  # atno 18572 bound_to 18537
  249.5441   11.3326   25.3591 H   0  0  0  0  0  0  0  0  0  0  0  0  # atno 18606 bound_to 18593
  246.6444   14.8698   25.2986 H   0  0  0  0  0  0  0  0  0  0  0  0  # atno 18664 bound_to 18636
  250.0871   15.8528   26.5547 H   0  0  0  0  0  0  0  0  0  0  0  0  # atno 18719 bound_to 18692
  252.4572   15.0165   27.3858 H   0  0  0  0  0  0  0  0  0  0  0  0  # atno 18790 bound_to 18749
  253.5893   15.6612   25.4029 H   0  0  0  0  0  0  0  0  0  0  0  0  # atno 18826 bound_to 18813
  251.8789   18.0468   25.2075 H   0  0  0  0  0  0  0  0  0  0  0  0  # atno 18884 bound_to 18850
  250.4321   19.8432   26.4680 H   0  0  0  0  0  0  0  0  0  0  0  0  # atno 18976 bound_to 18926
  253.2581   20.7162   28.0827 H   0  0  0  0  0  0  0  0  0  0  0  0  # atno 19033 bound_to 19013
  255.5815   21.3454   28.3988 H   0  0  0  0  0  0  0  0  0  0  0  0  # atno 19112 bound_to 19073
  251.0746    5.5753   25.9710 H   0  0  0  0  0  0  0  0  0  0  0  0  # atno 22456 bound_to 22422
  256.6549   15.5499   36.7345 LP  0  0  0  0  0  0  0  0  0  0  0  0  # atno 27193 bound_to 16968
  255.6347   14.7526   35.7395 LP  0  0  0  0  0  0  0  0  0  0  0  0  # atno 27194 bound_to 16968
  254.4493   13.6698   34.2809 LP  0  0  0  0  0  0  0  0  0  0  0  0  # atno 27195 bound_to 18476
  254.8957   14.6033   33.0176 LP  0  0  0  0  0  0  0  0  0  0  0  0  # atno 27196 bound_to 18476
  249.1348    9.6438   29.5422 LP  0  0  0  0  0  0  0  0  0  0  0  0  # atno 27197 bound_to 18537
  251.2369   12.2316   28.3408 LP  0  0  0  0  0  0  0  0  0  0  0  0  # atno 27198 bound_to 18540
  250.1151   13.2666   27.5221 LP  0  0  0  0  0  0  0  0  0  0  0  0  # atno 27199 bound_to 18540
  249.8946   17.8964   25.8735 LP  0  0  0  0  0  0  0  0  0  0  0  0  # atno 27200 bound_to 18633
  251.2418   17.5219   26.8957 LP  0  0  0  0  0  0  0  0  0  0  0  0  # atno 27201 bound_to 18633
  249.7886   14.3571   27.3941 LP  0  0  0  0  0  0  0  0  0  0  0  0  # atno 27202 bound_to 18692
  252.0686   18.4164   28.8032 LP  0  0  0  0  0  0  0  0  0  0  0  0  # atno 27203 bound_to 18695
  252.4420   17.4958   30.2220 LP  0  0  0  0  0  0  0  0  0  0  0  0  # atno 27204 bound_to 18695
  252.1937   16.2175   28.6331 LP  0  0  0  0  0  0  0  0  0  0  0  0  # atno 27209 bound_to 18749
  252.6694   19.8143   29.4600 LP  0  0  0  0  0  0  0  0  0  0  0  0  # atno 27210 bound_to 19013
  251.5064    9.2358   37.8951 LP  0  0  0  0  0  0  0  0  0  0  0  0  # atno 27222 bound_to 17133
  252.6332    8.2450   37.0300 LP  0  0  0  0  0  0  0  0  0  0  0  0  # atno 27223 bound_to 17133
  253.2516   10.1961   37.7601 LP  0  0  0  0  0  0  0  0  0  0  0  0  # atno 27224 bound_to 17180
  251.3752   11.5999   39.6331 LP  0  0  0  0  0  0  0  0  0  0  0  0  # atno 27225 bound_to 17226
  258.0652   13.5475   37.5127 LP  0  0  0  0  0  0  0  0  0  0  0  0  # atno 27226 bound_to 11612
  257.2365   14.6259   38.5852 LP  0  0  0  0  0  0  0  0  0  0  0  0  # atno 27227 bound_to 11612
  256.3187    9.9492   37.7474 LP  0  0  0  0  0  0  0  0  0  0  0  0  # atno 27230 bound_to 17060
  257.2380   10.5505   36.4083 LP  0  0  0  0  0  0  0  0  0  0  0  0  # atno 27231 bound_to 17060
  255.6387   18.4863   26.1009 LP  0  0  0  0  0  0  0  0  0  0  0  0  # atno 27232 bound_to 18752
  254.4701   18.9006   27.3103 LP  0  0  0  0  0  0  0  0  0  0  0  0  # atno 27233 bound_to 18752
  253.1418   14.1376   24.6681 LP  0  0  0  0  0  0  0  0  0  0  0  0  # atno 27234 bound_to 18596
  252.3560   14.9144   26.0019 LP  0  0  0  0  0  0  0  0  0  0  0  0  # atno 27235 bound_to 18596
  254.1235   17.0815   26.2758 LP  0  0  0  0  0  0  0  0  0  0  0  0  # atno 27236 bound_to 18813
  252.1511   20.1001   26.3208 LP  0  0  0  0  0  0  0  0  0  0  0  0  # atno 27237 bound_to 18926
  253.1332   23.1135   27.8958 LP  0  0  0  0  0  0  0  0  0  0  0  0  # atno 27238 bound_to 18929
  253.4179   22.8672   29.5865 LP  0  0  0  0  0  0  0  0  0  0  0  0  # atno 27239 bound_to 18929
  256.2623   23.0565   29.0727 LP  0  0  0  0  0  0  0  0  0  0  0  0  # atno 27240 bound_to 19016
  257.1794   21.8183   29.8637 LP  0  0  0  0  0  0  0  0  0  0  0  0  # atno 27241 bound_to 19016
  255.1462   20.1646   27.1840 LP  0  0  0  0  0  0  0  0  0  0  0  0  # atno 27242 bound_to 19073
  252.2398   15.0950   41.9590 LP  0  0  0  0  0  0  0  0  0  0  0  0  # atno 27243 bound_to 11418
  251.4842   16.2565   42.9982 LP  0  0  0  0  0  0  0  0  0  0  0  0  # atno 27244 bound_to 11418
  253.5672   11.6679   42.4942 LP  0  0  0  0  0  0  0  0  0  0  0  0  # atno 27245 bound_to 17183
  254.1721   12.5766   41.1495 LP  0  0  0  0  0  0  0  0  0  0  0  0  # atno 27246 bound_to 17183
  249.0779    7.6000   31.1820 LP  0  0  0  0  0  0  0  0  0  0  0  0  # atno 27247 bound_to 18378
  249.3794    8.1359   32.8012 LP  0  0  0  0  0  0  0  0  0  0  0  0  # atno 27248 bound_to 18378
  252.0606    8.0177   31.9699 LP  0  0  0  0  0  0  0  0  0  0  0  0  # atno 27249 bound_to 18465
  249.8064    9.4322   41.0375 LP  0  0  0  0  0  0  0  0  0  0  0  0  # atno 27250 bound_to 18217
  251.4438    8.9216   40.7968 LP  0  0  0  0  0  0  0  0  0  0  0  0  # atno 27251 bound_to 18217
  250.9419   10.8190   44.0177 LP  0  0  0  0  0  0  0  0  0  0  0  0  # atno 27254 bound_to 17229
  249.6553   10.8869   42.8601 LP  0  0  0  0  0  0  0  0  0  0  0  0  # atno 27255 bound_to 17229
  249.3267    6.9131   40.6126 LP  0  0  0  0  0  0  0  0  0  0  0  0  # atno 27256 bound_to 18279
  249.7194    6.2351   37.8449 LP  0  0  0  0  0  0  0  0  0  0  0  0  # atno 27257 bound_to 18317
  249.9253    6.5598   34.0919 LP  0  0  0  0  0  0  0  0  0  0  0  0  # atno 27258 bound_to 18375
  252.5975    4.5701   34.3295 LP  0  0  0  0  0  0  0  0  0  0  0  0  # atno 27259 bound_to 18320
  252.4612    5.0960   35.9741 LP  0  0  0  0  0  0  0  0  0  0  0  0  # atno 27260 bound_to 18320
  250.0481    7.9767   27.5185 LP  0  0  0  0  0  0  0  0  0  0  0  0  # atno 27261 bound_to 18468
  251.4354    7.4345   28.4026 LP  0  0  0  0  0  0  0  0  0  0  0  0  # atno 27262 bound_to 18468
  241.8024    8.5023   30.9977 LP  0  0  0  0  0  0  0  0  0  0  0  0  # atno 27263 bound_to 7517
  250.4444    3.8250   38.5154 LP  0  0  0  0  0  0  0  0  0  0  0  0  # atno 27264 bound_to 18282
  248.9988    4.5801   39.0986 LP  0  0  0  0  0  0  0  0  0  0  0  0  # atno 27265 bound_to 18282
  240.6996   11.5244   32.2062 LP  0  0  0  0  0  0  0  0  0  0  0  0  # atno 27266 bound_to 7462
  255.6837    7.2588   33.2923 LP  0  0  0  0  0  0  0  0  0  0  0  0  # atno 27267 bound_to 17020
  256.2525    7.6390   31.7011 LP  0  0  0  0  0  0  0  0  0  0  0  0  # atno 27268 bound_to 17020
  250.7129   10.6243   26.4554 LP  0  0  0  0  0  0  0  0  0  0  0  0  # atno 27269 bound_to 18593
  248.8359    2.5019   36.0614 LP  0  0  0  0  0  0  0  0  0  0  0  0  # atno 27270 bound_to 10100
  247.2093    2.5071   36.2050 LP  0  0  0  0  0  0  0  0  0  0  0  0  # atno 27271 bound_to 10100
  253.3775    4.5826   39.2215 LP  0  0  0  0  0  0  0  0  0  0  0  0  # atno 27272 bound_to 18284
  251.7864    4.4602   39.5679 LP  0  0  0  0  0  0  0  0  0  0  0  0  # atno 27273 bound_to 18284
  254.9874   16.1972   43.1065 LP  0  0  0  0  0  0  0  0  0  0  0  0  # atno 27274 bound_to 11468
  258.2338   11.8261   31.9384 LP  0  0  0  0  0  0  0  0  0  0  0  0  # atno 27275 bound_to 16960
  257.8398   10.2478   31.3439 LP  0  0  0  0  0  0  0  0  0  0  0  0  # atno 27276 bound_to 16960

> <Gold.Score>
     Fitness  S(hb_ext) S(vdw_ext)  S(hb_int)    S(int)      intcor
     31.80       2.12      24.26       0.00      -3.68      -0.76

> <Gold.Goldscore.Fitness>
31.7979

> <Gold.Goldscore.Internal.Vdw>
-3.6158

> <Gold.Goldscore.Internal.Torsion>
-0.8186

> <Gold.Goldscore.External.Vdw>
24.2560

> <Gold.Goldscore.Internal.HBond>
0.0000

> <Gold.Goldscore.External.HBond>
2.1218

> <Gold.Goldscore.Internal.Correction>
-0.7585

> <Gold.Goldscore.Hbonds>
donor molecule, donor type, donor heavy atom, donor atom, acceptor molecule, acceptor atom, score
      P1  H 11701 11752       L1    17  0.26
      P1  H 11704 11756       L1    17  0.06
      P1  H 16968 17004       L1    17  0.01
      L1  H    10    23       P1 19020  0.03

> <Gold.Goldscore.Internal.Vdw.Weighted>
-3.6158

> <Gold.Goldscore.Internal.Torsion.Weighted>
-0.8186

> <Gold.Goldscore.External.Vdw.Weighted>
33.3520

> <Gold.Goldscore.Internal.HBond.Weighted>
0.0000

> <Gold.Goldscore.External.HBond.Weighted>
2.1218

> <Gold.Goldscore.Internal.Correction.Weighted>
-0.7585

> <Gold.Rescore>
     Score     S(PLP)   S(hbond)     S(cho)   S(metal)  DE(clash)   DE(tors)     intcor
     16.41     -13.29       1.90       0.00       0.00       1.95       0.30       ----

> <Gold.PLP.Fitness>
16.4150

> <Gold.PLP.PLP>
-13.2863

> <Gold.PLP.part.hbond>
-5.9329

> <Gold.PLP.part.metal>
0.0000

> <Gold.PLP.part.buried>
9.5044

> <Gold.PLP.part.nonpolar>
-26.8747

> <Gold.PLP.part.repulsive>
8.1661

> <Gold.PLP.ligand.clash>
1.9474

> <Gold.PLP.ligand.torsion>
0.3045

> <Gold.PLP.Chemscore.Hbond>
1.8950

> <Gold.PLP.Chemscore.CHOScore>
0.0000

> <Gold.PLP.Chemscore.Metal>
0.0000

> <Gold.Chemscore.Hbonds>
donor molecule, donor type, donor heavy atom, donor atom, acceptor molecule, acceptor atom, score
      L1  H    10    23       P1 19020  0.50
      P1  H 11701 11752       L1    17  0.30
      P1  H 16968 17004       L1    17  0.77

> <Gold.PLP.Chemscore.Internal.Correction>
   9.000000E+99

#       Name:                CT1002167954
#       Creating user name   hitesit
#       Creation time:       Sun Apr 16 23:06:24 2023


#       File generated by GOLD software.
#

@<TRIPOS>MOLECULE
CT1002167954|ligand_prepared|mol2|1|dock6
    29    30     1
SMALL
NO_CHARGES


@<TRIPOS>ATOM
      1 C1         250.5999  18.2329  34.6034 C.3            1 RES1               0.0000
      2 C2         250.4515  18.3705  36.1324 C.ar           1 RES1               0.0000
      3 C3         252.0353  18.6326  34.2746 C.2            1 RES1               0.0000
      4 C4         250.2663  16.7828  34.2712 C.2            1 RES1               0.0000
      5 C5         249.6407  19.1403  33.7984 C.3            1 RES1               0.0000
      6 C6         251.5640  18.6089  36.9337 C.ar           1 RES1               0.0000
      7 C7         249.2104  18.2643  36.7546 C.ar           1 RES1               0.0000
      8 N8         252.9078  17.6384  33.9427 N.am           1 RES1               0.0000
      9 O9         252.4060  19.7980  34.3439 O.2            1 RES1               0.0000
     10 N10        251.2688  15.9905  33.7761 N.am           1 RES1               0.0000
     11 O11        249.1486  16.3145  34.4493 O.2            1 RES1               0.0000
     12 C12        249.8024  19.0191  32.2913 C.3            1 RES1               0.0000
     13 C13        251.4401  18.7394  38.3070 C.ar           1 RES1               0.0000
     14 C14        249.0888  18.3949  38.1281 C.ar           1 RES1               0.0000
     15 C15        252.5820  16.3442  33.6257 C.2            1 RES1               0.0000
     16 C16        250.2025  18.6330  38.9051 C.ar           1 RES1               0.0000
     17 O17        253.4364  15.5588  33.2252 O.2            1 RES1               0.0000
     18 H18        248.6074  18.8856  34.0643 H              1 RES1               0.0000
     19 H19        249.8143  20.1837  34.0892 H              1 RES1               0.0000
     20 H20        252.5464  18.6933  36.4812 H              1 RES1               0.0000
     21 H21        248.3206  18.0762  36.1634 H              1 RES1               0.0000
     22 H22        253.8937  17.8794  33.9291 H              1 RES1               0.0000
     23 H23        251.0123  15.0500  33.4933 H              1 RES1               0.0000
     24 H24        249.1062  19.6764  31.7745 H              1 RES1               0.0000
     25 H25        250.8118  19.2895  31.9886 H              1 RES1               0.0000
     26 H26        249.6120  17.9991  31.9638 H              1 RES1               0.0000
     27 H27        252.3199  18.9253  38.9142 H              1 RES1               0.0000
     28 H28        248.1129  18.3098  38.5946 H              1 RES1               0.0000
     29 H29        250.1056  18.7356  39.9808 H              1 RES1               0.0000
@<TRIPOS>BOND
    1    1    2 1     
    2    1    3 1     
    3    1    4 1     
    4    1    5 1     
    5    2    6 ar    
    6    2    7 ar    
    7    3    8 1     
    8    3    9 2     
    9    4   10 1     
   10    4   11 2     
   11    5   12 1     
   12    5   18 1     
   13    5   19 1     
   14    6   13 ar    
   15    6   20 1     
   16    7   14 ar    
   17    7   21 1     
   18    8   15 1     
   19    8   22 1     
   20   10   15 1     
   21   10   23 1     
   22   12   24 1     
   23   12   25 1     
   24   12   26 1     
   25   13   16 ar    
   26   13   27 1     
   27   14   16 ar    
   28   14   28 1     
   29   15   17 2     
   30   16   29 1     
@<TRIPOS>SUBSTRUCTURE
      1 RES1           1
@<TRIPOS>SET
DONOR_HYDROGENS      STATIC     ATOMS    <user>   **** ""
2 22 23
ATOM$RED        STATIC     ATOMS    COLORGROUP SYSTEM
2 22 23
@<TRIPOS>COMMENT
> <Gold.Version>
2022.3.0

> <Gold.Id.Protein>
unknown|4d1n_clean|pdb

> <Gold.Protein.RotatedTorsions>
[ 17004 16968 16967 16965 ] final -144.94 input   59.98 | X-H torsion
[ 18512 18476 18475 18473 ] final -105.11 input   59.98 | X-H torsion
[ 18572 18537 18538 18539 ] final -149.31 input   87.04 | X-H torsion
[ 18719 18692 18693 18694 ] final  116.92 input  124.02 | X-H torsion
[ 18790 18749 18750 18751 ] final -131.56 input   91.60 | X-H torsion
[ 19033 19013 19014 19015 ] final  -69.49 input  122.46 | X-H torsion
[ 17200 17180 17181 17182 ] final   85.32 input   47.21 | X-H torsion
[ 17260 17226 17227 17228 ] final   93.77 input  117.85 | X-H torsion
[ 18826 18813 18814 18815 ] final  120.51 input  116.01 | X-H torsion
[ 18976 18926 18927 18928 ] final  102.03 input  102.20 | X-H torsion
[ 19112 19073 19074 19075 ] final   22.75 input   89.03 | X-H torsion
[ 18504 18465 18466 18467 ] final   76.85 input  102.26 | X-H torsion
[ 18300 18279 18280 18281 ] final   18.28 input   28.27 | X-H torsion
[ 18330 18317 18318 18319 ] final  -69.53 input   50.43 | X-H torsion
[ 18419 18375 18376 18377 ] final  -26.05 input   32.92 | X-H torsion
[ 7530 7517 7518 7519 ] final   48.80 input   89.56 | X-H torsion
[ 7496 7462 7463 7464 ] final  -55.78 input  103.52 | X-H torsion
[ 18606 18593 18594 18595 ] final  -59.89 input  124.70 | X-H torsion
[ 10120 10100 10099 10096 ] final  -31.75 input   60.00 | X-H torsion
[ 18304 18284 18283 18280 ] final  157.94 input   60.01 | X-H torsion
[ 11501 11468 11469 11470 ] final -131.05 input   45.03 | X-H torsion
[ 18664 18636 18634 18631 ] final   -5.00 input   60.01 | X-H torsion
[ 18884 18850 18851 18852 ] final  159.06 input   84.91 | X-H torsion
[ 17308 17287 17288 17289 ] final  -61.17 input   50.16 | X-H torsion
[ 22456 22422 22423 22424 ] final -119.94 input   54.84 | X-H torsion
[ 11440 11420 11419 11416 ] final   67.16 input   60.01 | X-H torsion
[ 11650 11609 11610 11611 ] final  -45.72 input   61.57 | X-H torsion
[ 11832 11793 11794 11795 ] final   35.82 input   91.14 | X-H torsion
[ 16996 16957 16958 16959 ] final  119.49 input   91.87 | X-H torsion
[ 27198 18540 18539 18538 ] final  -38.24 input   -0.00 | X-H torsion
[ 27200 18633 18632 18631 ] final  -60.74 input    0.00 | X-H torsion
[ 27203 18695 18694 18693 ] final -171.86 input   -0.00 | X-H torsion
[ 27222 17133 17132 17131 ] final -104.61 input    0.00 | X-H torsion
[ 27226 11612 11611 11610 ] final   89.46 input    0.00 | X-H torsion
[ 27230 17060 17059 17058 ] final  -58.15 input   -0.00 | X-H torsion
[ 27232 18752 18751 18750 ] final  -97.56 input    0.00 | X-H torsion
[ 27234 18596 18595 18594 ] final   26.36 input   -0.00 | X-H torsion
[ 27238 18929 18928 18927 ] final  125.78 input   -0.00 | X-H torsion
[ 27240 19016 19015 19014 ] final  106.10 input   -0.00 | X-H torsion
[ 27243 11418 11417 11416 ] final   11.29 input    0.00 | X-H torsion
[ 27245 17183 17182 17181 ] final  -93.58 input   -0.00 | X-H torsion
[ 27247 18378 18377 18376 ] final   51.17 input   -0.00 | X-H torsion
[ 27250 18217 18216 18215 ] final  146.26 input    0.00 | X-H torsion
[ 27254 17229 17228 17227 ] final  113.18 input   -0.00 | X-H torsion
[ 27259 18320 18319 18318 ] final   -2.28 input    0.00 | X-H torsion
[ 27261 18468 18467 18466 ] final   71.56 input    0.00 | X-H torsion
[ 27264 18282 18281 18280 ] final  114.94 input   -0.00 | X-H torsion
[ 27267 17020 17019 17018 ] final  -93.49 input   -0.00 | X-H torsion
[ 27275 16960 16959 16958 ] final    6.44 input    0.00 | X-H torsion

> <Gold.Protein.ActiveResidues>
 TRP414  CYS420  VAL421  GLY422  LEU460  SER462  SER482  GLN483  ILE485  ARG486 
 TYR487  ASP500  ASN503  TRP566  TYR567  GLY568  LEU569  PRO570  ALA571  VAL572 
 SER573  ASN574  PHE589  SER590  GLY591  TRP592  TYR593  MET594  GLY595  THR596 
 GLU597  ILE598  GLY599  VAL600  ARG601  ASP602  TYR603  ARG608  ILE653  VAL654 
 TRP683  PRO687  HEM750  H4B760 

> <Gold.Protein.RotatedAtoms>
  240.6590   10.1983   32.9513 H   0  0  0  0  0  0  0  0  0  0  0  0  # atno 7496 bound_to 7462
  241.5841    8.4543   32.7266 H   0  0  0  0  0  0  0  0  0  0  0  0  # atno 7530 bound_to 7517
  248.7939    2.5571   36.0847 H   0  0  0  0  0  0  0  0  0  0  0  0  # atno 10120 bound_to 10100
  254.1705   18.5700   41.1704 H   0  0  0  0  0  0  0  0  0  0  0  0  # atno 11440 bound_to 11420
  253.6393   16.2069   42.6846 H   0  0  0  0  0  0  0  0  0  0  0  0  # atno 11501 bound_to 11468
  257.9412   13.2008   41.3100 H   0  0  0  0  0  0  0  0  0  0  0  0  # atno 11650 bound_to 11609
  260.1560   18.4800   37.6285 H   0  0  0  0  0  0  0  0  0  0  0  0  # atno 11832 bound_to 11793
  260.5821   13.3807   32.4161 H   0  0  0  0  0  0  0  0  0  0  0  0  # atno 16996 bound_to 16957
  256.5711   16.0925   35.2867 H   0  0  0  0  0  0  0  0  0  0  0  0  # atno 17004 bound_to 16968
  254.5602   10.9766   38.4491 H   0  0  0  0  0  0  0  0  0  0  0  0  # atno 17200 bound_to 17180
  250.8861   10.9091   40.2494 H   0  0  0  0  0  0  0  0  0  0  0  0  # atno 17260 bound_to 17226
  250.4439   13.3358   43.3575 H   0  0  0  0  0  0  0  0  0  0  0  0  # atno 17308 bound_to 17287
  249.6932    5.7388   40.6905 H   0  0  0  0  0  0  0  0  0  0  0  0  # atno 18300 bound_to 18279
  253.5513    4.6802   39.5289 H   0  0  0  0  0  0  0  0  0  0  0  0  # atno 18304 bound_to 18284
  251.0798    5.9127   37.5757 H   0  0  0  0  0  0  0  0  0  0  0  0  # atno 18330 bound_to 18317
  249.9004    6.5847   34.0476 H   0  0  0  0  0  0  0  0  0  0  0  0  # atno 18419 bound_to 18375
  252.4892    7.3425   30.6382 H   0  0  0  0  0  0  0  0  0  0  0  0  # atno 18504 bound_to 18465
  255.6683   14.2136   32.9616 H   0  0  0  0  0  0  0  0  0  0  0  0  # atno 18512 bound_to 18476
  249.6004    9.0925   29.2015 H   0  0  0  0  0  0  0  0  0  0  0  0  # atno 18572 bound_to 18537
  250.3348   11.3789   26.6881 H   0  0  0  0  0  0  0  0  0  0  0  0  # atno 18606 bound_to 18593
  248.1772   14.3965   26.1892 H   0  0  0  0  0  0  0  0  0  0  0  0  # atno 18664 bound_to 18636
  249.8478   14.3282   27.3600 H   0  0  0  0  0  0  0  0  0  0  0  0  # atno 18719 bound_to 18692
  252.3583   15.8641   28.8797 H   0  0  0  0  0  0  0  0  0  0  0  0  # atno 18790 bound_to 18749
  253.5126   15.6910   25.4090 H   0  0  0  0  0  0  0  0  0  0  0  0  # atno 18826 bound_to 18813
  251.9001   17.9379   23.9677 H   0  0  0  0  0  0  0  0  0  0  0  0  # atno 18884 bound_to 18850
  251.0635   19.2674   26.8614 H   0  0  0  0  0  0  0  0  0  0  0  0  # atno 18976 bound_to 18926
  252.8174   21.1283   28.8787 H   0  0  0  0  0  0  0  0  0  0  0  0  # atno 19033 bound_to 19013
  254.7046   21.1856   27.3780 H   0  0  0  0  0  0  0  0  0  0  0  0  # atno 19112 bound_to 19073
  251.3382    5.7993   25.5754 H   0  0  0  0  0  0  0  0  0  0  0  0  # atno 22456 bound_to 22422
  256.5733   15.4326   36.7743 LP  0  0  0  0  0  0  0  0  0  0  0  0  # atno 27193 bound_to 16968
  255.6267   14.8050   35.6010 LP  0  0  0  0  0  0  0  0  0  0  0  0  # atno 27194 bound_to 16968
  255.3550   13.2201   34.2113 LP  0  0  0  0  0  0  0  0  0  0  0  0  # atno 27195 bound_to 18476
  254.2371   14.3086   33.7295 LP  0  0  0  0  0  0  0  0  0  0  0  0  # atno 27196 bound_to 18476
  250.2084   10.7243   29.3700 LP  0  0  0  0  0  0  0  0  0  0  0  0  # atno 27197 bound_to 18537
  249.8901   12.8008   28.2915 LP  0  0  0  0  0  0  0  0  0  0  0  0  # atno 27198 bound_to 18540
  251.4619   12.6974   27.5713 LP  0  0  0  0  0  0  0  0  0  0  0  0  # atno 27199 bound_to 18540
  251.2583   17.5609   25.8828 LP  0  0  0  0  0  0  0  0  0  0  0  0  # atno 27200 bound_to 18633
  249.8782   17.8574   26.8865 LP  0  0  0  0  0  0  0  0  0  0  0  0  # atno 27201 bound_to 18633
  250.0274   15.8793   26.5900 LP  0  0  0  0  0  0  0  0  0  0  0  0  # atno 27202 bound_to 18692
  253.0434   17.9646   29.1536 LP  0  0  0  0  0  0  0  0  0  0  0  0  # atno 27203 bound_to 18695
  251.4673   17.9476   29.8716 LP  0  0  0  0  0  0  0  0  0  0  0  0  # atno 27204 bound_to 18695
  252.2891   15.4000   27.1923 LP  0  0  0  0  0  0  0  0  0  0  0  0  # atno 27209 bound_to 18749
  253.0982   19.4134   28.6855 LP  0  0  0  0  0  0  0  0  0  0  0  0  # atno 27210 bound_to 19013
  251.4264    9.3087   37.5772 LP  0  0  0  0  0  0  0  0  0  0  0  0  # atno 27222 bound_to 17133
  252.7132    8.1722   37.3479 LP  0  0  0  0  0  0  0  0  0  0  0  0  # atno 27223 bound_to 17133
  252.9658   10.6063   37.8327 LP  0  0  0  0  0  0  0  0  0  0  0  0  # atno 27224 bound_to 17180
  252.4654   11.6308   40.4755 LP  0  0  0  0  0  0  0  0  0  0  0  0  # atno 27225 bound_to 17226
  257.1440   14.3073   38.7156 LP  0  0  0  0  0  0  0  0  0  0  0  0  # atno 27226 bound_to 11612
  258.1578   13.8661   37.3823 LP  0  0  0  0  0  0  0  0  0  0  0  0  # atno 27227 bound_to 11612
  256.9103    9.5918   37.6252 LP  0  0  0  0  0  0  0  0  0  0  0  0  # atno 27230 bound_to 17060
  256.6464   10.9079   36.5305 LP  0  0  0  0  0  0  0  0  0  0  0  0  # atno 27231 bound_to 17060
  254.2626   19.0423   26.7410 LP  0  0  0  0  0  0  0  0  0  0  0  0  # atno 27232 bound_to 18752
  255.8463   18.3446   26.6702 LP  0  0  0  0  0  0  0  0  0  0  0  0  # atno 27233 bound_to 18752
  253.2523   13.9179   24.9787 LP  0  0  0  0  0  0  0  0  0  0  0  0  # atno 27234 bound_to 18596
  252.2456   15.1341   25.6912 LP  0  0  0  0  0  0  0  0  0  0  0  0  # atno 27235 bound_to 18596
  254.1976   17.0527   26.2699 LP  0  0  0  0  0  0  0  0  0  0  0  0  # atno 27236 bound_to 18813
  251.5273   20.6689   25.9321 LP  0  0  0  0  0  0  0  0  0  0  0  0  # atno 27237 bound_to 18926
  253.4369   22.8608   29.5821 LP  0  0  0  0  0  0  0  0  0  0  0  0  # atno 27238 bound_to 18929
  253.1142   23.1199   27.9002 LP  0  0  0  0  0  0  0  0  0  0  0  0  # atno 27239 bound_to 18929
  257.3980   21.9023   29.3957 LP  0  0  0  0  0  0  0  0  0  0  0  0  # atno 27240 bound_to 19016
  256.0438   22.9725   29.5407 LP  0  0  0  0  0  0  0  0  0  0  0  0  # atno 27241 bound_to 19016
  255.9982   20.3199   28.1758 LP  0  0  0  0  0  0  0  0  0  0  0  0  # atno 27242 bound_to 19073
  251.4646   16.3707   42.8089 LP  0  0  0  0  0  0  0  0  0  0  0  0  # atno 27243 bound_to 11418
  252.2594   14.9808   42.1483 LP  0  0  0  0  0  0  0  0  0  0  0  0  # atno 27244 bound_to 11418
  253.6281   11.6093   42.4765 LP  0  0  0  0  0  0  0  0  0  0  0  0  # atno 27245 bound_to 17183
  254.1112   12.6352   41.1672 LP  0  0  0  0  0  0  0  0  0  0  0  0  # atno 27246 bound_to 17183
  249.3109    7.8752   32.8537 LP  0  0  0  0  0  0  0  0  0  0  0  0  # atno 27247 bound_to 18378
  249.1464    7.8607   31.1295 LP  0  0  0  0  0  0  0  0  0  0  0  0  # atno 27248 bound_to 18378
  251.3174    7.7596   31.8689 LP  0  0  0  0  0  0  0  0  0  0  0  0  # atno 27249 bound_to 18465
  251.2736    8.8696   40.4323 LP  0  0  0  0  0  0  0  0  0  0  0  0  # atno 27250 bound_to 18217
  249.9766    9.4842   41.4020 LP  0  0  0  0  0  0  0  0  0  0  0  0  # atno 27251 bound_to 18217
  251.1030   10.6206   43.6601 LP  0  0  0  0  0  0  0  0  0  0  0  0  # atno 27254 bound_to 17229
  249.4942   11.0853   43.2177 LP  0  0  0  0  0  0  0  0  0  0  0  0  # atno 27255 bound_to 17229
  250.3343    7.2796   41.2053 LP  0  0  0  0  0  0  0  0  0  0  0  0  # atno 27256 bound_to 18279
  249.7654    7.0058   37.2076 LP  0  0  0  0  0  0  0  0  0  0  0  0  # atno 27257 bound_to 18317
  250.4805    4.9328   34.0348 LP  0  0  0  0  0  0  0  0  0  0  0  0  # atno 27258 bound_to 18375
  252.3115    4.6482   35.9693 LP  0  0  0  0  0  0  0  0  0  0  0  0  # atno 27259 bound_to 18320
  252.7472    5.0179   34.3343 LP  0  0  0  0  0  0  0  0  0  0  0  0  # atno 27260 bound_to 18320
  250.3974    7.1814   28.5577 LP  0  0  0  0  0  0  0  0  0  0  0  0  # atno 27261 bound_to 18468
  251.0861    8.2298   27.3633 LP  0  0  0  0  0  0  0  0  0  0  0  0  # atno 27262 bound_to 18468
  241.9165    8.5567   31.0135 LP  0  0  0  0  0  0  0  0  0  0  0  0  # atno 27263 bound_to 7517
  248.9136    4.4447   38.6106 LP  0  0  0  0  0  0  0  0  0  0  0  0  # atno 27264 bound_to 18282
  250.5295    3.9604   39.0034 LP  0  0  0  0  0  0  0  0  0  0  0  0  # atno 27265 bound_to 18282
  241.5342   11.4294   32.0636 LP  0  0  0  0  0  0  0  0  0  0  0  0  # atno 27266 bound_to 7462
  255.7387    8.2782   32.3982 LP  0  0  0  0  0  0  0  0  0  0  0  0  # atno 27267 bound_to 17020
  256.1975    6.6196   32.5951 LP  0  0  0  0  0  0  0  0  0  0  0  0  # atno 27268 bound_to 17020
  249.9521   10.5797   25.1766 LP  0  0  0  0  0  0  0  0  0  0  0  0  # atno 27269 bound_to 18593
  247.1736    2.4453   36.1894 LP  0  0  0  0  0  0  0  0  0  0  0  0  # atno 27270 bound_to 10100
  248.0554    1.1529   35.7218 LP  0  0  0  0  0  0  0  0  0  0  0  0  # atno 27271 bound_to 10100
  251.9706    4.4092   39.2540 LP  0  0  0  0  0  0  0  0  0  0  0  0  # atno 27272 bound_to 18284
  252.4825    4.8301   40.7465 LP  0  0  0  0  0  0  0  0  0  0  0  0  # atno 27273 bound_to 18284
  255.2846   16.5809   42.2135 LP  0  0  0  0  0  0  0  0  0  0  0  0  # atno 27274 bound_to 11468
  258.4196   11.8114   31.5802 LP  0  0  0  0  0  0  0  0  0  0  0  0  # atno 27275 bound_to 16960
  257.6540   10.2625   31.7021 LP  0  0  0  0  0  0  0  0  0  0  0  0  # atno 27276 bound_to 16960

> <Gold.Score>
     Fitness  S(hb_ext) S(vdw_ext)  S(hb_int)    S(int)      intcor
     26.47       1.23      20.03       0.00      -2.30      -0.76

> <Gold.Goldscore.Fitness>
26.4667

> <Gold.Goldscore.Internal.Vdw>
-2.6917

> <Gold.Goldscore.Internal.Torsion>
-0.3683

> <Gold.Goldscore.External.Vdw>
20.0313

> <Gold.Goldscore.Internal.HBond>
0.0000

> <Gold.Goldscore.External.HBond>
1.2251

> <Gold.Goldscore.Internal.Correction>
-0.7585

> <Gold.Goldscore.Hbonds>
donor molecule, donor type, donor heavy atom, donor atom, acceptor molecule, acceptor atom, score
      P1  H 11475 11507       L1    17  0.02
      P1  H 19355 19405       L1     9  0.06
      L1  H    10    23       P1 18699  0.14

> <Gold.Goldscore.Internal.Vdw.Weighted>
-2.6917

> <Gold.Goldscore.Internal.Torsion.Weighted>
-0.3683

> <Gold.Goldscore.External.Vdw.Weighted>
27.5431

> <Gold.Goldscore.Internal.HBond.Weighted>
0.0000

> <Gold.Goldscore.External.HBond.Weighted>
1.2251

> <Gold.Goldscore.Internal.Correction.Weighted>
-0.7585

> <Gold.Rescore>
     Score     S(PLP)   S(hbond)     S(cho)   S(metal)  DE(clash)   DE(tors)     intcor
     14.29     -15.76       0.27       0.00       0.00       2.06       0.11       ----

> <Gold.PLP.Fitness>
14.2862

> <Gold.PLP.PLP>
-15.7570

> <Gold.PLP.part.hbond>
-4.6906

> <Gold.PLP.part.metal>
0.0000

> <Gold.PLP.part.buried>
-0.0538

> <Gold.PLP.part.nonpolar>
-16.7710

> <Gold.PLP.part.repulsive>
3.5497

> <Gold.PLP.ligand.clash>
2.0605

> <Gold.PLP.ligand.torsion>
0.1132

> <Gold.PLP.Chemscore.Hbond>
0.2720

> <Gold.PLP.Chemscore.CHOScore>
0.0000

> <Gold.PLP.Chemscore.Metal>
0.0000

> <Gold.Chemscore.Hbonds>
donor molecule, donor type, donor heavy atom, donor atom, acceptor molecule, acceptor atom, score
      P1  H 19355 19405       L1     9  0.46

> <Gold.PLP.Chemscore.Internal.Correction>
   9.000000E+99

