#       Name:                CT1002167954
#       Creating user name   hitesit
#       Creation time:       Sun Apr 16 23:06:21 2023


#       File generated by GOLD software.
#

@<TRIPOS>MOLECULE
CT1002167954|ligand_prepared|mol2|1|dock2
    29    30     1
SMALL
NO_CHARGES


@<TRIPOS>ATOM
      1 C1         250.0476  18.7613  35.3037 C.3            1 RES1               0.0000
      2 C2         249.9829  17.2206  35.3296 C.ar           1 RES1               0.0000
      3 C3         251.0387  19.1301  34.2038 C.2            1 RES1               0.0000
      4 C4         248.6244  19.2438  35.0462 C.2            1 RES1               0.0000
      5 C5         250.5318  19.3887  36.6317 C.3            1 RES1               0.0000
      6 C6         249.3485  16.5554  36.3745 C.ar           1 RES1               0.0000
      7 C7         250.5496  16.4523  34.3161 C.ar           1 RES1               0.0000
      8 N8         250.5339  19.6340  33.0414 N.am           1 RES1               0.0000
      9 O9         252.2418  18.9447  34.3392 O.2            1 RES1               0.0000
     10 N10        248.3702  19.8934  33.8667 N.am           1 RES1               0.0000
     11 O11        247.7172  19.0527  35.8467 O.2            1 RES1               0.0000
     12 C12        250.7579  20.8904  36.5539 C.3            1 RES1               0.0000
     13 C13        249.2804  15.1724  36.4037 C.ar           1 RES1               0.0000
     14 C14        250.4806  15.0692  34.3474 C.ar           1 RES1               0.0000
     15 C15        249.2536  20.0832  32.8392 C.2            1 RES1               0.0000
     16 C16        249.8460  14.4284  35.3902 C.ar           1 RES1               0.0000
     17 O17        248.9356  20.6288  31.7864 O.2            1 RES1               0.0000
     18 H18        249.7876  19.1836  37.4112 H              1 RES1               0.0000
     19 H19        251.4706  18.9053  36.9290 H              1 RES1               0.0000
     20 H20        248.8998  17.1240  37.1822 H              1 RES1               0.0000
     21 H21        251.0549  16.9348  33.4864 H              1 RES1               0.0000
     22 H22        251.1667  19.6812  32.2492 H              1 RES1               0.0000
     23 H23        247.4359  20.2705  33.7433 H              1 RES1               0.0000
     24 H24        251.0967  21.2796  37.5117 H              1 RES1               0.0000
     25 H25        251.5110  21.1288  35.8057 H              1 RES1               0.0000
     26 H26        249.8380  21.4054  36.2850 H              1 RES1               0.0000
     27 H27        248.7810  14.6728  37.2273 H              1 RES1               0.0000
     28 H28        250.9276  14.4877  33.5479 H              1 RES1               0.0000
     29 H29        249.7922  13.3450  35.4131 H              1 RES1               0.0000
@<TRIPOS>BOND
    1    1    2 1     
    2    1    3 1     
    3    1    4 1     
    4    1    5 1     
    5    2    6 ar    
    6    2    7 ar    
    7    3    8 1     
    8    3    9 2     
    9    4   10 1     
   10    4   11 2     
   11    5   12 1     
   12    5   18 1     
   13    5   19 1     
   14    6   13 ar    
   15    6   20 1     
   16    7   14 ar    
   17    7   21 1     
   18    8   15 1     
   19    8   22 1     
   20   10   15 1     
   21   10   23 1     
   22   12   24 1     
   23   12   25 1     
   24   12   26 1     
   25   13   16 ar    
   26   13   27 1     
   27   14   16 ar    
   28   14   28 1     
   29   15   17 2     
   30   16   29 1     
@<TRIPOS>SUBSTRUCTURE
      1 RES1           1
@<TRIPOS>SET
DONOR_HYDROGENS      STATIC     ATOMS    <user>   **** ""
2 22 23
ATOM$RED        STATIC     ATOMS    COLORGROUP SYSTEM
2 22 23
@<TRIPOS>COMMENT
> <Gold.Version>
2022.3.0

> <Gold.Id.Protein>
unknown|4d1n_clean|pdb

> <Gold.Protein.RotatedTorsions>
[ 17004 16968 16967 16965 ] final   97.90 input   59.98 | X-H torsion
[ 18512 18476 18475 18473 ] final   62.80 input   59.98 | X-H torsion
[ 18572 18537 18538 18539 ] final  -45.38 input   87.04 | X-H torsion
[ 18719 18692 18693 18694 ] final  -96.76 input  124.02 | X-H torsion
[ 18790 18749 18750 18751 ] final  -83.56 input   91.60 | X-H torsion
[ 19033 19013 19014 19015 ] final  100.91 input  122.46 | X-H torsion
[ 17200 17180 17181 17182 ] final  148.56 input   47.21 | X-H torsion
[ 17260 17226 17227 17228 ] final  143.74 input  117.85 | X-H torsion
[ 18826 18813 18814 18815 ] final  -70.40 input  116.01 | X-H torsion
[ 18976 18926 18927 18928 ] final  111.79 input  102.20 | X-H torsion
[ 19112 19073 19074 19075 ] final  -22.37 input   89.03 | X-H torsion
[ 18504 18465 18466 18467 ] final  -15.81 input  102.26 | X-H torsion
[ 18300 18279 18280 18281 ] final   75.68 input   28.27 | X-H torsion
[ 18330 18317 18318 18319 ] final  126.55 input   50.43 | X-H torsion
[ 18419 18375 18376 18377 ] final   59.22 input   32.92 | X-H torsion
[ 7530 7517 7518 7519 ] final -153.79 input   89.56 | X-H torsion
[ 7496 7462 7463 7464 ] final  120.25 input  103.52 | X-H torsion
[ 18606 18593 18594 18595 ] final  100.49 input  124.70 | X-H torsion
[ 10120 10100 10099 10096 ] final  118.28 input   60.00 | X-H torsion
[ 18304 18284 18283 18280 ] final  -51.89 input   60.01 | X-H torsion
[ 11501 11468 11469 11470 ] final -149.64 input   45.03 | X-H torsion
[ 18664 18636 18634 18631 ] final  174.90 input   60.01 | X-H torsion
[ 18884 18850 18851 18852 ] final  -38.13 input   84.91 | X-H torsion
[ 17308 17287 17288 17289 ] final  -41.38 input   50.16 | X-H torsion
[ 22456 22422 22423 22424 ] final  101.35 input   54.84 | X-H torsion
[ 11440 11420 11419 11416 ] final -138.64 input   60.01 | X-H torsion
[ 11650 11609 11610 11611 ] final  -58.41 input   61.57 | X-H torsion
[ 11832 11793 11794 11795 ] final   -2.14 input   91.14 | X-H torsion
[ 16996 16957 16958 16959 ] final   35.07 input   91.87 | X-H torsion
[ 27198 18540 18539 18538 ] final  -32.62 input   -0.00 | X-H torsion
[ 27200 18633 18632 18631 ] final   70.15 input    0.00 | X-H torsion
[ 27203 18695 18694 18693 ] final   39.98 input   -0.00 | X-H torsion
[ 27222 17133 17132 17131 ] final  -92.34 input    0.00 | X-H torsion
[ 27226 11612 11611 11610 ] final   18.91 input    0.00 | X-H torsion
[ 27230 17060 17059 17058 ] final -137.22 input   -0.00 | X-H torsion
[ 27232 18752 18751 18750 ] final -148.56 input    0.00 | X-H torsion
[ 27234 18596 18595 18594 ] final   20.16 input   -0.00 | X-H torsion
[ 27238 18929 18928 18927 ] final -123.32 input   -0.00 | X-H torsion
[ 27240 19016 19015 19014 ] final  -48.69 input   -0.00 | X-H torsion
[ 27243 11418 11417 11416 ] final  -33.25 input    0.00 | X-H torsion
[ 27245 17183 17182 17181 ] final  119.74 input   -0.00 | X-H torsion
[ 27247 18378 18377 18376 ] final  -77.69 input   -0.00 | X-H torsion
[ 27250 18217 18216 18215 ] final   25.70 input    0.00 | X-H torsion
[ 27254 17229 17228 17227 ] final   98.73 input   -0.00 | X-H torsion
[ 27259 18320 18319 18318 ] final  -47.77 input    0.00 | X-H torsion
[ 27261 18468 18467 18466 ] final  -90.86 input    0.00 | X-H torsion
[ 27264 18282 18281 18280 ] final -147.48 input   -0.00 | X-H torsion
[ 27267 17020 17019 17018 ] final  112.68 input   -0.00 | X-H torsion
[ 27275 16960 16959 16958 ] final   -8.53 input    0.00 | X-H torsion

> <Gold.Protein.ActiveResidues>
 TRP414  CYS420  VAL421  GLY422  LEU460  SER462  SER482  GLN483  ILE485  ARG486 
 TYR487  ASP500  ASN503  TRP566  TYR567  GLY568  LEU569  PRO570  ALA571  VAL572 
 SER573  ASN574  PHE589  SER590  GLY591  TRP592  TYR593  MET594  GLY595  THR596 
 GLU597  ILE598  GLY599  VAL600  ARG601  ASP602  TYR603  ARG608  ILE653  VAL654 
 TRP683  PRO687  HEM750  H4B760 

> <Gold.Protein.RotatedAtoms>
  241.5962   11.4048   32.0296 H   0  0  0  0  0  0  0  0  0  0  0  0  # atno 7496 bound_to 7462
  242.2113    8.6915   31.1260 H   0  0  0  0  0  0  0  0  0  0  0  0  # atno 7530 bound_to 7517
  247.5825    1.2448   35.7939 H   0  0  0  0  0  0  0  0  0  0  0  0  # atno 10120 bound_to 10100
  254.3384   20.2437   41.8797 H   0  0  0  0  0  0  0  0  0  0  0  0  # atno 11440 bound_to 11420
  253.5899   16.3080   42.4192 H   0  0  0  0  0  0  0  0  0  0  0  0  # atno 11501 bound_to 11468
  258.0730   13.1481   41.4464 H   0  0  0  0  0  0  0  0  0  0  0  0  # atno 11650 bound_to 11609
  260.3495   18.3534   38.1632 H   0  0  0  0  0  0  0  0  0  0  0  0  # atno 11832 bound_to 11793
  259.7897   12.8846   31.6917 H   0  0  0  0  0  0  0  0  0  0  0  0  # atno 16996 bound_to 16957
  256.5997   15.4678   36.7574 H   0  0  0  0  0  0  0  0  0  0  0  0  # atno 17004 bound_to 16968
  254.3613   10.1471   38.0778 H   0  0  0  0  0  0  0  0  0  0  0  0  # atno 17200 bound_to 17180
  251.0873   11.4062   39.7206 H   0  0  0  0  0  0  0  0  0  0  0  0  # atno 17260 bound_to 17226
  250.4867   13.6298   43.4152 H   0  0  0  0  0  0  0  0  0  0  0  0  # atno 17308 bound_to 17287
  250.4345    5.7546   41.0998 H   0  0  0  0  0  0  0  0  0  0  0  0  # atno 18300 bound_to 18279
  252.0517    4.7276   40.5393 H   0  0  0  0  0  0  0  0  0  0  0  0  # atno 18304 bound_to 18284
  249.6232    6.8678   37.3539 H   0  0  0  0  0  0  0  0  0  0  0  0  # atno 18330 bound_to 18317
  249.5650    5.6059   33.4276 H   0  0  0  0  0  0  0  0  0  0  0  0  # atno 18419 bound_to 18375
  251.2375    7.1328   30.8388 H   0  0  0  0  0  0  0  0  0  0  0  0  # atno 18504 bound_to 18465
  254.3860   13.7517   34.2289 H   0  0  0  0  0  0  0  0  0  0  0  0  # atno 18512 bound_to 18476
  250.7254    9.8821   28.9385 H   0  0  0  0  0  0  0  0  0  0  0  0  # atno 18572 bound_to 18537
  249.7772   10.8180   25.1164 H   0  0  0  0  0  0  0  0  0  0  0  0  # atno 18606 bound_to 18593
  246.6178   15.1761   25.5078 H   0  0  0  0  0  0  0  0  0  0  0  0  # atno 18664 bound_to 18636
  249.5419   15.8384   26.7226 H   0  0  0  0  0  0  0  0  0  0  0  0  # atno 18719 bound_to 18692
  252.1423   16.3957   28.4361 H   0  0  0  0  0  0  0  0  0  0  0  0  # atno 18790 bound_to 18749
  254.3593   17.0068   26.2410 H   0  0  0  0  0  0  0  0  0  0  0  0  # atno 18826 bound_to 18813
  253.0803   18.7720   24.9503 H   0  0  0  0  0  0  0  0  0  0  0  0  # atno 18884 bound_to 18850
  250.9234   19.3099   26.8317 H   0  0  0  0  0  0  0  0  0  0  0  0  # atno 18976 bound_to 18926
  253.1734   19.4284   28.5579 H   0  0  0  0  0  0  0  0  0  0  0  0  # atno 19033 bound_to 19013
  254.9753   21.5378   27.8938 H   0  0  0  0  0  0  0  0  0  0  0  0  # atno 19112 bound_to 19073
  250.4327    6.5444   26.7466 H   0  0  0  0  0  0  0  0  0  0  0  0  # atno 22456 bound_to 22422
  255.6275   14.7867   35.6441 LP  0  0  0  0  0  0  0  0  0  0  0  0  # atno 27193 bound_to 16968
  256.5437   16.0799   35.2506 LP  0  0  0  0  0  0  0  0  0  0  0  0  # atno 27194 bound_to 16968
  255.0017   14.5841   32.9739 LP  0  0  0  0  0  0  0  0  0  0  0  0  # atno 27195 bound_to 18476
  255.8826   13.4102   33.6899 LP  0  0  0  0  0  0  0  0  0  0  0  0  # atno 27196 bound_to 18476
  249.1179    9.9589   29.6249 LP  0  0  0  0  0  0  0  0  0  0  0  0  # atno 27197 bound_to 18537
  249.9182   12.7470   28.3507 LP  0  0  0  0  0  0  0  0  0  0  0  0  # atno 27198 bound_to 18540
  251.4337   12.7512   27.5122 LP  0  0  0  0  0  0  0  0  0  0  0  0  # atno 27199 bound_to 18540
  249.7530   17.9182   26.1802 LP  0  0  0  0  0  0  0  0  0  0  0  0  # atno 27200 bound_to 18633
  251.3834   17.5001   26.5890 LP  0  0  0  0  0  0  0  0  0  0  0  0  # atno 27201 bound_to 18633
  250.3329   14.3715   27.2264 LP  0  0  0  0  0  0  0  0  0  0  0  0  # atno 27202 bound_to 18692
  251.7479   17.7040   30.1676 LP  0  0  0  0  0  0  0  0  0  0  0  0  # atno 27203 bound_to 18695
  252.7628   18.2082   28.8577 LP  0  0  0  0  0  0  0  0  0  0  0  0  # atno 27204 bound_to 18695
  252.4974   14.8873   27.6201 LP  0  0  0  0  0  0  0  0  0  0  0  0  # atno 27209 bound_to 18749
  252.7519   21.0674   28.9976 LP  0  0  0  0  0  0  0  0  0  0  0  0  # atno 27210 bound_to 19013
  251.4234    9.3125   37.3921 LP  0  0  0  0  0  0  0  0  0  0  0  0  # atno 27222 bound_to 17133
  252.7162    8.1684   37.5330 LP  0  0  0  0  0  0  0  0  0  0  0  0  # atno 27223 bound_to 17133
  253.1590   11.4122   38.1933 LP  0  0  0  0  0  0  0  0  0  0  0  0  # atno 27224 bound_to 17180
  252.2714   11.1515   40.9853 LP  0  0  0  0  0  0  0  0  0  0  0  0  # atno 27225 bound_to 17226
  257.3660   13.3706   38.4440 LP  0  0  0  0  0  0  0  0  0  0  0  0  # atno 27226 bound_to 11612
  257.9358   14.8028   37.6539 LP  0  0  0  0  0  0  0  0  0  0  0  0  # atno 27227 bound_to 11612
  256.0769   10.3123   37.5818 LP  0  0  0  0  0  0  0  0  0  0  0  0  # atno 27230 bound_to 17060
  257.4799   10.1874   36.5739 LP  0  0  0  0  0  0  0  0  0  0  0  0  # atno 27231 bound_to 17060
  254.5525   18.9729   26.0575 LP  0  0  0  0  0  0  0  0  0  0  0  0  # atno 27232 bound_to 18752
  255.5564   18.4141   27.3536 LP  0  0  0  0  0  0  0  0  0  0  0  0  # atno 27233 bound_to 18752
  253.2633   13.8836   25.0652 LP  0  0  0  0  0  0  0  0  0  0  0  0  # atno 27234 bound_to 18596
  252.2345   15.1683   25.6047 LP  0  0  0  0  0  0  0  0  0  0  0  0  # atno 27235 bound_to 18596
  253.3793   15.7808   25.4657 LP  0  0  0  0  0  0  0  0  0  0  0  0  # atno 27236 bound_to 18813
  251.6656   20.6270   25.9614 LP  0  0  0  0  0  0  0  0  0  0  0  0  # atno 27237 bound_to 18926
  253.9652   22.7854   28.2591 LP  0  0  0  0  0  0  0  0  0  0  0  0  # atno 27238 bound_to 18929
  252.5859   23.1953   29.2232 LP  0  0  0  0  0  0  0  0  0  0  0  0  # atno 27239 bound_to 18929
  256.0381   22.7872   29.8700 LP  0  0  0  0  0  0  0  0  0  0  0  0  # atno 27240 bound_to 19016
  257.4037   22.0876   29.0663 LP  0  0  0  0  0  0  0  0  0  0  0  0  # atno 27241 bound_to 19016
  255.7352   19.9777   27.6746 LP  0  0  0  0  0  0  0  0  0  0  0  0  # atno 27242 bound_to 19073
  251.5967   15.9189   43.2663 LP  0  0  0  0  0  0  0  0  0  0  0  0  # atno 27243 bound_to 11418
  252.1273   15.4326   41.6909 LP  0  0  0  0  0  0  0  0  0  0  0  0  # atno 27244 bound_to 11418
  253.7289   12.8600   41.3906 LP  0  0  0  0  0  0  0  0  0  0  0  0  # atno 27245 bound_to 17183
  254.0104   11.3845   42.2531 LP  0  0  0  0  0  0  0  0  0  0  0  0  # atno 27246 bound_to 17183
  248.9963    7.2141   31.4734 LP  0  0  0  0  0  0  0  0  0  0  0  0  # atno 27247 bound_to 18378
  249.4609    8.5218   32.5098 LP  0  0  0  0  0  0  0  0  0  0  0  0  # atno 27248 bound_to 18378
  252.5314    7.9630   31.6743 LP  0  0  0  0  0  0  0  0  0  0  0  0  # atno 27249 bound_to 18465
  250.7518    9.3676   41.7523 LP  0  0  0  0  0  0  0  0  0  0  0  0  # atno 27250 bound_to 18217
  250.4984    8.9862   40.0819 LP  0  0  0  0  0  0  0  0  0  0  0  0  # atno 27251 bound_to 18217
  251.1068   10.5423   43.4567 LP  0  0  0  0  0  0  0  0  0  0  0  0  # atno 27254 bound_to 17229
  249.4904   11.1637   43.4211 LP  0  0  0  0  0  0  0  0  0  0  0  0  # atno 27255 bound_to 17229
  249.6075    7.2641   40.8040 LP  0  0  0  0  0  0  0  0  0  0  0  0  # atno 27256 bound_to 18279
  251.1815    6.0772   37.4233 LP  0  0  0  0  0  0  0  0  0  0  0  0  # atno 27257 bound_to 18317
  250.8045    5.8785   34.6338 LP  0  0  0  0  0  0  0  0  0  0  0  0  # atno 27258 bound_to 18375
  252.5362    5.2748   35.8967 LP  0  0  0  0  0  0  0  0  0  0  0  0  # atno 27259 bound_to 18320
  252.5225    4.3913   34.4069 LP  0  0  0  0  0  0  0  0  0  0  0  0  # atno 27260 bound_to 18320
  251.3088    8.1575   27.4869 LP  0  0  0  0  0  0  0  0  0  0  0  0  # atno 27261 bound_to 18468
  250.1747    7.2537   28.4341 LP  0  0  0  0  0  0  0  0  0  0  0  0  # atno 27262 bound_to 18468
  241.3047    8.3253   32.5749 LP  0  0  0  0  0  0  0  0  0  0  0  0  # atno 27263 bound_to 7517
  249.9277    3.8592   38.0392 LP  0  0  0  0  0  0  0  0  0  0  0  0  # atno 27264 bound_to 18282
  249.5155    4.5459   39.5749 LP  0  0  0  0  0  0  0  0  0  0  0  0  # atno 27265 bound_to 18282
  240.6322   10.2682   32.9506 LP  0  0  0  0  0  0  0  0  0  0  0  0  # atno 27266 bound_to 7462
  256.0215    6.7040   32.9352 LP  0  0  0  0  0  0  0  0  0  0  0  0  # atno 27267 bound_to 17020
  255.9147    8.1938   32.0581 LP  0  0  0  0  0  0  0  0  0  0  0  0  # atno 27268 bound_to 17020
  250.4886   11.1195   26.6889 LP  0  0  0  0  0  0  0  0  0  0  0  0  # atno 27269 bound_to 18593
  248.9476    2.1195   35.9360 LP  0  0  0  0  0  0  0  0  0  0  0  0  # atno 27270 bound_to 10100
  247.5006    2.7996   36.2679 LP  0  0  0  0  0  0  0  0  0  0  0  0  # atno 27271 bound_to 10100
  253.5863    4.7953   40.0027 LP  0  0  0  0  0  0  0  0  0  0  0  0  # atno 27272 bound_to 18284
  252.3774    4.3964   38.9799 LP  0  0  0  0  0  0  0  0  0  0  0  0  # atno 27273 bound_to 18284
  255.3322   16.4836   42.4689 LP  0  0  0  0  0  0  0  0  0  0  0  0  # atno 27274 bound_to 11468
  258.3245   11.8415   31.7824 LP  0  0  0  0  0  0  0  0  0  0  0  0  # atno 27275 bound_to 16960
  257.7491   10.2324   31.4999 LP  0  0  0  0  0  0  0  0  0  0  0  0  # atno 27276 bound_to 16960

> <Gold.Score>
     Fitness  S(hb_ext) S(vdw_ext)  S(hb_int)    S(int)      intcor
     33.30       6.36      20.61       0.00      -1.40      -0.83

> <Gold.Goldscore.Fitness>
33.2988

> <Gold.Goldscore.Internal.Vdw>
-1.7859

> <Gold.Goldscore.Internal.Torsion>
-0.4505

> <Gold.Goldscore.External.Vdw>
20.6122

> <Gold.Goldscore.Internal.HBond>
0.0000

> <Gold.Goldscore.External.HBond>
6.3616

> <Gold.Goldscore.Internal.Correction>
-0.8319

> <Gold.Goldscore.Hbonds>
donor molecule, donor type, donor heavy atom, donor atom, acceptor molecule, acceptor atom, score
      P1  H 19355 19405       L1     9  0.03
      L1  H     8    22       P1 19019  0.03
      L1  H    10    23       P1 27122  1.00

> <Gold.Goldscore.Internal.Vdw.Weighted>
-1.7859

> <Gold.Goldscore.Internal.Torsion.Weighted>
-0.4505

> <Gold.Goldscore.External.Vdw.Weighted>
28.3418

> <Gold.Goldscore.Internal.HBond.Weighted>
0.0000

> <Gold.Goldscore.External.HBond.Weighted>
6.3616

> <Gold.Goldscore.Internal.Correction.Weighted>
-0.8319

> <Gold.Rescore>
     Score     S(PLP)   S(hbond)     S(cho)   S(metal)  DE(clash)   DE(tors)     intcor
     17.59     -17.09       0.68       0.00       0.00       1.09       0.24       ----

> <Gold.PLP.Fitness>
17.5891

> <Gold.PLP.PLP>
-17.0925

> <Gold.PLP.part.hbond>
-4.4486

> <Gold.PLP.part.metal>
0.0000

> <Gold.PLP.part.buried>
-1.5568

> <Gold.PLP.part.nonpolar>
-14.2032

> <Gold.PLP.part.repulsive>
1.4517

> <Gold.PLP.ligand.clash>
1.0856

> <Gold.PLP.ligand.torsion>
0.2359

> <Gold.PLP.Chemscore.Hbond>
0.6847

> <Gold.PLP.Chemscore.CHOScore>
0.0000

> <Gold.PLP.Chemscore.Metal>
0.0000

> <Gold.Chemscore.Hbonds>
donor molecule, donor type, donor heavy atom, donor atom, acceptor molecule, acceptor atom, score
      L1  H     8    22       P1 19019  0.01
      L1  H    10    23       P1 27122  0.39
      P1  H 19355 19405       L1     9  0.63

> <Gold.PLP.Chemscore.Internal.Correction>
   9.000000E+99

