#       Name:                CT1002167954
#       Creating user name   hitesit
#       Creation time:       Sun Apr 16 23:06:27 2023


#       File generated by GOLD software.
#

@<TRIPOS>MOLECULE
CT1002167954|ligand_prepared|mol2|1|dock9
    29    30     1
SMALL
NO_CHARGES


@<TRIPOS>ATOM
      1 C1         248.7742  11.3910  35.2613 C.3            1 RES1               0.0000
      2 C2         248.7298  12.8759  35.6758 C.ar           1 RES1               0.0000
      3 C3         249.6950  10.6949  36.2592 C.2            1 RES1               0.0000
      4 C4         247.3327  10.8956  35.2945 C.2            1 RES1               0.0000
      5 C5         249.3273  11.1564  33.8363 C.3            1 RES1               0.0000
      6 C6         249.6189  13.7929  35.1230 C.ar           1 RES1               0.0000
      7 C7         247.8055  13.3434  36.6062 C.ar           1 RES1               0.0000
      8 N8         249.1172   9.8940  37.1997 N.am           1 RES1               0.0000
      9 O9         250.9061  10.8772  36.2459 O.2            1 RES1               0.0000
     10 N10        247.0023   9.9431  36.2226 N.am           1 RES1               0.0000
     11 O11        246.4761  11.3334  34.5363 O.2            1 RES1               0.0000
     12 C12        248.9876   9.7892  33.2641 C.3            1 RES1               0.0000
     13 C13        249.5832  15.1293  35.4849 C.ar           1 RES1               0.0000
     14 C14        247.7717  14.6803  36.9668 C.ar           1 RES1               0.0000
     15 C15        247.8219   9.4422  37.1970 C.2            1 RES1               0.0000
     16 C16        248.6595  15.5740  36.4066 C.ar           1 RES1               0.0000
     17 O17        247.4365   8.6274  38.0305 O.2            1 RES1               0.0000
     18 H18        248.9240  11.9285  33.1694 H              1 RES1               0.0000
     19 H19        250.4184  11.2688  33.8580 H              1 RES1               0.0000
     20 H20        250.3545  13.4609  34.3979 H              1 RES1               0.0000
     21 H21        247.0981  12.6582  37.0608 H              1 RES1               0.0000
     22 H22        249.7022   9.6042  37.9769 H              1 RES1               0.0000
     23 H23        246.0579   9.5732  36.1834 H              1 RES1               0.0000
     24 H24        249.3992   9.6768  32.2633 H              1 RES1               0.0000
     25 H25        249.3952   8.9974  33.8890 H              1 RES1               0.0000
     26 H26        247.9097   9.6530  33.2045 H              1 RES1               0.0000
     27 H27        250.2850  15.8284  35.0421 H              1 RES1               0.0000
     28 H28        247.0434  15.0258  37.6931 H              1 RES1               0.0000
     29 H29        248.6315  16.6211  36.6896 H              1 RES1               0.0000
@<TRIPOS>BOND
    1    1    2 1     
    2    1    3 1     
    3    1    4 1     
    4    1    5 1     
    5    2    6 ar    
    6    2    7 ar    
    7    3    8 1     
    8    3    9 2     
    9    4   10 1     
   10    4   11 2     
   11    5   12 1     
   12    5   18 1     
   13    5   19 1     
   14    6   13 ar    
   15    6   20 1     
   16    7   14 ar    
   17    7   21 1     
   18    8   15 1     
   19    8   22 1     
   20   10   15 1     
   21   10   23 1     
   22   12   24 1     
   23   12   25 1     
   24   12   26 1     
   25   13   16 ar    
   26   13   27 1     
   27   14   16 ar    
   28   14   28 1     
   29   15   17 2     
   30   16   29 1     
@<TRIPOS>SUBSTRUCTURE
      1 RES1           1
@<TRIPOS>SET
DONOR_HYDROGENS      STATIC     ATOMS    <user>   **** ""
2 22 23
ATOM$RED        STATIC     ATOMS    COLORGROUP SYSTEM
2 22 23
@<TRIPOS>COMMENT
> <Gold.Version>
2022.3.0

> <Gold.Id.Protein>
unknown|4d1n_clean|pdb

> <Gold.Protein.RotatedTorsions>
[ 17004 16968 16967 16965 ] final   33.31 input   59.98 | X-H torsion
[ 18512 18476 18475 18473 ] final  -70.93 input   59.98 | X-H torsion
[ 18572 18537 18538 18539 ] final  -64.20 input   87.04 | X-H torsion
[ 18719 18692 18693 18694 ] final   87.18 input  124.02 | X-H torsion
[ 18790 18749 18750 18751 ] final   94.63 input   91.60 | X-H torsion
[ 19033 19013 19014 19015 ] final  168.70 input  122.46 | X-H torsion
[ 17200 17180 17181 17182 ] final  -86.52 input   47.21 | X-H torsion
[ 17260 17226 17227 17228 ] final  -34.38 input  117.85 | X-H torsion
[ 18826 18813 18814 18815 ] final  -24.86 input  116.01 | X-H torsion
[ 18976 18926 18927 18928 ] final   39.03 input  102.20 | X-H torsion
[ 19112 19073 19074 19075 ] final  -34.96 input   89.03 | X-H torsion
[ 18504 18465 18466 18467 ] final  -35.03 input  102.26 | X-H torsion
[ 18300 18279 18280 18281 ] final  -83.02 input   28.27 | X-H torsion
[ 18330 18317 18318 18319 ] final -170.08 input   50.43 | X-H torsion
[ 18419 18375 18376 18377 ] final  -38.30 input   32.92 | X-H torsion
[ 7530 7517 7518 7519 ] final  -63.74 input   89.56 | X-H torsion
[ 7496 7462 7463 7464 ] final  149.78 input  103.52 | X-H torsion
[ 18606 18593 18594 18595 ] final   20.16 input  124.70 | X-H torsion
[ 10120 10100 10099 10096 ] final  -47.11 input   60.00 | X-H torsion
[ 18304 18284 18283 18280 ] final  -10.65 input   60.01 | X-H torsion
[ 11501 11468 11469 11470 ] final  -74.48 input   45.03 | X-H torsion
[ 18664 18636 18634 18631 ] final    3.58 input   60.01 | X-H torsion
[ 18884 18850 18851 18852 ] final -129.39 input   84.91 | X-H torsion
[ 17308 17287 17288 17289 ] final   -2.33 input   50.16 | X-H torsion
[ 22456 22422 22423 22424 ] final -126.90 input   54.84 | X-H torsion
[ 11440 11420 11419 11416 ] final -173.80 input   60.01 | X-H torsion
[ 11650 11609 11610 11611 ] final -167.98 input   61.57 | X-H torsion
[ 11832 11793 11794 11795 ] final  -34.83 input   91.14 | X-H torsion
[ 16996 16957 16958 16959 ] final  -42.10 input   91.87 | X-H torsion
[ 27198 18540 18539 18538 ] final -178.96 input   -0.00 | X-H torsion
[ 27200 18633 18632 18631 ] final   43.06 input    0.00 | X-H torsion
[ 27203 18695 18694 18693 ] final  155.46 input   -0.00 | X-H torsion
[ 27222 17133 17132 17131 ] final  -46.66 input    0.00 | X-H torsion
[ 27226 11612 11611 11610 ] final  169.62 input    0.00 | X-H torsion
[ 27230 17060 17059 17058 ] final  -50.77 input   -0.00 | X-H torsion
[ 27232 18752 18751 18750 ] final   79.88 input    0.00 | X-H torsion
[ 27234 18596 18595 18594 ] final  -49.53 input   -0.00 | X-H torsion
[ 27238 18929 18928 18927 ] final   99.46 input   -0.00 | X-H torsion
[ 27240 19016 19015 19014 ] final   26.20 input   -0.00 | X-H torsion
[ 27243 11418 11417 11416 ] final  102.99 input    0.00 | X-H torsion
[ 27245 17183 17182 17181 ] final  121.70 input   -0.00 | X-H torsion
[ 27247 18378 18377 18376 ] final  -99.14 input   -0.00 | X-H torsion
[ 27250 18217 18216 18215 ] final   98.73 input    0.00 | X-H torsion
[ 27254 17229 17228 17227 ] final   32.00 input   -0.00 | X-H torsion
[ 27259 18320 18319 18318 ] final  118.56 input    0.00 | X-H torsion
[ 27261 18468 18467 18466 ] final  -73.35 input    0.00 | X-H torsion
[ 27264 18282 18281 18280 ] final  -44.99 input   -0.00 | X-H torsion
[ 27267 17020 17019 17018 ] final -116.73 input   -0.00 | X-H torsion
[ 27275 16960 16959 16958 ] final  -18.45 input    0.00 | X-H torsion

> <Gold.Protein.ActiveResidues>
 TRP414  CYS420  VAL421  GLY422  LEU460  SER462  SER482  GLN483  ILE485  ARG486 
 TYR487  ASP500  ASN503  TRP566  TYR567  GLY568  LEU569  PRO570  ALA571  VAL572 
 SER573  ASN574  PHE589  SER590  GLY591  TRP592  TYR593  MET594  GLY595  THR596 
 GLU597  ILE598  GLY599  VAL600  ARG601  ASP602  TYR603  ARG608  ILE653  VAL654 
 TRP683  PRO687  HEM750  H4B760 

> <Gold.Protein.RotatedAtoms>
  241.1764   11.5803   32.0274 H   0  0  0  0  0  0  0  0  0  0  0  0  # atno 7496 bound_to 7462
  241.0966    8.1748   31.3663 H   0  0  0  0  0  0  0  0  0  0  0  0  # atno 7530 bound_to 7517
  248.6319    2.7354   36.1527 H   0  0  0  0  0  0  0  0  0  0  0  0  # atno 10120 bound_to 10100
  253.9681   20.1442   41.4637 H   0  0  0  0  0  0  0  0  0  0  0  0  # atno 11440 bound_to 11420
  254.2606   16.0455   43.2357 H   0  0  0  0  0  0  0  0  0  0  0  0  # atno 11501 bound_to 11468
  258.5590   11.7770   41.4605 H   0  0  0  0  0  0  0  0  0  0  0  0  # atno 11650 bound_to 11609
  260.6318   18.0356   38.4337 H   0  0  0  0  0  0  0  0  0  0  0  0  # atno 11832 bound_to 11793
  260.4766   12.3914   30.9914 H   0  0  0  0  0  0  0  0  0  0  0  0  # atno 16996 bound_to 16957
  255.9308   14.7842   36.4635 H   0  0  0  0  0  0  0  0  0  0  0  0  # atno 17004 bound_to 16968
  252.9080   10.7133   37.8720 H   0  0  0  0  0  0  0  0  0  0  0  0  # atno 17200 bound_to 17180
  252.2631   11.1478   41.0353 H   0  0  0  0  0  0  0  0  0  0  0  0  # atno 17260 bound_to 17226
  250.8392   14.1000   43.4473 H   0  0  0  0  0  0  0  0  0  0  0  0  # atno 17308 bound_to 17287
  249.3913    7.0686   40.6645 H   0  0  0  0  0  0  0  0  0  0  0  0  # atno 18300 bound_to 18279
  251.7484    4.5555   39.9799 H   0  0  0  0  0  0  0  0  0  0  0  0  # atno 18304 bound_to 18284
  249.7712    6.1250   37.8960 H   0  0  0  0  0  0  0  0  0  0  0  0  # atno 18330 bound_to 18317
  250.0377    6.6105   34.1763 H   0  0  0  0  0  0  0  0  0  0  0  0  # atno 18419 bound_to 18375
  251.0874    7.2352   31.0731 H   0  0  0  0  0  0  0  0  0  0  0  0  # atno 18504 bound_to 18465
  255.2082   14.5123   32.9222 H   0  0  0  0  0  0  0  0  0  0  0  0  # atno 18512 bound_to 18476
  250.6456    9.6050   28.9038 H   0  0  0  0  0  0  0  0  0  0  0  0  # atno 18572 bound_to 18537
  249.5973   11.6786   25.8603 H   0  0  0  0  0  0  0  0  0  0  0  0  # atno 18606 bound_to 18593
  248.1816   14.5065   26.2757 H   0  0  0  0  0  0  0  0  0  0  0  0  # atno 18664 bound_to 18636
  250.2746   14.3417   27.2275 H   0  0  0  0  0  0  0  0  0  0  0  0  # atno 18719 bound_to 18692
  252.5214   14.8798   27.5780 H   0  0  0  0  0  0  0  0  0  0  0  0  # atno 18790 bound_to 18749
  253.6885   17.1644   26.2376 H   0  0  0  0  0  0  0  0  0  0  0  0  # atno 18826 bound_to 18813
  252.7684   18.4605   23.7663 H   0  0  0  0  0  0  0  0  0  0  0  0  # atno 18884 bound_to 18850
  251.9445   19.4805   26.7232 H   0  0  0  0  0  0  0  0  0  0  0  0  # atno 18976 bound_to 18926
  252.7268   19.6745   29.4047 H   0  0  0  0  0  0  0  0  0  0  0  0  # atno 19033 bound_to 19013
  255.1033   21.5558   28.0393 H   0  0  0  0  0  0  0  0  0  0  0  0  # atno 19112 bound_to 19073
  251.2936    5.7317   25.6461 H   0  0  0  0  0  0  0  0  0  0  0  0  # atno 22456 bound_to 22422
  255.9575   15.4809   34.9930 LP  0  0  0  0  0  0  0  0  0  0  0  0  # atno 27193 bound_to 16968
  256.8871   16.0738   36.1975 LP  0  0  0  0  0  0  0  0  0  0  0  0  # atno 27194 bound_to 16968
  255.7749   13.3105   33.8611 LP  0  0  0  0  0  0  0  0  0  0  0  0  # atno 27195 bound_to 18476
  254.2810   13.9172   34.1194 LP  0  0  0  0  0  0  0  0  0  0  0  0  # atno 27196 bound_to 18476
  249.1952   10.2275   29.6585 LP  0  0  0  0  0  0  0  0  0  0  0  0  # atno 27197 bound_to 18537
  251.1265   13.0559   27.2585 LP  0  0  0  0  0  0  0  0  0  0  0  0  # atno 27198 bound_to 18540
  250.2254   12.4423   28.6044 LP  0  0  0  0  0  0  0  0  0  0  0  0  # atno 27199 bound_to 18540
  249.9367   17.8884   25.8198 LP  0  0  0  0  0  0  0  0  0  0  0  0  # atno 27200 bound_to 18633
  251.1997   17.5299   26.9495 LP  0  0  0  0  0  0  0  0  0  0  0  0  # atno 27201 bound_to 18633
  249.6013   15.8657   26.7224 LP  0  0  0  0  0  0  0  0  0  0  0  0  # atno 27202 bound_to 18692
  253.0845   17.7126   29.5686 LP  0  0  0  0  0  0  0  0  0  0  0  0  # atno 27203 bound_to 18695
  251.4261   18.1995   29.4566 LP  0  0  0  0  0  0  0  0  0  0  0  0  # atno 27204 bound_to 18695
  252.1318   16.3493   28.4477 LP  0  0  0  0  0  0  0  0  0  0  0  0  # atno 27209 bound_to 18749
  253.1863   20.8279   28.1736 LP  0  0  0  0  0  0  0  0  0  0  0  0  # atno 27210 bound_to 19013
  251.6580    9.1090   36.7958 LP  0  0  0  0  0  0  0  0  0  0  0  0  # atno 27222 bound_to 17133
  252.4816    8.3719   38.1293 LP  0  0  0  0  0  0  0  0  0  0  0  0  # atno 27223 bound_to 17133
  254.5710   10.8622   38.3933 LP  0  0  0  0  0  0  0  0  0  0  0  0  # atno 27224 bound_to 17180
  251.1378   11.4006   39.7178 LP  0  0  0  0  0  0  0  0  0  0  0  0  # atno 27225 bound_to 17226
  257.6855   14.9495   37.9821 LP  0  0  0  0  0  0  0  0  0  0  0  0  # atno 27226 bound_to 11612
  257.6162   13.2240   38.1157 LP  0  0  0  0  0  0  0  0  0  0  0  0  # atno 27227 bound_to 11612
  257.0043    9.5727   37.5683 LP  0  0  0  0  0  0  0  0  0  0  0  0  # atno 27230 bound_to 17060
  256.5525   10.9269   36.5874 LP  0  0  0  0  0  0  0  0  0  0  0  0  # atno 27231 bound_to 17060
  255.8457   18.3415   26.7087 LP  0  0  0  0  0  0  0  0  0  0  0  0  # atno 27232 bound_to 18752
  254.2632   19.0454   26.7025 LP  0  0  0  0  0  0  0  0  0  0  0  0  # atno 27233 bound_to 18752
  252.9974   14.0380   26.0059 LP  0  0  0  0  0  0  0  0  0  0  0  0  # atno 27234 bound_to 18596
  252.5005   15.0139   24.6640 LP  0  0  0  0  0  0  0  0  0  0  0  0  # atno 27235 bound_to 18596
  254.0277   15.6286   25.4690 LP  0  0  0  0  0  0  0  0  0  0  0  0  # atno 27236 bound_to 18813
  250.6568   20.4584   26.0687 LP  0  0  0  0  0  0  0  0  0  0  0  0  # atno 27237 bound_to 18926
  253.0656   22.9934   29.5814 LP  0  0  0  0  0  0  0  0  0  0  0  0  # atno 27238 bound_to 18929
  253.4855   22.9873   27.9010 LP  0  0  0  0  0  0  0  0  0  0  0  0  # atno 27239 bound_to 18929
  256.6773   22.0330   30.2328 LP  0  0  0  0  0  0  0  0  0  0  0  0  # atno 27240 bound_to 19016
  256.7645   22.8418   28.7036 LP  0  0  0  0  0  0  0  0  0  0  0  0  # atno 27241 bound_to 19016
  255.6109   19.9602   27.5333 LP  0  0  0  0  0  0  0  0  0  0  0  0  # atno 27242 bound_to 19073
  251.8482   16.0145   41.6817 LP  0  0  0  0  0  0  0  0  0  0  0  0  # atno 27243 bound_to 11418
  251.8758   15.3370   43.2755 LP  0  0  0  0  0  0  0  0  0  0  0  0  # atno 27244 bound_to 11418
  253.7066   12.8660   41.4092 LP  0  0  0  0  0  0  0  0  0  0  0  0  # atno 27245 bound_to 17183
  254.0327   11.3785   42.2345 LP  0  0  0  0  0  0  0  0  0  0  0  0  # atno 27246 bound_to 17183
  249.0422    7.4486   31.2572 LP  0  0  0  0  0  0  0  0  0  0  0  0  # atno 27247 bound_to 18378
  249.4150    8.2874   32.7260 LP  0  0  0  0  0  0  0  0  0  0  0  0  # atno 27248 bound_to 18378
  252.6770    7.8636   31.4470 LP  0  0  0  0  0  0  0  0  0  0  0  0  # atno 27249 bound_to 18465
  251.4540    8.9989   41.0940 LP  0  0  0  0  0  0  0  0  0  0  0  0  # atno 27250 bound_to 18217
  249.7962    9.3549   40.7402 LP  0  0  0  0  0  0  0  0  0  0  0  0  # atno 27251 bound_to 18217
  250.5375   10.4782   42.6956 LP  0  0  0  0  0  0  0  0  0  0  0  0  # atno 27254 bound_to 17229
  250.0596   11.2277   44.1822 LP  0  0  0  0  0  0  0  0  0  0  0  0  # atno 27255 bound_to 17229
  250.6304    5.9758   41.2307 LP  0  0  0  0  0  0  0  0  0  0  0  0  # atno 27256 bound_to 18279
  251.0376    6.7994   36.8962 LP  0  0  0  0  0  0  0  0  0  0  0  0  # atno 27257 bound_to 18317
  250.3478    4.9079   33.9104 LP  0  0  0  0  0  0  0  0  0  0  0  0  # atno 27258 bound_to 18375
  252.4489    4.2399   34.5260 LP  0  0  0  0  0  0  0  0  0  0  0  0  # atno 27259 bound_to 18320
  252.6098    5.4262   35.7777 LP  0  0  0  0  0  0  0  0  0  0  0  0  # atno 27260 bound_to 18320
  251.4778    8.0436   27.6540 LP  0  0  0  0  0  0  0  0  0  0  0  0  # atno 27261 bound_to 18468
  250.0057    7.3676   28.2670 LP  0  0  0  0  0  0  0  0  0  0  0  0  # atno 27262 bound_to 18468
  242.3920    8.8294   32.3405 LP  0  0  0  0  0  0  0  0  0  0  0  0  # atno 27263 bound_to 7517
  250.4460    4.0829   39.2662 LP  0  0  0  0  0  0  0  0  0  0  0  0  # atno 27264 bound_to 18282
  248.9972    4.3222   38.3478 LP  0  0  0  0  0  0  0  0  0  0  0  0  # atno 27265 bound_to 18282
  241.0363   10.0993   32.9528 LP  0  0  0  0  0  0  0  0  0  0  0  0  # atno 27266 bound_to 7462
  255.6209    8.2103   32.7196 LP  0  0  0  0  0  0  0  0  0  0  0  0  # atno 27267 bound_to 17020
  256.3153    6.6875   32.2738 LP  0  0  0  0  0  0  0  0  0  0  0  0  # atno 27268 bound_to 17020
  250.6617   10.2914   25.9732 LP  0  0  0  0  0  0  0  0  0  0  0  0  # atno 27269 bound_to 18593
  247.0897    2.2159   36.1274 LP  0  0  0  0  0  0  0  0  0  0  0  0  # atno 27270 bound_to 10100
  248.3023    1.2028   35.7153 LP  0  0  0  0  0  0  0  0  0  0  0  0  # atno 27271 bound_to 10100
  253.2336    4.8821   40.5586 LP  0  0  0  0  0  0  0  0  0  0  0  0  # atno 27272 bound_to 18284
  253.0358    4.4829   38.9876 LP  0  0  0  0  0  0  0  0  0  0  0  0  # atno 27273 bound_to 18284
  254.6869   16.7362   41.6832 LP  0  0  0  0  0  0  0  0  0  0  0  0  # atno 27274 bound_to 11468
  258.2502   11.8313   31.9121 LP  0  0  0  0  0  0  0  0  0  0  0  0  # atno 27275 bound_to 16960
  257.8234   10.2426   31.3701 LP  0  0  0  0  0  0  0  0  0  0  0  0  # atno 27276 bound_to 16960

> <Gold.Score>
     Fitness  S(hb_ext) S(vdw_ext)  S(hb_int)    S(int)      intcor
     41.33       6.34      26.08       0.00      -0.87      -0.76

> <Gold.Goldscore.Fitness>
41.3255

> <Gold.Goldscore.Internal.Vdw>
-0.8023

> <Gold.Goldscore.Internal.Torsion>
-0.8301

> <Gold.Goldscore.External.Vdw>
26.0794

> <Gold.Goldscore.Internal.HBond>
0.0000

> <Gold.Goldscore.External.HBond>
6.3402

> <Gold.Goldscore.Internal.Correction>
-0.7585

> <Gold.Goldscore.Hbonds>
donor molecule, donor type, donor heavy atom, donor atom, acceptor molecule, acceptor atom, score
      P1  H 17180 17200       L1     9  0.73
      P1  M 26928 27277       L1    11  0.47
      L1  H     8    22       P1 18217  0.08

> <Gold.Goldscore.Internal.Vdw.Weighted>
-0.8023

> <Gold.Goldscore.Internal.Torsion.Weighted>
-0.8301

> <Gold.Goldscore.External.Vdw.Weighted>
35.8591

> <Gold.Goldscore.Internal.HBond.Weighted>
0.0000

> <Gold.Goldscore.External.HBond.Weighted>
6.3402

> <Gold.Goldscore.Internal.Correction.Weighted>
-0.7585

> <Gold.Rescore>
     Score     S(PLP)   S(hbond)     S(cho)   S(metal)  DE(clash)   DE(tors)     intcor
    -50.94      51.80       0.00       0.00       0.62       0.00       1.43       ----

> <Gold.PLP.Fitness>
-50.9417

> <Gold.PLP.PLP>
51.8010

> <Gold.PLP.part.hbond>
0.0000

> <Gold.PLP.part.metal>
-0.2096

> <Gold.PLP.part.buried>
80.6403

> <Gold.PLP.part.nonpolar>
-40.0137

> <Gold.PLP.part.repulsive>
8.8212

> <Gold.PLP.ligand.clash>
0.0000

> <Gold.PLP.ligand.torsion>
1.4285

> <Gold.PLP.Chemscore.Hbond>
0.0000

> <Gold.PLP.Chemscore.CHOScore>
0.0000

> <Gold.PLP.Chemscore.Metal>
0.6194

> <Gold.Chemscore.Hbonds>
donor molecule, donor type, donor heavy atom, donor atom, acceptor molecule, acceptor atom, score
      P1  M 26928 26928       L1    11  0.77

> <Gold.PLP.Chemscore.Internal.Correction>
   9.000000E+99

