#       Name:                CT1002167954
#       Creating user name   hitesit
#       Creation time:       Sun Apr 16 23:06:25 2023


#       File generated by GOLD software.
#

@<TRIPOS>MOLECULE
CT1002167954|ligand_prepared|mol2|1|dock7
    29    30     1
SMALL
NO_CHARGES


@<TRIPOS>ATOM
      1 C1         251.5561  17.4525  34.1091 C.3            1 RES1               0.0000
      2 C2         250.7472  16.2291  34.5862 C.ar           1 RES1               0.0000
      3 C3         252.1185  18.1108  35.3655 C.2            1 RES1               0.0000
      4 C4         252.6205  16.9159  33.1583 C.2            1 RES1               0.0000
      5 C5         250.7136  18.4980  33.3419 C.3            1 RES1               0.0000
      6 C6         251.2271  14.9388  34.3819 C.ar           1 RES1               0.0000
      7 C7         249.5230  16.3746  35.2332 C.ar           1 RES1               0.0000
      8 N8         253.4506  17.9600  35.6156 N.am           1 RES1               0.0000
      9 O9         251.3966  18.7195  36.1457 O.2            1 RES1               0.0000
     10 N10        253.9330  17.0250  33.5365 N.am           1 RES1               0.0000
     11 O11        252.3334  16.3845  32.0927 O.2            1 RES1               0.0000
     12 C12        249.7354  17.8887  32.3499 C.3            1 RES1               0.0000
     13 C13        250.5107  13.8342  34.8116 C.ar           1 RES1               0.0000
     14 C14        248.8080  15.2685  35.6619 C.ar           1 RES1               0.0000
     15 C15        254.3947  17.4950  34.7357 C.2            1 RES1               0.0000
     16 C16        249.3010  13.9982  35.4522 C.ar           1 RES1               0.0000
     17 O17        255.5878  17.5111  35.0243 O.2            1 RES1               0.0000
     18 H18        250.1522  19.1000  34.0670 H              1 RES1               0.0000
     19 H19        251.3916  19.1702  32.8015 H              1 RES1               0.0000
     20 H20        252.1760  14.7900  33.8774 H              1 RES1               0.0000
     21 H21        249.1152  17.3644  35.4081 H              1 RES1               0.0000
     22 H22        253.7749  18.2167  36.5426 H              1 RES1               0.0000
     23 H23        254.6306  16.7285  32.8613 H              1 RES1               0.0000
     24 H24        249.1699  18.6654  31.8392 H              1 RES1               0.0000
     25 H25        250.2619  17.3035  31.5989 H              1 RES1               0.0000
     26 H26        249.0298  17.2337  32.8568 H              1 RES1               0.0000
     27 H27        250.9023  12.8365  34.6429 H              1 RES1               0.0000
     28 H28        247.8561  15.4023  36.1651 H              1 RES1               0.0000
     29 H29        248.7401  13.1326  35.7890 H              1 RES1               0.0000
@<TRIPOS>BOND
    1    1    2 1     
    2    1    3 1     
    3    1    4 1     
    4    1    5 1     
    5    2    6 ar    
    6    2    7 ar    
    7    3    8 1     
    8    3    9 2     
    9    4   10 1     
   10    4   11 2     
   11    5   12 1     
   12    5   18 1     
   13    5   19 1     
   14    6   13 ar    
   15    6   20 1     
   16    7   14 ar    
   17    7   21 1     
   18    8   15 1     
   19    8   22 1     
   20   10   15 1     
   21   10   23 1     
   22   12   24 1     
   23   12   25 1     
   24   12   26 1     
   25   13   16 ar    
   26   13   27 1     
   27   14   16 ar    
   28   14   28 1     
   29   15   17 2     
   30   16   29 1     
@<TRIPOS>SUBSTRUCTURE
      1 RES1           1
@<TRIPOS>SET
DONOR_HYDROGENS      STATIC     ATOMS    <user>   **** ""
2 22 23
ATOM$RED        STATIC     ATOMS    COLORGROUP SYSTEM
2 22 23
@<TRIPOS>COMMENT
> <Gold.Version>
2022.3.0

> <Gold.Id.Protein>
unknown|4d1n_clean|pdb

> <Gold.Protein.RotatedTorsions>
[ 17004 16968 16967 16965 ] final -135.92 input   59.98 | X-H torsion
[ 18512 18476 18475 18473 ] final -170.14 input   59.98 | X-H torsion
[ 18572 18537 18538 18539 ] final  -23.55 input   87.04 | X-H torsion
[ 18719 18692 18693 18694 ] final  -58.52 input  124.02 | X-H torsion
[ 18790 18749 18750 18751 ] final   78.87 input   91.60 | X-H torsion
[ 19033 19013 19014 19015 ] final   -0.88 input  122.46 | X-H torsion
[ 17200 17180 17181 17182 ] final   51.23 input   47.21 | X-H torsion
[ 17260 17226 17227 17228 ] final  -12.83 input  117.85 | X-H torsion
[ 18826 18813 18814 18815 ] final  125.82 input  116.01 | X-H torsion
[ 18976 18926 18927 18928 ] final  166.86 input  102.20 | X-H torsion
[ 19112 19073 19074 19075 ] final  -76.85 input   89.03 | X-H torsion
[ 18504 18465 18466 18467 ] final   22.03 input  102.26 | X-H torsion
[ 18300 18279 18280 18281 ] final  108.50 input   28.27 | X-H torsion
[ 18330 18317 18318 18319 ] final    1.46 input   50.43 | X-H torsion
[ 18419 18375 18376 18377 ] final  151.18 input   32.92 | X-H torsion
[ 7530 7517 7518 7519 ] final   57.27 input   89.56 | X-H torsion
[ 7496 7462 7463 7464 ] final    3.67 input  103.52 | X-H torsion
[ 18606 18593 18594 18595 ] final   60.20 input  124.70 | X-H torsion
[ 10120 10100 10099 10096 ] final   92.69 input   60.00 | X-H torsion
[ 18304 18284 18283 18280 ] final -104.54 input   60.01 | X-H torsion
[ 11501 11468 11469 11470 ] final  156.40 input   45.03 | X-H torsion
[ 18664 18636 18634 18631 ] final -162.18 input   60.01 | X-H torsion
[ 18884 18850 18851 18852 ] final   69.52 input   84.91 | X-H torsion
[ 17308 17287 17288 17289 ] final  107.52 input   50.16 | X-H torsion
[ 22456 22422 22423 22424 ] final -154.46 input   54.84 | X-H torsion
[ 11440 11420 11419 11416 ] final  175.42 input   60.01 | X-H torsion
[ 11650 11609 11610 11611 ] final   -3.01 input   61.57 | X-H torsion
[ 11832 11793 11794 11795 ] final   18.02 input   91.14 | X-H torsion
[ 16996 16957 16958 16959 ] final   49.60 input   91.87 | X-H torsion
[ 27198 18540 18539 18538 ] final   77.03 input   -0.00 | X-H torsion
[ 27200 18633 18632 18631 ] final   47.60 input    0.00 | X-H torsion
[ 27203 18695 18694 18693 ] final  -90.41 input   -0.00 | X-H torsion
[ 27222 17133 17132 17131 ] final -126.97 input    0.00 | X-H torsion
[ 27226 11612 11611 11610 ] final  -66.79 input    0.00 | X-H torsion
[ 27230 17060 17059 17058 ] final -105.96 input   -0.00 | X-H torsion
[ 27232 18752 18751 18750 ] final  124.55 input    0.00 | X-H torsion
[ 27234 18596 18595 18594 ] final   52.81 input   -0.00 | X-H torsion
[ 27238 18929 18928 18927 ] final  -55.58 input   -0.00 | X-H torsion
[ 27240 19016 19015 19014 ] final -109.07 input   -0.00 | X-H torsion
[ 27243 11418 11417 11416 ] final  176.56 input    0.00 | X-H torsion
[ 27245 17183 17182 17181 ] final  -99.30 input   -0.00 | X-H torsion
[ 27247 18378 18377 18376 ] final -110.59 input   -0.00 | X-H torsion
[ 27250 18217 18216 18215 ] final  -60.83 input    0.00 | X-H torsion
[ 27254 17229 17228 17227 ] final  142.58 input   -0.00 | X-H torsion
[ 27259 18320 18319 18318 ] final  146.08 input    0.00 | X-H torsion
[ 27261 18468 18467 18466 ] final  174.44 input    0.00 | X-H torsion
[ 27264 18282 18281 18280 ] final  -99.55 input   -0.00 | X-H torsion
[ 27267 17020 17019 17018 ] final  163.35 input   -0.00 | X-H torsion
[ 27275 16960 16959 16958 ] final  -20.53 input    0.00 | X-H torsion

> <Gold.Protein.ActiveResidues>
 TRP414  CYS420  VAL421  GLY422  LEU460  SER462  SER482  GLN483  ILE485  ARG486 
 TYR487  ASP500  ASN503  TRP566  TYR567  GLY568  LEU569  PRO570  ALA571  VAL572 
 SER573  ASN574  PHE589  SER590  GLY591  TRP592  TYR593  MET594  GLY595  THR596 
 GLU597  ILE598  GLY599  VAL600  ARG601  ASP602  TYR603  ARG608  ILE653  VAL654 
 TRP683  PRO687  HEM750  H4B760 

> <Gold.Protein.RotatedAtoms>
  241.5261   10.0996   32.8030 H   0  0  0  0  0  0  0  0  0  0  0  0  # atno 7496 bound_to 7462
  241.7011    8.5101   32.7428 H   0  0  0  0  0  0  0  0  0  0  0  0  # atno 7530 bound_to 7517
  247.9829    1.1555   35.7319 H   0  0  0  0  0  0  0  0  0  0  0  0  # atno 10120 bound_to 10100
  253.8813   20.0498   41.3434 H   0  0  0  0  0  0  0  0  0  0  0  0  # atno 11440 bound_to 11420
  253.9483   16.6057   41.7566 H   0  0  0  0  0  0  0  0  0  0  0  0  # atno 11501 bound_to 11468
  257.5609   13.0748   40.8002 H   0  0  0  0  0  0  0  0  0  0  0  0  # atno 11650 bound_to 11609
  260.2223   18.4587   37.8967 H   0  0  0  0  0  0  0  0  0  0  0  0  # atno 11832 bound_to 11793
  259.8173   13.0105   31.8733 H   0  0  0  0  0  0  0  0  0  0  0  0  # atno 16996 bound_to 16957
  256.4821   16.0280   35.1886 H   0  0  0  0  0  0  0  0  0  0  0  0  # atno 17004 bound_to 16968
  254.2661   11.3989   38.5238 H   0  0  0  0  0  0  0  0  0  0  0  0  # atno 17200 bound_to 17180
  252.0169   10.9411   41.1232 H   0  0  0  0  0  0  0  0  0  0  0  0  # atno 17260 bound_to 17226
  252.1464   13.6298   43.0630 H   0  0  0  0  0  0  0  0  0  0  0  0  # atno 17308 bound_to 17287
  250.7209    6.1126   41.2949 H   0  0  0  0  0  0  0  0  0  0  0  0  # atno 18300 bound_to 18279
  252.8457    4.8754   40.7311 H   0  0  0  0  0  0  0  0  0  0  0  0  # atno 18304 bound_to 18284
  251.1272    6.7054   36.9202 H   0  0  0  0  0  0  0  0  0  0  0  0  # atno 18330 bound_to 18317
  250.4750    4.9007   33.9885 H   0  0  0  0  0  0  0  0  0  0  0  0  # atno 18419 bound_to 18375
  251.7230    7.0764   30.5340 H   0  0  0  0  0  0  0  0  0  0  0  0  # atno 18504 bound_to 18465
  255.9136   13.4750   33.5991 H   0  0  0  0  0  0  0  0  0  0  0  0  # atno 18512 bound_to 18476
  250.7080   10.2071   29.0238 H   0  0  0  0  0  0  0  0  0  0  0  0  # atno 18572 bound_to 18537
  249.5441   11.3326   25.3591 H   0  0  0  0  0  0  0  0  0  0  0  0  # atno 18606 bound_to 18593
  246.6444   14.8698   25.2986 H   0  0  0  0  0  0  0  0  0  0  0  0  # atno 18664 bound_to 18636
  250.0871   15.8528   26.5547 H   0  0  0  0  0  0  0  0  0  0  0  0  # atno 18719 bound_to 18692
  252.4572   15.0165   27.3858 H   0  0  0  0  0  0  0  0  0  0  0  0  # atno 18790 bound_to 18749
  253.5893   15.6612   25.4029 H   0  0  0  0  0  0  0  0  0  0  0  0  # atno 18826 bound_to 18813
  251.8789   18.0468   25.2075 H   0  0  0  0  0  0  0  0  0  0  0  0  # atno 18884 bound_to 18850
  250.4321   19.8432   26.4680 H   0  0  0  0  0  0  0  0  0  0  0  0  # atno 18976 bound_to 18926
  253.2581   20.7162   28.0827 H   0  0  0  0  0  0  0  0  0  0  0  0  # atno 19033 bound_to 19013
  255.5815   21.3454   28.3988 H   0  0  0  0  0  0  0  0  0  0  0  0  # atno 19112 bound_to 19073
  251.0746    5.5753   25.9710 H   0  0  0  0  0  0  0  0  0  0  0  0  # atno 22456 bound_to 22422
  256.6549   15.5499   36.7345 LP  0  0  0  0  0  0  0  0  0  0  0  0  # atno 27193 bound_to 16968
  255.6347   14.7526   35.7395 LP  0  0  0  0  0  0  0  0  0  0  0  0  # atno 27194 bound_to 16968
  254.4493   13.6698   34.2809 LP  0  0  0  0  0  0  0  0  0  0  0  0  # atno 27195 bound_to 18476
  254.8957   14.6033   33.0176 LP  0  0  0  0  0  0  0  0  0  0  0  0  # atno 27196 bound_to 18476
  249.1348    9.6438   29.5422 LP  0  0  0  0  0  0  0  0  0  0  0  0  # atno 27197 bound_to 18537
  251.2369   12.2316   28.3408 LP  0  0  0  0  0  0  0  0  0  0  0  0  # atno 27198 bound_to 18540
  250.1151   13.2666   27.5221 LP  0  0  0  0  0  0  0  0  0  0  0  0  # atno 27199 bound_to 18540
  249.8946   17.8964   25.8735 LP  0  0  0  0  0  0  0  0  0  0  0  0  # atno 27200 bound_to 18633
  251.2418   17.5219   26.8957 LP  0  0  0  0  0  0  0  0  0  0  0  0  # atno 27201 bound_to 18633
  249.7886   14.3571   27.3941 LP  0  0  0  0  0  0  0  0  0  0  0  0  # atno 27202 bound_to 18692
  252.0686   18.4164   28.8032 LP  0  0  0  0  0  0  0  0  0  0  0  0  # atno 27203 bound_to 18695
  252.4420   17.4958   30.2220 LP  0  0  0  0  0  0  0  0  0  0  0  0  # atno 27204 bound_to 18695
  252.1937   16.2175   28.6331 LP  0  0  0  0  0  0  0  0  0  0  0  0  # atno 27209 bound_to 18749
  252.6694   19.8143   29.4600 LP  0  0  0  0  0  0  0  0  0  0  0  0  # atno 27210 bound_to 19013
  251.5064    9.2358   37.8951 LP  0  0  0  0  0  0  0  0  0  0  0  0  # atno 27222 bound_to 17133
  252.6332    8.2450   37.0300 LP  0  0  0  0  0  0  0  0  0  0  0  0  # atno 27223 bound_to 17133
  253.2516   10.1961   37.7601 LP  0  0  0  0  0  0  0  0  0  0  0  0  # atno 27224 bound_to 17180
  251.3752   11.5999   39.6331 LP  0  0  0  0  0  0  0  0  0  0  0  0  # atno 27225 bound_to 17226
  258.0652   13.5475   37.5127 LP  0  0  0  0  0  0  0  0  0  0  0  0  # atno 27226 bound_to 11612
  257.2365   14.6259   38.5852 LP  0  0  0  0  0  0  0  0  0  0  0  0  # atno 27227 bound_to 11612
  256.3187    9.9492   37.7474 LP  0  0  0  0  0  0  0  0  0  0  0  0  # atno 27230 bound_to 17060
  257.2380   10.5505   36.4083 LP  0  0  0  0  0  0  0  0  0  0  0  0  # atno 27231 bound_to 17060
  255.6387   18.4863   26.1009 LP  0  0  0  0  0  0  0  0  0  0  0  0  # atno 27232 bound_to 18752
  254.4701   18.9006   27.3103 LP  0  0  0  0  0  0  0  0  0  0  0  0  # atno 27233 bound_to 18752
  253.1418   14.1376   24.6681 LP  0  0  0  0  0  0  0  0  0  0  0  0  # atno 27234 bound_to 18596
  252.3560   14.9144   26.0019 LP  0  0  0  0  0  0  0  0  0  0  0  0  # atno 27235 bound_to 18596
  254.1235   17.0815   26.2758 LP  0  0  0  0  0  0  0  0  0  0  0  0  # atno 27236 bound_to 18813
  252.1511   20.1001   26.3208 LP  0  0  0  0  0  0  0  0  0  0  0  0  # atno 27237 bound_to 18926
  253.1332   23.1135   27.8958 LP  0  0  0  0  0  0  0  0  0  0  0  0  # atno 27238 bound_to 18929
  253.4179   22.8672   29.5865 LP  0  0  0  0  0  0  0  0  0  0  0  0  # atno 27239 bound_to 18929
  256.2623   23.0565   29.0727 LP  0  0  0  0  0  0  0  0  0  0  0  0  # atno 27240 bound_to 19016
  257.1794   21.8183   29.8637 LP  0  0  0  0  0  0  0  0  0  0  0  0  # atno 27241 bound_to 19016
  255.1462   20.1646   27.1840 LP  0  0  0  0  0  0  0  0  0  0  0  0  # atno 27242 bound_to 19073
  252.2398   15.0950   41.9590 LP  0  0  0  0  0  0  0  0  0  0  0  0  # atno 27243 bound_to 11418
  251.4842   16.2565   42.9982 LP  0  0  0  0  0  0  0  0  0  0  0  0  # atno 27244 bound_to 11418
  253.5672   11.6679   42.4942 LP  0  0  0  0  0  0  0  0  0  0  0  0  # atno 27245 bound_to 17183
  254.1721   12.5766   41.1495 LP  0  0  0  0  0  0  0  0  0  0  0  0  # atno 27246 bound_to 17183
  249.0779    7.6000   31.1820 LP  0  0  0  0  0  0  0  0  0  0  0  0  # atno 27247 bound_to 18378
  249.3794    8.1359   32.8012 LP  0  0  0  0  0  0  0  0  0  0  0  0  # atno 27248 bound_to 18378
  252.0606    8.0177   31.9699 LP  0  0  0  0  0  0  0  0  0  0  0  0  # atno 27249 bound_to 18465
  249.8064    9.4322   41.0375 LP  0  0  0  0  0  0  0  0  0  0  0  0  # atno 27250 bound_to 18217
  251.4438    8.9216   40.7968 LP  0  0  0  0  0  0  0  0  0  0  0  0  # atno 27251 bound_to 18217
  250.9419   10.8190   44.0177 LP  0  0  0  0  0  0  0  0  0  0  0  0  # atno 27254 bound_to 17229
  249.6553   10.8869   42.8601 LP  0  0  0  0  0  0  0  0  0  0  0  0  # atno 27255 bound_to 17229
  249.3267    6.9131   40.6126 LP  0  0  0  0  0  0  0  0  0  0  0  0  # atno 27256 bound_to 18279
  249.7194    6.2351   37.8449 LP  0  0  0  0  0  0  0  0  0  0  0  0  # atno 27257 bound_to 18317
  249.9253    6.5598   34.0919 LP  0  0  0  0  0  0  0  0  0  0  0  0  # atno 27258 bound_to 18375
  252.5975    4.5701   34.3295 LP  0  0  0  0  0  0  0  0  0  0  0  0  # atno 27259 bound_to 18320
  252.4612    5.0960   35.9741 LP  0  0  0  0  0  0  0  0  0  0  0  0  # atno 27260 bound_to 18320
  250.0481    7.9767   27.5185 LP  0  0  0  0  0  0  0  0  0  0  0  0  # atno 27261 bound_to 18468
  251.4354    7.4345   28.4026 LP  0  0  0  0  0  0  0  0  0  0  0  0  # atno 27262 bound_to 18468
  241.8024    8.5023   30.9977 LP  0  0  0  0  0  0  0  0  0  0  0  0  # atno 27263 bound_to 7517
  250.4444    3.8250   38.5154 LP  0  0  0  0  0  0  0  0  0  0  0  0  # atno 27264 bound_to 18282
  248.9988    4.5801   39.0986 LP  0  0  0  0  0  0  0  0  0  0  0  0  # atno 27265 bound_to 18282
  240.6996   11.5244   32.2062 LP  0  0  0  0  0  0  0  0  0  0  0  0  # atno 27266 bound_to 7462
  255.6837    7.2588   33.2923 LP  0  0  0  0  0  0  0  0  0  0  0  0  # atno 27267 bound_to 17020
  256.2525    7.6390   31.7011 LP  0  0  0  0  0  0  0  0  0  0  0  0  # atno 27268 bound_to 17020
  250.7129   10.6243   26.4554 LP  0  0  0  0  0  0  0  0  0  0  0  0  # atno 27269 bound_to 18593
  248.8359    2.5019   36.0614 LP  0  0  0  0  0  0  0  0  0  0  0  0  # atno 27270 bound_to 10100
  247.2093    2.5071   36.2050 LP  0  0  0  0  0  0  0  0  0  0  0  0  # atno 27271 bound_to 10100
  253.3775    4.5826   39.2215 LP  0  0  0  0  0  0  0  0  0  0  0  0  # atno 27272 bound_to 18284
  251.7864    4.4602   39.5679 LP  0  0  0  0  0  0  0  0  0  0  0  0  # atno 27273 bound_to 18284
  254.9874   16.1972   43.1065 LP  0  0  0  0  0  0  0  0  0  0  0  0  # atno 27274 bound_to 11468
  258.2338   11.8261   31.9384 LP  0  0  0  0  0  0  0  0  0  0  0  0  # atno 27275 bound_to 16960
  257.8398   10.2478   31.3439 LP  0  0  0  0  0  0  0  0  0  0  0  0  # atno 27276 bound_to 16960

> <Gold.Score>
     Fitness  S(hb_ext) S(vdw_ext)  S(hb_int)    S(int)      intcor
     31.80       2.12      24.26       0.00      -3.68      -0.76

> <Gold.Goldscore.Fitness>
31.7979

> <Gold.Goldscore.Internal.Vdw>
-3.6158

> <Gold.Goldscore.Internal.Torsion>
-0.8186

> <Gold.Goldscore.External.Vdw>
24.2560

> <Gold.Goldscore.Internal.HBond>
0.0000

> <Gold.Goldscore.External.HBond>
2.1218

> <Gold.Goldscore.Internal.Correction>
-0.7585

> <Gold.Goldscore.Hbonds>
donor molecule, donor type, donor heavy atom, donor atom, acceptor molecule, acceptor atom, score
      P1  H 11701 11752       L1    17  0.26
      P1  H 11704 11756       L1    17  0.06
      P1  H 16968 17004       L1    17  0.01
      L1  H    10    23       P1 19020  0.03

> <Gold.Goldscore.Internal.Vdw.Weighted>
-3.6158

> <Gold.Goldscore.Internal.Torsion.Weighted>
-0.8186

> <Gold.Goldscore.External.Vdw.Weighted>
33.3520

> <Gold.Goldscore.Internal.HBond.Weighted>
0.0000

> <Gold.Goldscore.External.HBond.Weighted>
2.1218

> <Gold.Goldscore.Internal.Correction.Weighted>
-0.7585

> <Gold.Rescore>
     Score     S(PLP)   S(hbond)     S(cho)   S(metal)  DE(clash)   DE(tors)     intcor
     16.41     -13.29       1.90       0.00       0.00       1.95       0.30       ----

> <Gold.PLP.Fitness>
16.4150

> <Gold.PLP.PLP>
-13.2863

> <Gold.PLP.part.hbond>
-5.9329

> <Gold.PLP.part.metal>
0.0000

> <Gold.PLP.part.buried>
9.5044

> <Gold.PLP.part.nonpolar>
-26.8747

> <Gold.PLP.part.repulsive>
8.1661

> <Gold.PLP.ligand.clash>
1.9474

> <Gold.PLP.ligand.torsion>
0.3045

> <Gold.PLP.Chemscore.Hbond>
1.8950

> <Gold.PLP.Chemscore.CHOScore>
0.0000

> <Gold.PLP.Chemscore.Metal>
0.0000

> <Gold.Chemscore.Hbonds>
donor molecule, donor type, donor heavy atom, donor atom, acceptor molecule, acceptor atom, score
      L1  H    10    23       P1 19020  0.50
      P1  H 11701 11752       L1    17  0.30
      P1  H 16968 17004       L1    17  0.77

> <Gold.PLP.Chemscore.Internal.Correction>
   9.000000E+99

