#       Name:                CT1002167954
#       Creating user name   hitesit
#       Creation time:       Sun Apr 16 23:06:23 2023


#       File generated by GOLD software.
#

@<TRIPOS>MOLECULE
CT1002167954|ligand_prepared|mol2|1|dock4
    29    30     1
SMALL
NO_CHARGES


@<TRIPOS>ATOM
      1 C1         248.4206  11.7588  35.5448 C.3            1 RES1               0.0000
      2 C2         248.2988  13.2292  35.9940 C.ar           1 RES1               0.0000
      3 C3         249.7764  11.2689  36.0450 C.2            1 RES1               0.0000
      4 C4         247.2307  11.0264  36.1549 C.2            1 RES1               0.0000
      5 C5         248.3645  11.5673  34.0113 C.3            1 RES1               0.0000
      6 C6         247.4848  13.5770  37.0679 C.ar           1 RES1               0.0000
      7 C7         248.9951  14.2468  35.3472 C.ar           1 RES1               0.0000
      8 N8         249.7868  10.4180  37.1108 N.am           1 RES1               0.0000
      9 O9         250.8222  11.6544  35.5373 O.2            1 RES1               0.0000
     10 N10        247.4830  10.0680  37.1012 N.am           1 RES1               0.0000
     11 O11        246.0759  11.2822  35.8367 O.2            1 RES1               0.0000
     12 C12        248.1714  10.1218  33.5806 C.3            1 RES1               0.0000
     13 C13        247.3731  14.8939  37.4821 C.ar           1 RES1               0.0000
     14 C14        248.8818  15.5632  35.7630 C.ar           1 RES1               0.0000
     15 C15        248.7053   9.7522  37.6291 C.2            1 RES1               0.0000
     16 C16        248.0718  15.8877  36.8304 C.ar           1 RES1               0.0000
     17 O17        248.8457   8.9163  38.5172 O.2            1 RES1               0.0000
     18 H18        247.5391  12.1685  33.6103 H              1 RES1               0.0000
     19 H19        249.2972  11.9444  33.5739 H              1 RES1               0.0000
     20 H20        246.9255  12.8088  37.5914 H              1 RES1               0.0000
     21 H21        249.6374  14.0150  34.5044 H              1 RES1               0.0000
     22 H22        250.6814  10.2624  37.5643 H              1 RES1               0.0000
     23 H23        246.6859   9.5412  37.4439 H              1 RES1               0.0000
     24 H24        248.1389  10.0436  32.4959 H              1 RES1               0.0000
     25 H25        248.9879   9.4996  33.9409 H              1 RES1               0.0000
     26 H26        247.2402   9.7223  33.9771 H              1 RES1               0.0000
     27 H27        246.7333  15.1443  38.3218 H              1 RES1               0.0000
     28 H28        249.4330  16.3422  35.2467 H              1 RES1               0.0000
     29 H29        247.9845  16.9192  37.1553 H              1 RES1               0.0000
@<TRIPOS>BOND
    1    1    2 1     
    2    1    3 1     
    3    1    4 1     
    4    1    5 1     
    5    2    6 ar    
    6    2    7 ar    
    7    3    8 1     
    8    3    9 2     
    9    4   10 1     
   10    4   11 2     
   11    5   12 1     
   12    5   18 1     
   13    5   19 1     
   14    6   13 ar    
   15    6   20 1     
   16    7   14 ar    
   17    7   21 1     
   18    8   15 1     
   19    8   22 1     
   20   10   15 1     
   21   10   23 1     
   22   12   24 1     
   23   12   25 1     
   24   12   26 1     
   25   13   16 ar    
   26   13   27 1     
   27   14   16 ar    
   28   14   28 1     
   29   15   17 2     
   30   16   29 1     
@<TRIPOS>SUBSTRUCTURE
      1 RES1           1
@<TRIPOS>SET
DONOR_HYDROGENS      STATIC     ATOMS    <user>   **** ""
2 22 23
ATOM$RED        STATIC     ATOMS    COLORGROUP SYSTEM
2 22 23
@<TRIPOS>COMMENT
> <Gold.Version>
2022.3.0

> <Gold.Id.Protein>
unknown|4d1n_clean|pdb

> <Gold.Protein.RotatedTorsions>
[ 17004 16968 16967 16965 ] final   33.25 input   59.98 | X-H torsion
[ 18512 18476 18475 18473 ] final  -95.47 input   59.98 | X-H torsion
[ 18572 18537 18538 18539 ] final  -84.65 input   87.04 | X-H torsion
[ 18719 18692 18693 18694 ] final  -80.51 input  124.02 | X-H torsion
[ 18790 18749 18750 18751 ] final    1.04 input   91.60 | X-H torsion
[ 19033 19013 19014 19015 ] final   32.28 input  122.46 | X-H torsion
[ 17200 17180 17181 17182 ] final  106.34 input   47.21 | X-H torsion
[ 17260 17226 17227 17228 ] final -175.35 input  117.85 | X-H torsion
[ 18826 18813 18814 18815 ] final  139.80 input  116.01 | X-H torsion
[ 18976 18926 18927 18928 ] final   79.69 input  102.20 | X-H torsion
[ 19112 19073 19074 19075 ] final  -81.18 input   89.03 | X-H torsion
[ 18504 18465 18466 18467 ] final  179.40 input  102.26 | X-H torsion
[ 18300 18279 18280 18281 ] final  115.50 input   28.27 | X-H torsion
[ 18330 18317 18318 18319 ] final -161.06 input   50.43 | X-H torsion
[ 18419 18375 18376 18377 ] final  -47.38 input   32.92 | X-H torsion
[ 7530 7517 7518 7519 ] final -155.10 input   89.56 | X-H torsion
[ 7496 7462 7463 7464 ] final   71.29 input  103.52 | X-H torsion
[ 18606 18593 18594 18595 ] final  -86.16 input  124.70 | X-H torsion
[ 10120 10100 10099 10096 ] final -111.45 input   60.00 | X-H torsion
[ 18304 18284 18283 18280 ] final -149.58 input   60.01 | X-H torsion
[ 11501 11468 11469 11470 ] final  -16.86 input   45.03 | X-H torsion
[ 18664 18636 18634 18631 ] final  -82.04 input   60.01 | X-H torsion
[ 18884 18850 18851 18852 ] final -151.46 input   84.91 | X-H torsion
[ 17308 17287 17288 17289 ] final    9.48 input   50.16 | X-H torsion
[ 22456 22422 22423 22424 ] final -136.26 input   54.84 | X-H torsion
[ 11440 11420 11419 11416 ] final  167.06 input   60.01 | X-H torsion
[ 11650 11609 11610 11611 ] final  160.20 input   61.57 | X-H torsion
[ 11832 11793 11794 11795 ] final    4.09 input   91.14 | X-H torsion
[ 16996 16957 16958 16959 ] final  139.86 input   91.87 | X-H torsion
[ 27198 18540 18539 18538 ] final   42.25 input   -0.00 | X-H torsion
[ 27200 18633 18632 18631 ] final -115.13 input    0.00 | X-H torsion
[ 27203 18695 18694 18693 ] final  -22.37 input   -0.00 | X-H torsion
[ 27222 17133 17132 17131 ] final  133.47 input    0.00 | X-H torsion
[ 27226 11612 11611 11610 ] final -126.25 input    0.00 | X-H torsion
[ 27230 17060 17059 17058 ] final -141.65 input   -0.00 | X-H torsion
[ 27232 18752 18751 18750 ] final   65.01 input    0.00 | X-H torsion
[ 27234 18596 18595 18594 ] final  154.47 input   -0.00 | X-H torsion
[ 27238 18929 18928 18927 ] final -111.61 input   -0.00 | X-H torsion
[ 27240 19016 19015 19014 ] final    7.42 input   -0.00 | X-H torsion
[ 27243 11418 11417 11416 ] final -152.43 input    0.00 | X-H torsion
[ 27245 17183 17182 17181 ] final   72.72 input   -0.00 | X-H torsion
[ 27247 18378 18377 18376 ] final  165.51 input   -0.00 | X-H torsion
[ 27250 18217 18216 18215 ] final   38.15 input    0.00 | X-H torsion
[ 27254 17229 17228 17227 ] final  -83.92 input   -0.00 | X-H torsion
[ 27259 18320 18319 18318 ] final  -75.83 input    0.00 | X-H torsion
[ 27261 18468 18467 18466 ] final -104.34 input    0.00 | X-H torsion
[ 27264 18282 18281 18280 ] final -119.81 input   -0.00 | X-H torsion
[ 27267 17020 17019 17018 ] final  -37.87 input   -0.00 | X-H torsion
[ 27275 16960 16959 16958 ] final   58.74 input    0.00 | X-H torsion

> <Gold.Protein.ActiveResidues>
 TRP414  CYS420  VAL421  GLY422  LEU460  SER462  SER482  GLN483  ILE485  ARG486 
 TYR487  ASP500  ASN503  TRP566  TYR567  GLY568  LEU569  PRO570  ALA571  VAL572 
 SER573  ASN574  PHE589  SER590  GLY591  TRP592  TYR593  MET594  GLY595  THR596 
 GLU597  ILE598  GLY599  VAL600  ARG601  ASP602  TYR603  ARG608  ILE653  VAL654 
 TRP683  PRO687  HEM750  H4B760 

> <Gold.Protein.RotatedAtoms>
  241.9707   10.8185   32.2809 H   0  0  0  0  0  0  0  0  0  0  0  0  # atno 7496 bound_to 7462
  242.2262    8.6990   31.1375 H   0  0  0  0  0  0  0  0  0  0  0  0  # atno 7530 bound_to 7517
  247.6522    2.8719   36.2795 H   0  0  0  0  0  0  0  0  0  0  0  0  # atno 10120 bound_to 10100
  253.8264   19.9590   41.2574 H   0  0  0  0  0  0  0  0  0  0  0  0  # atno 11440 bound_to 11420
  255.0902   16.1928   43.0612 H   0  0  0  0  0  0  0  0  0  0  0  0  # atno 11501 bound_to 11468
  258.3458   11.5265   41.0998 H   0  0  0  0  0  0  0  0  0  0  0  0  # atno 11650 bound_to 11609
  260.3050   18.3946   38.0871 H   0  0  0  0  0  0  0  0  0  0  0  0  # atno 11832 bound_to 11793
  260.8925   13.3650   32.3976 H   0  0  0  0  0  0  0  0  0  0  0  0  # atno 16996 bound_to 16957
  255.9302   14.7839   36.4627 H   0  0  0  0  0  0  0  0  0  0  0  0  # atno 17004 bound_to 16968
  254.6054   10.6727   38.3471 H   0  0  0  0  0  0  0  0  0  0  0  0  # atno 17200 bound_to 17180
  251.5874   11.7656   39.6262 H   0  0  0  0  0  0  0  0  0  0  0  0  # atno 17260 bound_to 17226
  250.9975   14.1871   43.4335 H   0  0  0  0  0  0  0  0  0  0  0  0  # atno 17308 bound_to 17287
  250.7548    6.2107   41.3239 H   0  0  0  0  0  0  0  0  0  0  0  0  # atno 18300 bound_to 18279
  253.4395    4.8564   40.3298 H   0  0  0  0  0  0  0  0  0  0  0  0  # atno 18304 bound_to 18284
  249.8671    6.0316   37.9352 H   0  0  0  0  0  0  0  0  0  0  0  0  # atno 18330 bound_to 18317
  250.1447    6.6042   34.2678 H   0  0  0  0  0  0  0  0  0  0  0  0  # atno 18419 bound_to 18375
  252.3759    8.0371   31.8321 H   0  0  0  0  0  0  0  0  0  0  0  0  # atno 18504 bound_to 18465
  255.5530   14.3138   32.9249 H   0  0  0  0  0  0  0  0  0  0  0  0  # atno 18512 bound_to 18476
  250.4698    9.3432   28.9116 H   0  0  0  0  0  0  0  0  0  0  0  0  # atno 18572 bound_to 18537
  250.5784   11.0546   26.6911 H   0  0  0  0  0  0  0  0  0  0  0  0  # atno 18606 bound_to 18593
  247.4861   14.0084   25.3344 H   0  0  0  0  0  0  0  0  0  0  0  0  # atno 18664 bound_to 18636
  249.7660   15.8871   26.6330 H   0  0  0  0  0  0  0  0  0  0  0  0  # atno 18719 bound_to 18692
  252.1132   16.0770   27.2797 H   0  0  0  0  0  0  0  0  0  0  0  0  # atno 18790 bound_to 18749
  253.8006   15.6131   25.4048 H   0  0  0  0  0  0  0  0  0  0  0  0  # atno 18826 bound_to 18813
  252.4928   18.2806   23.6878 H   0  0  0  0  0  0  0  0  0  0  0  0  # atno 18884 bound_to 18850
  251.4024   19.2476   26.8770 H   0  0  0  0  0  0  0  0  0  0  0  0  # atno 18976 bound_to 18926
  253.3601   20.2294   27.9908 H   0  0  0  0  0  0  0  0  0  0  0  0  # atno 19033 bound_to 19013
  255.6287   21.3027   28.4198 H   0  0  0  0  0  0  0  0  0  0  0  0  # atno 19112 bound_to 19073
  251.2257    5.6576   25.7500 H   0  0  0  0  0  0  0  0  0  0  0  0  # atno 22456 bound_to 22422
  255.9581   15.4818   34.9928 LP  0  0  0  0  0  0  0  0  0  0  0  0  # atno 27193 bound_to 16968
  256.8871   16.0734   36.1985 LP  0  0  0  0  0  0  0  0  0  0  0  0  # atno 27194 bound_to 16968
  255.4900   13.2211   34.1286 LP  0  0  0  0  0  0  0  0  0  0  0  0  # atno 27195 bound_to 18476
  254.2184   14.2067   33.8493 LP  0  0  0  0  0  0  0  0  0  0  0  0  # atno 27196 bound_to 18476
  249.3657   10.4812   29.6510 LP  0  0  0  0  0  0  0  0  0  0  0  0  # atno 27197 bound_to 18537
  250.7919   12.2173   28.6051 LP  0  0  0  0  0  0  0  0  0  0  0  0  # atno 27198 bound_to 18540
  250.5601   13.2808   27.2578 LP  0  0  0  0  0  0  0  0  0  0  0  0  # atno 27199 bound_to 18540
  251.3609   17.5024   26.6654 LP  0  0  0  0  0  0  0  0  0  0  0  0  # atno 27200 bound_to 18633
  249.7755   17.9159   26.1038 LP  0  0  0  0  0  0  0  0  0  0  0  0  # atno 27201 bound_to 18633
  250.1091   14.3229   27.3159 LP  0  0  0  0  0  0  0  0  0  0  0  0  # atno 27202 bound_to 18692
  251.4204   18.1844   29.4851 LP  0  0  0  0  0  0  0  0  0  0  0  0  # atno 27203 bound_to 18695
  253.0903   17.7278   29.5401 LP  0  0  0  0  0  0  0  0  0  0  0  0  # atno 27204 bound_to 18695
  252.5255   15.1947   28.7354 LP  0  0  0  0  0  0  0  0  0  0  0  0  # atno 27209 bound_to 18749
  252.5701   20.2880   29.5495 LP  0  0  0  0  0  0  0  0  0  0  0  0  # atno 27210 bound_to 19013
  252.4805    8.3729   38.1306 LP  0  0  0  0  0  0  0  0  0  0  0  0  # atno 27222 bound_to 17133
  251.6591    9.1080   36.7945 LP  0  0  0  0  0  0  0  0  0  0  0  0  # atno 27223 bound_to 17133
  252.9219   10.9016   37.9317 LP  0  0  0  0  0  0  0  0  0  0  0  0  # atno 27224 bound_to 17180
  251.7892   10.8049   41.0763 LP  0  0  0  0  0  0  0  0  0  0  0  0  # atno 27225 bound_to 17226
  258.1343   14.3964   37.4006 LP  0  0  0  0  0  0  0  0  0  0  0  0  # atno 27226 bound_to 11612
  257.1674   13.7770   38.6973 LP  0  0  0  0  0  0  0  0  0  0  0  0  # atno 27227 bound_to 11612
  256.0581   10.3648   37.5448 LP  0  0  0  0  0  0  0  0  0  0  0  0  # atno 27230 bound_to 17060
  257.4986   10.1349   36.6109 LP  0  0  0  0  0  0  0  0  0  0  0  0  # atno 27231 bound_to 17060
  255.8113   18.3376   26.9301 LP  0  0  0  0  0  0  0  0  0  0  0  0  # atno 27232 bound_to 18752
  254.2975   19.0494   26.4811 LP  0  0  0  0  0  0  0  0  0  0  0  0  # atno 27233 bound_to 18752
  252.3362   15.1769   24.9400 LP  0  0  0  0  0  0  0  0  0  0  0  0  # atno 27234 bound_to 18596
  253.1616   13.8751   25.7299 LP  0  0  0  0  0  0  0  0  0  0  0  0  # atno 27235 bound_to 18596
  253.9193   17.1280   26.2739 LP  0  0  0  0  0  0  0  0  0  0  0  0  # atno 27236 bound_to 18813
  251.1924   20.6886   25.9166 LP  0  0  0  0  0  0  0  0  0  0  0  0  # atno 27237 bound_to 18926
  253.8623   22.8338   28.1237 LP  0  0  0  0  0  0  0  0  0  0  0  0  # atno 27238 bound_to 18929
  252.6888   23.1470   29.3586 LP  0  0  0  0  0  0  0  0  0  0  0  0  # atno 27239 bound_to 18929
  256.4558   22.2064   30.2596 LP  0  0  0  0  0  0  0  0  0  0  0  0  # atno 27240 bound_to 19016
  256.9860   22.6684   28.6768 LP  0  0  0  0  0  0  0  0  0  0  0  0  # atno 27241 bound_to 19016
  255.1004   20.2061   27.1636 LP  0  0  0  0  0  0  0  0  0  0  0  0  # atno 27242 bound_to 19073
  252.2506   14.9078   42.3823 LP  0  0  0  0  0  0  0  0  0  0  0  0  # atno 27243 bound_to 11418
  251.4734   16.4437   42.5749 LP  0  0  0  0  0  0  0  0  0  0  0  0  # atno 27244 bound_to 11418
  254.2520   12.4874   41.1359 LP  0  0  0  0  0  0  0  0  0  0  0  0  # atno 27245 bound_to 17183
  253.4873   11.7571   42.5078 LP  0  0  0  0  0  0  0  0  0  0  0  0  # atno 27246 bound_to 17183
  249.4062    8.6247   31.6097 LP  0  0  0  0  0  0  0  0  0  0  0  0  # atno 27247 bound_to 18378
  249.0511    7.1113   32.3735 LP  0  0  0  0  0  0  0  0  0  0  0  0  # atno 27248 bound_to 18378
  251.4273    7.0860   30.7109 LP  0  0  0  0  0  0  0  0  0  0  0  0  # atno 27249 bound_to 18465
  250.9274    9.3104   41.7176 LP  0  0  0  0  0  0  0  0  0  0  0  0  # atno 27250 bound_to 18217
  250.3228    9.0434   40.1166 LP  0  0  0  0  0  0  0  0  0  0  0  0  # atno 27251 bound_to 18217
  249.4953   11.1760   43.4588 LP  0  0  0  0  0  0  0  0  0  0  0  0  # atno 27254 bound_to 17229
  251.1019   10.5300   43.4191 LP  0  0  0  0  0  0  0  0  0  0  0  0  # atno 27255 bound_to 17229
  249.2935    6.8170   40.5842 LP  0  0  0  0  0  0  0  0  0  0  0  0  # atno 27256 bound_to 18279
  250.9445    6.8902   36.8581 LP  0  0  0  0  0  0  0  0  0  0  0  0  # atno 27257 bound_to 18317
  250.2445    4.9140   33.8220 LP  0  0  0  0  0  0  0  0  0  0  0  0  # atno 27258 bound_to 18375
  252.6822    5.5491   35.6143 LP  0  0  0  0  0  0  0  0  0  0  0  0  # atno 27259 bound_to 18320
  252.3765    4.1170   34.6893 LP  0  0  0  0  0  0  0  0  0  0  0  0  # atno 27260 bound_to 18320
  251.1417    8.2171   27.3875 LP  0  0  0  0  0  0  0  0  0  0  0  0  # atno 27261 bound_to 18468
  250.3418    7.1941   28.5336 LP  0  0  0  0  0  0  0  0  0  0  0  0  # atno 27262 bound_to 18468
  241.2901    8.3180   32.5637 LP  0  0  0  0  0  0  0  0  0  0  0  0  # atno 27263 bound_to 7517
  250.2699    3.8062   38.2664 LP  0  0  0  0  0  0  0  0  0  0  0  0  # atno 27264 bound_to 18282
  249.1732    4.5989   39.3476 LP  0  0  0  0  0  0  0  0  0  0  0  0  # atno 27265 bound_to 18282
  240.2718   10.8325   32.7088 LP  0  0  0  0  0  0  0  0  0  0  0  0  # atno 27266 bound_to 7462
  256.1239    7.9183   31.7857 LP  0  0  0  0  0  0  0  0  0  0  0  0  # atno 27267 bound_to 17020
  255.8123    6.9795   33.2076 LP  0  0  0  0  0  0  0  0  0  0  0  0  # atno 27268 bound_to 17020
  249.7177   10.8918   25.1738 LP  0  0  0  0  0  0  0  0  0  0  0  0  # atno 27269 bound_to 18593
  247.4374    1.3233   35.8273 LP  0  0  0  0  0  0  0  0  0  0  0  0  # atno 27270 bound_to 10100
  248.9407    1.9581   35.8878 LP  0  0  0  0  0  0  0  0  0  0  0  0  # atno 27271 bound_to 10100
  252.7367    4.4297   38.9257 LP  0  0  0  0  0  0  0  0  0  0  0  0  # atno 27272 bound_to 18284
  251.8291    4.6322   40.2681 LP  0  0  0  0  0  0  0  0  0  0  0  0  # atno 27273 bound_to 18284
  253.8887   16.5944   41.8512 LP  0  0  0  0  0  0  0  0  0  0  0  0  # atno 27274 bound_to 11468
  258.5224   11.3378   30.9903 LP  0  0  0  0  0  0  0  0  0  0  0  0  # atno 27275 bound_to 16960
  257.5511   10.7361   32.2920 LP  0  0  0  0  0  0  0  0  0  0  0  0  # atno 27276 bound_to 16960

> <Gold.Score>
     Fitness  S(hb_ext) S(vdw_ext)  S(hb_int)    S(int)      intcor
     36.39       2.33      26.04       0.00      -1.74      -0.76

> <Gold.Goldscore.Fitness>
36.3929

> <Gold.Goldscore.Internal.Vdw>
-1.8740

> <Gold.Goldscore.Internal.Torsion>
-0.6232

> <Gold.Goldscore.External.Vdw>
26.0388

> <Gold.Goldscore.Internal.HBond>
0.0000

> <Gold.Goldscore.External.HBond>
2.3282

> <Gold.Goldscore.Internal.Correction>
-0.7585

> <Gold.Goldscore.Hbonds>
donor molecule, donor type, donor heavy atom, donor atom, acceptor molecule, acceptor atom, score
      P1  M 26928 27277       L1    11  0.07
      L1  H     8    22       P1 17133  0.21
      L1  H     8    22       P1 17180  0.20

> <Gold.Goldscore.Internal.Vdw.Weighted>
-1.8740

> <Gold.Goldscore.Internal.Torsion.Weighted>
-0.6232

> <Gold.Goldscore.External.Vdw.Weighted>
35.8033

> <Gold.Goldscore.Internal.HBond.Weighted>
0.0000

> <Gold.Goldscore.External.HBond.Weighted>
2.3282

> <Gold.Goldscore.Internal.Correction.Weighted>
-0.7585

> <Gold.Rescore>
     Score     S(PLP)   S(hbond)     S(cho)   S(metal)  DE(clash)   DE(tors)     intcor
     34.78     -29.88       0.42       0.00       1.00       1.38       0.49       ----

> <Gold.PLP.Fitness>
34.7833

> <Gold.PLP.PLP>
-29.8766

> <Gold.PLP.part.hbond>
-3.0000

> <Gold.PLP.part.metal>
-0.6111

> <Gold.PLP.part.buried>
26.6119

> <Gold.PLP.part.nonpolar>
-57.9062

> <Gold.PLP.part.repulsive>
2.3829

> <Gold.PLP.ligand.clash>
1.3756

> <Gold.PLP.ligand.torsion>
0.4924

> <Gold.PLP.Chemscore.Hbond>
0.4224

> <Gold.PLP.Chemscore.CHOScore>
0.0000

> <Gold.PLP.Chemscore.Metal>
1.0000

> <Gold.Chemscore.Hbonds>
donor molecule, donor type, donor heavy atom, donor atom, acceptor molecule, acceptor atom, score
      L1  H     8    22       P1 17133  0.76
      P1  M 26928 26928       L1    11  1.00

> <Gold.PLP.Chemscore.Internal.Correction>
   9.000000E+99

