#       Name:                CT1002167954
#       Creating user name   hitesit
#       Creation time:       Sun Apr 16 23:06:26 2023


#       File generated by GOLD software.
#

@<TRIPOS>MOLECULE
CT1002167954|ligand_prepared|mol2|1|dock8
    29    30     1
SMALL
NO_CHARGES


@<TRIPOS>ATOM
      1 C1         248.4942  11.4459  35.2994 C.3            1 RES1               0.0000
      2 C2         249.4917  12.6197  35.3753 C.ar           1 RES1               0.0000
      3 C3         247.5653  11.7481  34.1272 C.2            1 RES1               0.0000
      4 C4         249.3321  10.1848  35.1202 C.2            1 RES1               0.0000
      5 C5         247.6358  11.2720  36.5740 C.3            1 RES1               0.0000
      6 C6         249.2780  13.6755  36.2564 C.ar           1 RES1               0.0000
      7 C7         250.6296  12.6594  34.5738 C.ar           1 RES1               0.0000
      8 N8         247.7319  11.0211  32.9854 N.am           1 RES1               0.0000
      9 O9         246.7257  12.6376  34.1900 O.2            1 RES1               0.0000
     10 N10        249.2135   9.4973  33.9407 N.am           1 RES1               0.0000
     11 O11        250.1064   9.7894  35.9830 O.2            1 RES1               0.0000
     12 C12        246.8682   9.9603  36.6221 C.3            1 RES1               0.0000
     13 C13        250.1709  14.7313  36.3357 C.ar           1 RES1               0.0000
     14 C14        251.5211  13.7164  34.6545 C.ar           1 RES1               0.0000
     15 C15        248.4743   9.8753  32.8531 C.2            1 RES1               0.0000
     16 C16        251.2932  14.7523  35.5352 C.ar           1 RES1               0.0000
     17 O17        248.4610   9.2324  31.8072 O.2            1 RES1               0.0000
     18 H18        248.2913  11.3299  37.4517 H              1 RES1               0.0000
     19 H19        246.9209  12.1018  36.6342 H              1 RES1               0.0000
     20 H20        248.3991  13.6775  36.8925 H              1 RES1               0.0000
     21 H21        250.8287  11.8559  33.8729 H              1 RES1               0.0000
     22 H22        247.2610  11.3609  32.1529 H              1 RES1               0.0000
     23 H23        249.7233   8.6227  33.8668 H              1 RES1               0.0000
     24 H24        246.2828   9.8892  37.5364 H              1 RES1               0.0000
     25 H25        246.1878   9.8803  35.7769 H              1 RES1               0.0000
     26 H26        247.5501   9.1130  36.5896 H              1 RES1               0.0000
     27 H27        249.9862  15.5448  37.0294 H              1 RES1               0.0000
     28 H28        252.4027  13.7290  34.0222 H              1 RES1               0.0000
     29 H29        251.9927  15.5793  35.5978 H              1 RES1               0.0000
@<TRIPOS>BOND
    1    1    2 1     
    2    1    3 1     
    3    1    4 1     
    4    1    5 1     
    5    2    6 ar    
    6    2    7 ar    
    7    3    8 1     
    8    3    9 2     
    9    4   10 1     
   10    4   11 2     
   11    5   12 1     
   12    5   18 1     
   13    5   19 1     
   14    6   13 ar    
   15    6   20 1     
   16    7   14 ar    
   17    7   21 1     
   18    8   15 1     
   19    8   22 1     
   20   10   15 1     
   21   10   23 1     
   22   12   24 1     
   23   12   25 1     
   24   12   26 1     
   25   13   16 ar    
   26   13   27 1     
   27   14   16 ar    
   28   14   28 1     
   29   15   17 2     
   30   16   29 1     
@<TRIPOS>SUBSTRUCTURE
      1 RES1           1
@<TRIPOS>SET
DONOR_HYDROGENS      STATIC     ATOMS    <user>   **** ""
2 22 23
ATOM$RED        STATIC     ATOMS    COLORGROUP SYSTEM
2 22 23
@<TRIPOS>COMMENT
> <Gold.Version>
2022.3.0

> <Gold.Id.Protein>
unknown|4d1n_clean|pdb

> <Gold.Protein.RotatedTorsions>
[ 17004 16968 16967 16965 ] final   52.53 input   59.98 | X-H torsion
[ 18512 18476 18475 18473 ] final -170.06 input   59.98 | X-H torsion
[ 18572 18537 18538 18539 ] final -152.35 input   87.04 | X-H torsion
[ 18719 18692 18693 18694 ] final -124.37 input  124.02 | X-H torsion
[ 18790 18749 18750 18751 ] final  101.90 input   91.60 | X-H torsion
[ 19033 19013 19014 19015 ] final -102.19 input  122.46 | X-H torsion
[ 17200 17180 17181 17182 ] final  159.79 input   47.21 | X-H torsion
[ 17260 17226 17227 17228 ] final -113.84 input  117.85 | X-H torsion
[ 18826 18813 18814 18815 ] final -148.19 input  116.01 | X-H torsion
[ 18976 18926 18927 18928 ] final  -14.24 input  102.20 | X-H torsion
[ 19112 19073 19074 19075 ] final  125.61 input   89.03 | X-H torsion
[ 18504 18465 18466 18467 ] final   -5.92 input  102.26 | X-H torsion
[ 18300 18279 18280 18281 ] final -176.47 input   28.27 | X-H torsion
[ 18330 18317 18318 18319 ] final  163.97 input   50.43 | X-H torsion
[ 18419 18375 18376 18377 ] final  145.40 input   32.92 | X-H torsion
[ 7530 7517 7518 7519 ] final  106.41 input   89.56 | X-H torsion
[ 7496 7462 7463 7464 ] final  156.97 input  103.52 | X-H torsion
[ 18606 18593 18594 18595 ] final -142.55 input  124.70 | X-H torsion
[ 10120 10100 10099 10096 ] final  173.97 input   60.00 | X-H torsion
[ 18304 18284 18283 18280 ] final   59.96 input   60.01 | X-H torsion
[ 11501 11468 11469 11470 ] final  -73.15 input   45.03 | X-H torsion
[ 18664 18636 18634 18631 ] final   40.09 input   60.01 | X-H torsion
[ 18884 18850 18851 18852 ] final   79.19 input   84.91 | X-H torsion
[ 17308 17287 17288 17289 ] final   86.65 input   50.16 | X-H torsion
[ 22456 22422 22423 22424 ] final  -14.38 input   54.84 | X-H torsion
[ 11440 11420 11419 11416 ] final -148.25 input   60.01 | X-H torsion
[ 11650 11609 11610 11611 ] final  -59.52 input   61.57 | X-H torsion
[ 11832 11793 11794 11795 ] final  157.10 input   91.14 | X-H torsion
[ 16996 16957 16958 16959 ] final   70.50 input   91.87 | X-H torsion
[ 27198 18540 18539 18538 ] final -164.46 input   -0.00 | X-H torsion
[ 27200 18633 18632 18631 ] final   85.78 input    0.00 | X-H torsion
[ 27203 18695 18694 18693 ] final   22.43 input   -0.00 | X-H torsion
[ 27222 17133 17132 17131 ] final  -91.51 input    0.00 | X-H torsion
[ 27226 11612 11611 11610 ] final  164.52 input    0.00 | X-H torsion
[ 27230 17060 17059 17058 ] final  153.09 input   -0.00 | X-H torsion
[ 27232 18752 18751 18750 ] final  -48.06 input    0.00 | X-H torsion
[ 27234 18596 18595 18594 ] final  -27.11 input   -0.00 | X-H torsion
[ 27238 18929 18928 18927 ] final  173.19 input   -0.00 | X-H torsion
[ 27240 19016 19015 19014 ] final   19.14 input   -0.00 | X-H torsion
[ 27243 11418 11417 11416 ] final  -16.06 input    0.00 | X-H torsion
[ 27245 17183 17182 17181 ] final -175.21 input   -0.00 | X-H torsion
[ 27247 18378 18377 18376 ] final  -30.18 input   -0.00 | X-H torsion
[ 27250 18217 18216 18215 ] final  165.08 input    0.00 | X-H torsion
[ 27254 17229 17228 17227 ] final  123.03 input   -0.00 | X-H torsion
[ 27259 18320 18319 18318 ] final   85.29 input    0.00 | X-H torsion
[ 27261 18468 18467 18466 ] final -151.63 input    0.00 | X-H torsion
[ 27264 18282 18281 18280 ] final   95.68 input   -0.00 | X-H torsion
[ 27267 17020 17019 17018 ] final -107.68 input   -0.00 | X-H torsion
[ 27275 16960 16959 16958 ] final  -59.33 input    0.00 | X-H torsion

> <Gold.Protein.ActiveResidues>
 TRP414  CYS420  VAL421  GLY422  LEU460  SER462  SER482  GLN483  ILE485  ARG486 
 TYR487  ASP500  ASN503  TRP566  TYR567  GLY568  LEU569  PRO570  ALA571  VAL572 
 SER573  ASN574  PHE589  SER590  GLY591  TRP592  TYR593  MET594  GLY595  THR596 
 GLU597  ILE598  GLY599  VAL600  ARG601  ASP602  TYR603  ARG608  ILE653  VAL654 
 TRP683  PRO687  HEM750  H4B760 

> <Gold.Protein.RotatedAtoms>
  241.0668   11.5937   32.0456 H   0  0  0  0  0  0  0  0  0  0  0  0  # atno 7496 bound_to 7462
  242.3235    8.7936   32.4711 H   0  0  0  0  0  0  0  0  0  0  0  0  # atno 7530 bound_to 7517
  247.0833    1.9193   36.0413 H   0  0  0  0  0  0  0  0  0  0  0  0  # atno 10120 bound_to 10100
  254.2286   20.2501   41.7678 H   0  0  0  0  0  0  0  0  0  0  0  0  # atno 11440 bound_to 11420
  254.2807   16.0453   43.2409 H   0  0  0  0  0  0  0  0  0  0  0  0  # atno 11501 bound_to 11468
  258.0844   13.1416   41.4575 H   0  0  0  0  0  0  0  0  0  0  0  0  # atno 11650 bound_to 11609
  260.8311   17.3371   36.8074 H   0  0  0  0  0  0  0  0  0  0  0  0  # atno 11832 bound_to 11793
  259.9514   13.1750   32.1117 H   0  0  0  0  0  0  0  0  0  0  0  0  # atno 16996 bound_to 16957
  256.1245   14.9329   36.6586 H   0  0  0  0  0  0  0  0  0  0  0  0  # atno 17004 bound_to 16968
  254.2329   10.0551   38.0059 H   0  0  0  0  0  0  0  0  0  0  0  0  # atno 17200 bound_to 17180
  252.3410   11.8405   40.1339 H   0  0  0  0  0  0  0  0  0  0  0  0  # atno 17260 bound_to 17226
  252.0226   13.9097   43.1529 H   0  0  0  0  0  0  0  0  0  0  0  0  # atno 17308 bound_to 17287
  250.5089    7.1655   41.2893 H   0  0  0  0  0  0  0  0  0  0  0  0  # atno 18300 bound_to 18279
  252.2571    4.3970   39.0384 H   0  0  0  0  0  0  0  0  0  0  0  0  # atno 18304 bound_to 18284
  249.5904    6.4315   37.7172 H   0  0  0  0  0  0  0  0  0  0  0  0  # atno 18330 bound_to 18317
  250.4104    4.8878   33.9277 H   0  0  0  0  0  0  0  0  0  0  0  0  # atno 18419 bound_to 18375
  251.3445    7.0981   30.7350 H   0  0  0  0  0  0  0  0  0  0  0  0  # atno 18504 bound_to 18465
  255.9139   13.4757   33.5981 H   0  0  0  0  0  0  0  0  0  0  0  0  # atno 18512 bound_to 18476
  249.5600    9.1068   29.2212 H   0  0  0  0  0  0  0  0  0  0  0  0  # atno 18572 bound_to 18537
  250.7627   10.3961   26.1970 H   0  0  0  0  0  0  0  0  0  0  0  0  # atno 18606 bound_to 18593
  248.0105   15.0125   26.5177 H   0  0  0  0  0  0  0  0  0  0  0  0  # atno 18664 bound_to 18636
  249.2414   15.6245   26.9144 H   0  0  0  0  0  0  0  0  0  0  0  0  # atno 18719 bound_to 18692
  252.5466   14.8354   27.6789 H   0  0  0  0  0  0  0  0  0  0  0  0  # atno 18790 bound_to 18749
  254.6820   16.0502   25.7613 H   0  0  0  0  0  0  0  0  0  0  0  0  # atno 18826 bound_to 18813
  251.7996   17.9863   25.0967 H   0  0  0  0  0  0  0  0  0  0  0  0  # atno 18884 bound_to 18850
  252.1585   20.1083   26.3002 H   0  0  0  0  0  0  0  0  0  0  0  0  # atno 18976 bound_to 18926
  252.6396   20.9096   29.2904 H   0  0  0  0  0  0  0  0  0  0  0  0  # atno 19033 bound_to 19013
  255.4074   19.9911   27.3197 H   0  0  0  0  0  0  0  0  0  0  0  0  # atno 19112 bound_to 19073
  251.1795    7.1999   25.6233 H   0  0  0  0  0  0  0  0  0  0  0  0  # atno 22456 bound_to 22422
  255.7917   15.2334   35.0942 LP  0  0  0  0  0  0  0  0  0  0  0  0  # atno 27193 bound_to 16968
  256.8580   16.1717   35.8999 LP  0  0  0  0  0  0  0  0  0  0  0  0  # atno 27194 bound_to 16968
  254.4501   13.6689   34.2813 LP  0  0  0  0  0  0  0  0  0  0  0  0  # atno 27195 bound_to 18476
  254.8946   14.6034   33.0181 LP  0  0  0  0  0  0  0  0  0  0  0  0  # atno 27196 bound_to 18476
  250.2476   10.7104   29.3508 LP  0  0  0  0  0  0  0  0  0  0  0  0  # atno 27197 bound_to 18537
  250.9393   13.1605   27.2163 LP  0  0  0  0  0  0  0  0  0  0  0  0  # atno 27198 bound_to 18540
  250.4127   12.3377   28.6466 LP  0  0  0  0  0  0  0  0  0  0  0  0  # atno 27199 bound_to 18540
  249.7274   17.9145   26.4144 LP  0  0  0  0  0  0  0  0  0  0  0  0  # atno 27200 bound_to 18633
  251.4090   17.5038   26.3548 LP  0  0  0  0  0  0  0  0  0  0  0  0  # atno 27201 bound_to 18633
  250.6329   14.5851   27.0349 LP  0  0  0  0  0  0  0  0  0  0  0  0  # atno 27202 bound_to 18692
  251.5675   17.8333   30.0243 LP  0  0  0  0  0  0  0  0  0  0  0  0  # atno 27203 bound_to 18695
  252.9432   18.0789   29.0010 LP  0  0  0  0  0  0  0  0  0  0  0  0  # atno 27204 bound_to 18695
  252.1075   16.3922   28.3504 LP  0  0  0  0  0  0  0  0  0  0  0  0  # atno 27209 bound_to 18749
  253.2712   19.6262   28.2849 LP  0  0  0  0  0  0  0  0  0  0  0  0  # atno 27210 bound_to 19013
  251.4243    9.3118   37.3797 LP  0  0  0  0  0  0  0  0  0  0  0  0  # atno 27222 bound_to 17133
  252.7153    8.1691   37.5454 LP  0  0  0  0  0  0  0  0  0  0  0  0  # atno 27223 bound_to 17133
  253.2838   11.5016   38.2632 LP  0  0  0  0  0  0  0  0  0  0  0  0  # atno 27224 bound_to 17180
  251.0627   10.7327   40.5868 LP  0  0  0  0  0  0  0  0  0  0  0  0  # atno 27225 bound_to 17226
  257.6392   14.9526   38.0435 LP  0  0  0  0  0  0  0  0  0  0  0  0  # atno 27226 bound_to 11612
  257.6626   13.2208   38.0544 LP  0  0  0  0  0  0  0  0  0  0  0  0  # atno 27227 bound_to 11612
  256.2818   10.9114   36.8212 LP  0  0  0  0  0  0  0  0  0  0  0  0  # atno 27230 bound_to 17060
  257.2749    9.5883   37.3345 LP  0  0  0  0  0  0  0  0  0  0  0  0  # atno 27231 bound_to 17060
  254.5437   18.8615   27.3845 LP  0  0  0  0  0  0  0  0  0  0  0  0  # atno 27232 bound_to 18752
  255.5652   18.5255   26.0267 LP  0  0  0  0  0  0  0  0  0  0  0  0  # atno 27233 bound_to 18752
  253.1528   13.8825   25.7507 LP  0  0  0  0  0  0  0  0  0  0  0  0  # atno 27234 bound_to 18596
  252.3451   15.1694   24.9192 LP  0  0  0  0  0  0  0  0  0  0  0  0  # atno 27235 bound_to 18596
  253.0674   16.7055   25.9293 LP  0  0  0  0  0  0  0  0  0  0  0  0  # atno 27236 bound_to 18813
  250.4453   19.8381   26.4866 LP  0  0  0  0  0  0  0  0  0  0  0  0  # atno 27237 bound_to 18926
  253.9736   22.7048   29.1668 LP  0  0  0  0  0  0  0  0  0  0  0  0  # atno 27238 bound_to 18929
  252.5775   23.2760   28.3155 LP  0  0  0  0  0  0  0  0  0  0  0  0  # atno 27239 bound_to 18929
  256.5922   22.0941   30.2527 LP  0  0  0  0  0  0  0  0  0  0  0  0  # atno 27240 bound_to 19016
  256.8496   22.7808   28.6836 LP  0  0  0  0  0  0  0  0  0  0  0  0  # atno 27241 bound_to 19016
  255.3153   21.4804   28.2324 LP  0  0  0  0  0  0  0  0  0  0  0  0  # atno 27242 bound_to 19073
  251.5208   16.1279   43.1337 LP  0  0  0  0  0  0  0  0  0  0  0  0  # atno 27243 bound_to 11418
  252.2032   15.2236   41.8235 LP  0  0  0  0  0  0  0  0  0  0  0  0  # atno 27244 bound_to 11418
  253.2175   12.6043   42.1257 LP  0  0  0  0  0  0  0  0  0  0  0  0  # atno 27245 bound_to 17183
  254.5218   11.6402   41.5180 LP  0  0  0  0  0  0  0  0  0  0  0  0  # atno 27246 bound_to 17183
  249.0116    7.0447   32.1501 LP  0  0  0  0  0  0  0  0  0  0  0  0  # atno 27247 bound_to 18378
  249.4457    8.6912   31.8331 LP  0  0  0  0  0  0  0  0  0  0  0  0  # atno 27248 bound_to 18378
  252.4276    7.9966   31.7749 LP  0  0  0  0  0  0  0  0  0  0  0  0  # atno 27249 bound_to 18465
  251.0679    8.8732   40.2377 LP  0  0  0  0  0  0  0  0  0  0  0  0  # atno 27250 bound_to 18217
  250.1823    9.4806   41.5966 LP  0  0  0  0  0  0  0  0  0  0  0  0  # atno 27251 bound_to 18217
  251.0711   10.6827   43.7913 LP  0  0  0  0  0  0  0  0  0  0  0  0  # atno 27254 bound_to 17229
  249.5260   11.0232   43.0865 LP  0  0  0  0  0  0  0  0  0  0  0  0  # atno 27255 bound_to 17229
  249.5346    5.8808   40.6182 LP  0  0  0  0  0  0  0  0  0  0  0  0  # atno 27256 bound_to 18279
  251.2135    6.5014   37.0700 LP  0  0  0  0  0  0  0  0  0  0  0  0  # atno 27257 bound_to 18317
  249.9878    6.5722   34.1507 LP  0  0  0  0  0  0  0  0  0  0  0  0  # atno 27258 bound_to 18375
  252.2966    4.0247   34.9458 LP  0  0  0  0  0  0  0  0  0  0  0  0  # atno 27259 bound_to 18320
  252.7621    5.6414   35.3578 LP  0  0  0  0  0  0  0  0  0  0  0  0  # atno 27260 bound_to 18320
  250.4520    8.1960   27.3082 LP  0  0  0  0  0  0  0  0  0  0  0  0  # atno 27261 bound_to 18468
  251.0315    7.2152   28.6128 LP  0  0  0  0  0  0  0  0  0  0  0  0  # atno 27262 bound_to 18468
  241.1952    8.2257   31.2628 LP  0  0  0  0  0  0  0  0  0  0  0  0  # atno 27263 bound_to 7517
  248.9257    4.5348   38.8858 LP  0  0  0  0  0  0  0  0  0  0  0  0  # atno 27264 bound_to 18282
  250.5174    3.8703   38.7282 LP  0  0  0  0  0  0  0  0  0  0  0  0  # atno 27265 bound_to 18282
  241.1417   10.0863   32.9353 LP  0  0  0  0  0  0  0  0  0  0  0  0  # atno 27266 bound_to 7462
  255.6610    8.2525   32.5959 LP  0  0  0  0  0  0  0  0  0  0  0  0  # atno 27267 bound_to 17020
  256.2752    6.6453   32.3974 LP  0  0  0  0  0  0  0  0  0  0  0  0  # atno 27268 bound_to 17020
  249.5403   11.5254   25.6491 LP  0  0  0  0  0  0  0  0  0  0  0  0  # atno 27269 bound_to 18593
  248.5757    1.3469   35.7350 LP  0  0  0  0  0  0  0  0  0  0  0  0  # atno 27270 bound_to 10100
  248.3749    2.8933   36.2199 LP  0  0  0  0  0  0  0  0  0  0  0  0  # atno 27271 bound_to 10100
  252.1528    4.7580   40.6216 LP  0  0  0  0  0  0  0  0  0  0  0  0  # atno 27272 bound_to 18284
  253.6041    4.7667   39.8731 LP  0  0  0  0  0  0  0  0  0  0  0  0  # atno 27273 bound_to 18284
  254.6676   16.7363   41.6783 LP  0  0  0  0  0  0  0  0  0  0  0  0  # atno 27274 bound_to 11468
  257.9039   11.5538   32.3232 LP  0  0  0  0  0  0  0  0  0  0  0  0  # atno 27275 bound_to 16960
  258.1696   10.5201   30.9591 LP  0  0  0  0  0  0  0  0  0  0  0  0  # atno 27276 bound_to 16960

> <Gold.Score>
     Fitness  S(hb_ext) S(vdw_ext)  S(hb_int)    S(int)      intcor
     34.15       1.75      23.95       0.00      -0.54      -0.76

> <Gold.Goldscore.Fitness>
34.1513

> <Gold.Goldscore.Internal.Vdw>
-0.7067

> <Gold.Goldscore.Internal.Torsion>
-0.5888

> <Gold.Goldscore.External.Vdw>
23.9536

> <Gold.Goldscore.Internal.HBond>
0.0000

> <Gold.Goldscore.External.HBond>
1.7521

> <Gold.Goldscore.Internal.Correction>
-0.7585

> <Gold.Goldscore.Hbonds>
donor molecule, donor type, donor heavy atom, donor atom, acceptor molecule, acceptor atom, score
      L1  H    10    23       P1 18375  0.29

> <Gold.Goldscore.Internal.Vdw.Weighted>
-0.7067

> <Gold.Goldscore.Internal.Torsion.Weighted>
-0.5888

> <Gold.Goldscore.External.Vdw.Weighted>
32.9362

> <Gold.Goldscore.Internal.HBond.Weighted>
0.0000

> <Gold.Goldscore.External.HBond.Weighted>
1.7521

> <Gold.Goldscore.Internal.Correction.Weighted>
-0.7585

> <Gold.Rescore>
     Score     S(PLP)   S(hbond)     S(cho)   S(metal)  DE(clash)   DE(tors)     intcor
     30.97     -30.69       0.54       0.00       0.00       0.00       0.68       ----

> <Gold.PLP.Fitness>
30.9667

> <Gold.PLP.PLP>
-30.6938

> <Gold.PLP.part.hbond>
-4.0000

> <Gold.PLP.part.metal>
0.0000

> <Gold.PLP.part.buried>
14.4183

> <Gold.PLP.part.nonpolar>
-43.8028

> <Gold.PLP.part.repulsive>
0.8055

> <Gold.PLP.ligand.clash>
0.0000

> <Gold.PLP.ligand.torsion>
0.6795

> <Gold.PLP.Chemscore.Hbond>
0.5440

> <Gold.PLP.Chemscore.CHOScore>
0.0000

> <Gold.PLP.Chemscore.Metal>
0.0000

> <Gold.Chemscore.Hbonds>
donor molecule, donor type, donor heavy atom, donor atom, acceptor molecule, acceptor atom, score
      L1  H    10    23       P1 18378  0.29

> <Gold.PLP.Chemscore.Internal.Correction>
   9.000000E+99

