#       Name:                CT1002167954
#       Creating user name   hitesit
#       Creation time:       Sun Apr 16 23:06:22 2023


#       File generated by GOLD software.
#

@<TRIPOS>MOLECULE
CT1002167954|ligand_prepared|mol2|1|dock3
    29    30     1
SMALL
NO_CHARGES


@<TRIPOS>ATOM
      1 C1         249.8220  14.1900  35.4010 C.3            1 RES1               0.0000
      2 C2         249.2515  12.8567  34.8760 C.ar           1 RES1               0.0000
      3 C3         251.1491  13.8526  36.0741 C.2            1 RES1               0.0000
      4 C4         249.9542  15.1044  34.1882 C.2            1 RES1               0.0000
      5 C5         248.9125  14.8951  36.4340 C.3            1 RES1               0.0000
      6 C6         249.9580  12.1013  33.9449 C.ar           1 RES1               0.0000
      7 C7         248.0234  12.3687  35.3146 C.ar           1 RES1               0.0000
      8 N8         252.2950  14.1998  35.4211 N.am           1 RES1               0.0000
      9 O9         251.1900  13.2558  37.1429 O.2            1 RES1               0.0000
     10 N10        251.2142  15.4790  33.8008 N.am           1 RES1               0.0000
     11 O11        248.9797  15.4905  33.5545 O.2            1 RES1               0.0000
     12 C12        249.4097  16.2703  36.8509 C.3            1 RES1               0.0000
     13 C13        249.4565  10.9001  33.4716 C.ar           1 RES1               0.0000
     14 C14        247.5237  11.1673  34.8398 C.ar           1 RES1               0.0000
     15 C15        252.3921  15.0433  34.3437 C.2            1 RES1               0.0000
     16 C16        248.2394  10.4321  33.9190 C.ar           1 RES1               0.0000
     17 O17        253.4875  15.3827  33.9053 O.2            1 RES1               0.0000
     18 H18        247.9070  14.9975  36.0075 H              1 RES1               0.0000
     19 H19        248.8352  14.2621  37.3267 H              1 RES1               0.0000
     20 H20        250.9164  12.4548  33.5794 H              1 RES1               0.0000
     21 H21        247.4425  12.9307  36.0380 H              1 RES1               0.0000
     22 H22        253.1596  13.7947  35.7656 H              1 RES1               0.0000
     23 H23        251.2800  16.1443  33.0370 H              1 RES1               0.0000
     24 H24        248.7354  16.7206  37.5764 H              1 RES1               0.0000
     25 H25        250.3973  16.2029  37.3024 H              1 RES1               0.0000
     26 H26        249.4746  16.9339  35.9911 H              1 RES1               0.0000
     27 H27        250.0231  10.3260  32.7459 H              1 RES1               0.0000
     28 H28        246.5650  10.8031  35.1943 H              1 RES1               0.0000
     29 H29        247.8469   9.4909  33.5484 H              1 RES1               0.0000
@<TRIPOS>BOND
    1    1    2 1     
    2    1    3 1     
    3    1    4 1     
    4    1    5 1     
    5    2    6 ar    
    6    2    7 ar    
    7    3    8 1     
    8    3    9 2     
    9    4   10 1     
   10    4   11 2     
   11    5   12 1     
   12    5   18 1     
   13    5   19 1     
   14    6   13 ar    
   15    6   20 1     
   16    7   14 ar    
   17    7   21 1     
   18    8   15 1     
   19    8   22 1     
   20   10   15 1     
   21   10   23 1     
   22   12   24 1     
   23   12   25 1     
   24   12   26 1     
   25   13   16 ar    
   26   13   27 1     
   27   14   16 ar    
   28   14   28 1     
   29   15   17 2     
   30   16   29 1     
@<TRIPOS>SUBSTRUCTURE
      1 RES1           1
@<TRIPOS>SET
DONOR_HYDROGENS      STATIC     ATOMS    <user>   **** ""
2 22 23
ATOM$RED        STATIC     ATOMS    COLORGROUP SYSTEM
2 22 23
@<TRIPOS>COMMENT
> <Gold.Version>
2022.3.0

> <Gold.Id.Protein>
unknown|4d1n_clean|pdb

> <Gold.Protein.RotatedTorsions>
[ 17004 16968 16967 16965 ] final  -78.49 input   59.98 | X-H torsion
[ 18512 18476 18475 18473 ] final -161.05 input   59.98 | X-H torsion
[ 18572 18537 18538 18539 ] final -117.90 input   87.04 | X-H torsion
[ 18719 18692 18693 18694 ] final  136.60 input  124.02 | X-H torsion
[ 18790 18749 18750 18751 ] final  -71.26 input   91.60 | X-H torsion
[ 19033 19013 19014 19015 ] final  170.99 input  122.46 | X-H torsion
[ 17200 17180 17181 17182 ] final   96.77 input   47.21 | X-H torsion
[ 17260 17226 17227 17228 ] final  125.24 input  117.85 | X-H torsion
[ 18826 18813 18814 18815 ] final  -92.49 input  116.01 | X-H torsion
[ 18976 18926 18927 18928 ] final   41.65 input  102.20 | X-H torsion
[ 19112 19073 19074 19075 ] final   -5.07 input   89.03 | X-H torsion
[ 18504 18465 18466 18467 ] final  -12.99 input  102.26 | X-H torsion
[ 18300 18279 18280 18281 ] final  -95.67 input   28.27 | X-H torsion
[ 18330 18317 18318 18319 ] final  164.56 input   50.43 | X-H torsion
[ 18419 18375 18376 18377 ] final  -69.43 input   32.92 | X-H torsion
[ 7530 7517 7518 7519 ] final  142.99 input   89.56 | X-H torsion
[ 7496 7462 7463 7464 ] final   64.10 input  103.52 | X-H torsion
[ 18606 18593 18594 18595 ] final   24.29 input  124.70 | X-H torsion
[ 10120 10100 10099 10096 ] final  171.72 input   60.00 | X-H torsion
[ 18304 18284 18283 18280 ] final   67.18 input   60.01 | X-H torsion
[ 11501 11468 11469 11470 ] final -120.90 input   45.03 | X-H torsion
[ 18664 18636 18634 18631 ] final  121.87 input   60.01 | X-H torsion
[ 18884 18850 18851 18852 ] final   83.30 input   84.91 | X-H torsion
[ 17308 17287 17288 17289 ] final   68.95 input   50.16 | X-H torsion
[ 22456 22422 22423 22424 ] final   36.42 input   54.84 | X-H torsion
[ 11440 11420 11419 11416 ] final  -79.40 input   60.01 | X-H torsion
[ 11650 11609 11610 11611 ] final   75.85 input   61.57 | X-H torsion
[ 11832 11793 11794 11795 ] final  -16.98 input   91.14 | X-H torsion
[ 16996 16957 16958 16959 ] final  -11.67 input   91.87 | X-H torsion
[ 27198 18540 18539 18538 ] final   10.82 input   -0.00 | X-H torsion
[ 27200 18633 18632 18631 ] final -108.93 input    0.00 | X-H torsion
[ 27203 18695 18694 18693 ] final    4.12 input   -0.00 | X-H torsion
[ 27222 17133 17132 17131 ] final -158.33 input    0.00 | X-H torsion
[ 27226 11612 11611 11610 ] final  -85.14 input    0.00 | X-H torsion
[ 27230 17060 17059 17058 ] final   65.77 input   -0.00 | X-H torsion
[ 27232 18752 18751 18750 ] final  161.57 input    0.00 | X-H torsion
[ 27234 18596 18595 18594 ] final  -21.80 input   -0.00 | X-H torsion
[ 27238 18929 18928 18927 ] final  149.12 input   -0.00 | X-H torsion
[ 27240 19016 19015 19014 ] final   81.55 input   -0.00 | X-H torsion
[ 27243 11418 11417 11416 ] final  -66.08 input    0.00 | X-H torsion
[ 27245 17183 17182 17181 ] final  117.63 input   -0.00 | X-H torsion
[ 27247 18378 18377 18376 ] final   55.82 input   -0.00 | X-H torsion
[ 27250 18217 18216 18215 ] final  124.45 input    0.00 | X-H torsion
[ 27254 17229 17228 17227 ] final -132.65 input   -0.00 | X-H torsion
[ 27259 18320 18319 18318 ] final  -31.87 input    0.00 | X-H torsion
[ 27261 18468 18467 18466 ] final    2.34 input    0.00 | X-H torsion
[ 27264 18282 18281 18280 ] final  -50.25 input   -0.00 | X-H torsion
[ 27267 17020 17019 17018 ] final  -27.42 input   -0.00 | X-H torsion
[ 27275 16960 16959 16958 ] final -170.01 input    0.00 | X-H torsion

> <Gold.Protein.ActiveResidues>
 TRP414  CYS420  VAL421  GLY422  LEU460  SER462  SER482  GLN483  ILE485  ARG486 
 TYR487  ASP500  ASN503  TRP566  TYR567  GLY568  LEU569  PRO570  ALA571  VAL572 
 SER573  ASN574  PHE589  SER590  GLY591  TRP592  TYR593  MET594  GLY595  THR596 
 GLU597  ILE598  GLY599  VAL600  ARG601  ASP602  TYR603  ARG608  ILE653  VAL654 
 TRP683  PRO687  HEM750  H4B760 

> <Gold.Protein.RotatedAtoms>
  241.9765   10.7211   32.3359 H   0  0  0  0  0  0  0  0  0  0  0  0  # atno 7496 bound_to 7462
  242.5465    8.8804   31.9700 H   0  0  0  0  0  0  0  0  0  0  0  0  # atno 7530 bound_to 7517
  247.0885    1.8845   36.0303 H   0  0  0  0  0  0  0  0  0  0  0  0  # atno 10120 bound_to 10100
  254.9391   19.7022   42.3299 H   0  0  0  0  0  0  0  0  0  0  0  0  # atno 11440 bound_to 11420
  253.7041   16.1588   42.8205 H   0  0  0  0  0  0  0  0  0  0  0  0  # atno 11501 bound_to 11468
  257.5552   12.0331   40.3599 H   0  0  0  0  0  0  0  0  0  0  0  0  # atno 11650 bound_to 11609
  260.4697   18.2277   38.3157 H   0  0  0  0  0  0  0  0  0  0  0  0  # atno 11832 bound_to 11793
  260.0682   12.5173   31.1671 H   0  0  0  0  0  0  0  0  0  0  0  0  # atno 16996 bound_to 16957
  255.8861   15.3730   35.0295 H   0  0  0  0  0  0  0  0  0  0  0  0  # atno 17004 bound_to 16968
  254.5990   10.8116   38.3979 H   0  0  0  0  0  0  0  0  0  0  0  0  # atno 17200 bound_to 17180
  250.9465   11.2116   39.8771 H   0  0  0  0  0  0  0  0  0  0  0  0  # atno 17260 bound_to 17226
  251.8429   14.0958   43.2333 H   0  0  0  0  0  0  0  0  0  0  0  0  # atno 17308 bound_to 17287
  249.5061    7.2048   40.7420 H   0  0  0  0  0  0  0  0  0  0  0  0  # atno 18300 bound_to 18279
  252.3650    4.3996   38.9909 H   0  0  0  0  0  0  0  0  0  0  0  0  # atno 18304 bound_to 18284
  249.5928    6.4242   37.7222 H   0  0  0  0  0  0  0  0  0  0  0  0  # atno 18330 bound_to 18317
  250.4053    6.5010   34.4614 H   0  0  0  0  0  0  0  0  0  0  0  0  # atno 18419 bound_to 18375
  251.2661    7.1216   30.8078 H   0  0  0  0  0  0  0  0  0  0  0  0  # atno 18504 bound_to 18465
  255.9436   13.5650   33.4851 H   0  0  0  0  0  0  0  0  0  0  0  0  # atno 18512 bound_to 18476
  250.0457    9.0848   29.0202 H   0  0  0  0  0  0  0  0  0  0  0  0  # atno 18572 bound_to 18537
  249.5783   11.6564   25.8031 H   0  0  0  0  0  0  0  0  0  0  0  0  # atno 18606 bound_to 18593
  247.0003   15.5856   26.1277 H   0  0  0  0  0  0  0  0  0  0  0  0  # atno 18664 bound_to 18636
  249.5708   14.4329   27.3914 H   0  0  0  0  0  0  0  0  0  0  0  0  # atno 18719 bound_to 18692
  252.1031   16.4581   28.2599 H   0  0  0  0  0  0  0  0  0  0  0  0  # atno 18790 bound_to 18749
  254.5977   16.7810   26.1494 H   0  0  0  0  0  0  0  0  0  0  0  0  # atno 18826 bound_to 18813
  251.7712   17.9634   25.0449 H   0  0  0  0  0  0  0  0  0  0  0  0  # atno 18884 bound_to 18850
  251.9167   19.4564   26.7393 H   0  0  0  0  0  0  0  0  0  0  0  0  # atno 18976 bound_to 18926
  252.7142   19.7012   29.4240 H   0  0  0  0  0  0  0  0  0  0  0  0  # atno 19033 bound_to 19013
  254.8311   21.4517   27.6863 H   0  0  0  0  0  0  0  0  0  0  0  0  # atno 19112 bound_to 19073
  250.7348    7.2853   26.2332 H   0  0  0  0  0  0  0  0  0  0  0  0  # atno 22456 bound_to 22422
  256.8833   16.1250   36.0728 LP  0  0  0  0  0  0  0  0  0  0  0  0  # atno 27193 bound_to 16968
  256.0064   14.8370   36.5614 LP  0  0  0  0  0  0  0  0  0  0  0  0  # atno 27194 bound_to 16968
  254.5507   13.5698   34.3259 LP  0  0  0  0  0  0  0  0  0  0  0  0  # atno 27195 bound_to 18476
  254.7640   14.6125   33.0874 LP  0  0  0  0  0  0  0  0  0  0  0  0  # atno 27196 bound_to 18476
  249.7768   10.7317   29.5457 LP  0  0  0  0  0  0  0  0  0  0  0  0  # atno 27197 bound_to 18537
  250.3492   12.3692   28.6378 LP  0  0  0  0  0  0  0  0  0  0  0  0  # atno 27198 bound_to 18540
  251.0028   13.1290   27.2251 LP  0  0  0  0  0  0  0  0  0  0  0  0  # atno 27199 bound_to 18540
  251.3866   17.4999   26.5754 LP  0  0  0  0  0  0  0  0  0  0  0  0  # atno 27200 bound_to 18633
  249.7498   17.9184   26.1938 LP  0  0  0  0  0  0  0  0  0  0  0  0  # atno 27201 bound_to 18633
  250.3040   15.7747   26.5588 LP  0  0  0  0  0  0  0  0  0  0  0  0  # atno 27202 bound_to 18692
  251.4477   17.9801   29.8242 LP  0  0  0  0  0  0  0  0  0  0  0  0  # atno 27203 bound_to 18695
  253.0630   17.9320   29.2010 LP  0  0  0  0  0  0  0  0  0  0  0  0  # atno 27204 bound_to 18695
  252.5352   14.8272   27.7900 LP  0  0  0  0  0  0  0  0  0  0  0  0  # atno 27209 bound_to 18749
  253.1986   20.8019   28.1548 LP  0  0  0  0  0  0  0  0  0  0  0  0  # atno 27210 bound_to 19013
  251.7560    9.0129   38.2224 LP  0  0  0  0  0  0  0  0  0  0  0  0  # atno 27222 bound_to 17133
  252.3835    8.4680   36.7027 LP  0  0  0  0  0  0  0  0  0  0  0  0  # atno 27223 bound_to 17133
  252.9281   10.7666   37.8824 LP  0  0  0  0  0  0  0  0  0  0  0  0  # atno 27224 bound_to 17180
  252.4072   11.3390   40.8344 LP  0  0  0  0  0  0  0  0  0  0  0  0  # atno 27225 bound_to 17226
  258.1439   13.7882   37.4025 LP  0  0  0  0  0  0  0  0  0  0  0  0  # atno 27226 bound_to 11612
  257.1578   14.3852   38.6953 LP  0  0  0  0  0  0  0  0  0  0  0  0  # atno 27227 bound_to 11612
  257.3188   10.4589   36.4342 LP  0  0  0  0  0  0  0  0  0  0  0  0  # atno 27230 bound_to 17060
  256.2380   10.0408   37.7215 LP  0  0  0  0  0  0  0  0  0  0  0  0  # atno 27231 bound_to 17060
  255.1992   18.7033   25.8518 LP  0  0  0  0  0  0  0  0  0  0  0  0  # atno 27232 bound_to 18752
  254.9097   18.6836   27.5594 LP  0  0  0  0  0  0  0  0  0  0  0  0  # atno 27233 bound_to 18752
  253.1813   13.8594   25.6795 LP  0  0  0  0  0  0  0  0  0  0  0  0  # atno 27234 bound_to 18596
  252.3166   15.1926   24.9904 LP  0  0  0  0  0  0  0  0  0  0  0  0  # atno 27235 bound_to 18596
  253.1489   15.9992   25.5542 LP  0  0  0  0  0  0  0  0  0  0  0  0  # atno 27236 bound_to 18813
  250.6842   20.4823   26.0527 LP  0  0  0  0  0  0  0  0  0  0  0  0  # atno 27237 bound_to 18926
  253.7407   22.7649   29.4360 LP  0  0  0  0  0  0  0  0  0  0  0  0  # atno 27238 bound_to 18929
  252.8104   23.2159   28.0463 LP  0  0  0  0  0  0  0  0  0  0  0  0  # atno 27239 bound_to 18929
  257.2682   21.8196   29.7304 LP  0  0  0  0  0  0  0  0  0  0  0  0  # atno 27240 bound_to 19016
  256.1736   23.0552   29.2060 LP  0  0  0  0  0  0  0  0  0  0  0  0  # atno 27241 bound_to 19016
  255.8753   20.0613   27.8762 LP  0  0  0  0  0  0  0  0  0  0  0  0  # atno 27242 bound_to 19073
  251.8001   15.4768   43.3192 LP  0  0  0  0  0  0  0  0  0  0  0  0  # atno 27243 bound_to 11418
  251.9239   15.8747   41.6380 LP  0  0  0  0  0  0  0  0  0  0  0  0  # atno 27244 bound_to 11418
  253.7530   12.8525   41.3712 LP  0  0  0  0  0  0  0  0  0  0  0  0  # atno 27245 bound_to 17183
  253.9863   11.3920   42.2725 LP  0  0  0  0  0  0  0  0  0  0  0  0  # atno 27246 bound_to 17183
  249.3294    7.9428   32.8485 LP  0  0  0  0  0  0  0  0  0  0  0  0  # atno 27247 bound_to 18378
  249.1278    7.7931   31.1347 LP  0  0  0  0  0  0  0  0  0  0  0  0  # atno 27248 bound_to 18378
  252.5037    7.9739   31.7043 LP  0  0  0  0  0  0  0  0  0  0  0  0  # atno 27249 bound_to 18465
  251.4241    8.9065   40.7210 LP  0  0  0  0  0  0  0  0  0  0  0  0  # atno 27250 bound_to 18217
  249.8261    9.4473   41.1132 LP  0  0  0  0  0  0  0  0  0  0  0  0  # atno 27251 bound_to 18217
  249.8624   11.2612   44.0659 LP  0  0  0  0  0  0  0  0  0  0  0  0  # atno 27254 bound_to 17229
  250.7348   10.4447   42.8120 LP  0  0  0  0  0  0  0  0  0  0  0  0  # atno 27255 bound_to 17229
  250.5177    5.8423   41.1547 LP  0  0  0  0  0  0  0  0  0  0  0  0  # atno 27256 bound_to 18279
  251.2112    6.5085   37.0651 LP  0  0  0  0  0  0  0  0  0  0  0  0  # atno 27257 bound_to 18317
  249.9927    5.0137   33.6350 LP  0  0  0  0  0  0  0  0  0  0  0  0  # atno 27258 bound_to 18375
  252.4504    5.0680   35.9816 LP  0  0  0  0  0  0  0  0  0  0  0  0  # atno 27259 bound_to 18320
  252.6083    4.5982   34.3220 LP  0  0  0  0  0  0  0  0  0  0  0  0  # atno 27260 bound_to 18320
  251.3584    7.3717   28.4687 LP  0  0  0  0  0  0  0  0  0  0  0  0  # atno 27261 bound_to 18468
  250.1251    8.0395   27.4524 LP  0  0  0  0  0  0  0  0  0  0  0  0  # atno 27262 bound_to 18468
  240.9777    8.1411   31.7515 LP  0  0  0  0  0  0  0  0  0  0  0  0  # atno 27263 bound_to 7517
  250.4770    4.0487   39.2016 LP  0  0  0  0  0  0  0  0  0  0  0  0  # atno 27264 bound_to 18282
  248.9662    4.3564   38.4125 LP  0  0  0  0  0  0  0  0  0  0  0  0  # atno 27265 bound_to 18282
  240.2662   10.9262   32.6558 LP  0  0  0  0  0  0  0  0  0  0  0  0  # atno 27266 bound_to 7462
  256.1911    7.7865   31.7310 LP  0  0  0  0  0  0  0  0  0  0  0  0  # atno 27267 bound_to 17020
  255.7452    7.1113   33.2624 LP  0  0  0  0  0  0  0  0  0  0  0  0  # atno 27268 bound_to 17020
  250.6799   10.3127   26.0282 LP  0  0  0  0  0  0  0  0  0  0  0  0  # atno 27269 bound_to 18593
  248.6048    1.3696   35.7393 LP  0  0  0  0  0  0  0  0  0  0  0  0  # atno 27270 bound_to 10100
  248.3406    2.9056   36.2266 LP  0  0  0  0  0  0  0  0  0  0  0  0  # atno 27271 bound_to 10100
  252.0589    4.7299   40.5544 LP  0  0  0  0  0  0  0  0  0  0  0  0  # atno 27272 bound_to 18284
  253.5893    4.7922   39.9882 LP  0  0  0  0  0  0  0  0  0  0  0  0  # atno 27273 bound_to 18284
  255.2224   16.6271   42.0827 LP  0  0  0  0  0  0  0  0  0  0  0  0  # atno 27274 bound_to 11468
  257.6350   10.2775   31.7501 LP  0  0  0  0  0  0  0  0  0  0  0  0  # atno 27275 bound_to 16960
  258.4385   11.7964   31.5322 LP  0  0  0  0  0  0  0  0  0  0  0  0  # atno 27276 bound_to 16960

> <Gold.Score>
     Fitness  S(hb_ext) S(vdw_ext)  S(hb_int)    S(int)      intcor
     44.21       1.50      31.51       0.00      -0.61      -0.80

> <Gold.Goldscore.Fitness>
44.2135

> <Gold.Goldscore.Internal.Vdw>
-1.0043

> <Gold.Goldscore.Internal.Torsion>
-0.4140

> <Gold.Goldscore.External.Vdw>
31.5109

> <Gold.Goldscore.Internal.HBond>
0.0000

> <Gold.Goldscore.External.HBond>
1.5002

> <Gold.Goldscore.Internal.Correction>
-0.8041

> <Gold.Goldscore.Hbonds>
donor molecule, donor type, donor heavy atom, donor atom, acceptor molecule, acceptor atom, score
      P1  H 11475 11507       L1    17  0.35
      P1  H 16968 17004       L1    17  0.22
      L1  H     8    22       P1 11476  0.06

> <Gold.Goldscore.Internal.Vdw.Weighted>
-1.0043

> <Gold.Goldscore.Internal.Torsion.Weighted>
-0.4140

> <Gold.Goldscore.External.Vdw.Weighted>
43.3275

> <Gold.Goldscore.Internal.HBond.Weighted>
0.0000

> <Gold.Goldscore.External.HBond.Weighted>
1.5002

> <Gold.Goldscore.Internal.Correction.Weighted>
-0.8041

> <Gold.Rescore>
     Score     S(PLP)   S(hbond)     S(cho)   S(metal)  DE(clash)   DE(tors)     intcor
     -4.62       5.42       0.30       0.00       0.00       0.00       0.06       ----

> <Gold.PLP.Fitness>
-4.6244

> <Gold.PLP.PLP>
5.4199

> <Gold.PLP.part.hbond>
-3.2875

> <Gold.PLP.part.metal>
0.0000

> <Gold.PLP.part.buried>
34.4305

> <Gold.PLP.part.nonpolar>
-42.6392

> <Gold.PLP.part.repulsive>
15.3503

> <Gold.PLP.ligand.clash>
0.0000

> <Gold.PLP.ligand.torsion>
0.0558

> <Gold.PLP.Chemscore.Hbond>
0.3024

> <Gold.PLP.Chemscore.CHOScore>
0.0000

> <Gold.PLP.Chemscore.Metal>
0.0000

> <Gold.Chemscore.Hbonds>
donor molecule, donor type, donor heavy atom, donor atom, acceptor molecule, acceptor atom, score
      L1  H     8    22       P1 11476  0.45

> <Gold.PLP.Chemscore.Internal.Correction>
   9.000000E+99

