#       Name:                CT1002167954
#       Creating user name   hitesit
#       Creation time:       Sun Apr 16 23:06:27 2023


#       File generated by GOLD software.
#

@<TRIPOS>MOLECULE
CT1002167954|ligand_prepared|mol2|1|dock10
    29    30     1
SMALL
NO_CHARGES


@<TRIPOS>ATOM
      1 C1         249.9737  18.9154  35.4795 C.3            1 RES1               0.0000
      2 C2         249.8694  17.3808  35.5931 C.ar           1 RES1               0.0000
      3 C3         251.0517  19.1955  34.4366 C.2            1 RES1               0.0000
      4 C4         248.5856  19.4095  35.0877 C.2            1 RES1               0.0000
      5 C5         250.3744  19.6138  36.7998 C.3            1 RES1               0.0000
      6 C6         249.1602  16.7941  36.6369 C.ar           1 RES1               0.0000
      7 C7         250.4737  16.5404  34.6619 C.ar           1 RES1               0.0000
      8 N8         250.6461  19.6366  33.2115 N.am           1 RES1               0.0000
      9 O9         252.2367  18.9947  34.6726 O.2            1 RES1               0.0000
     10 N10        248.4347  19.9899  33.8555 N.am           1 RES1               0.0000
     11 O11        247.6176  19.2865  35.8281 O.2            1 RES1               0.0000
     12 C12        250.6903  21.0926  36.6399 C.3            1 RES1               0.0000
     13 C13        249.0563  15.4172  36.7444 C.ar           1 RES1               0.0000
     14 C14        250.3687  15.1636  34.7713 C.ar           1 RES1               0.0000
     15 C15        249.3956  20.0980  32.8874 C.2            1 RES1               0.0000
     16 C16        249.6600  14.6011  35.8115 C.ar           1 RES1               0.0000
     17 O17        249.1693  20.5838  31.7829 O.2            1 RES1               0.0000
     18 H18        249.5545  19.5038  37.5204 H              1 RES1               0.0000
     19 H19        251.2550  19.1075  37.2140 H              1 RES1               0.0000
     20 H20        248.6805  17.4202  37.3819 H              1 RES1               0.0000
     21 H21        251.0372  16.9607  33.8358 H              1 RES1               0.0000
     22 H22        251.3364  19.6220  32.4675 H              1 RES1               0.0000
     23 H23        247.5216  20.3772  33.6401 H              1 RES1               0.0000
     24 H24        250.9653  21.5339  37.5956 H              1 RES1               0.0000
     25 H25        251.5181  21.2377  35.9489 H              1 RES1               0.0000
     26 H26        249.8277  21.6316  36.2534 H              1 RES1               0.0000
     27 H27        248.4986  14.9794  37.5656 H              1 RES1               0.0000
     28 H28        250.8459  14.5251  34.0352 H              1 RES1               0.0000
     29 H29        249.5781  13.5224  35.8957 H              1 RES1               0.0000
@<TRIPOS>BOND
    1    1    2 1     
    2    1    3 1     
    3    1    4 1     
    4    1    5 1     
    5    2    6 ar    
    6    2    7 ar    
    7    3    8 1     
    8    3    9 2     
    9    4   10 1     
   10    4   11 2     
   11    5   12 1     
   12    5   18 1     
   13    5   19 1     
   14    6   13 ar    
   15    6   20 1     
   16    7   14 ar    
   17    7   21 1     
   18    8   15 1     
   19    8   22 1     
   20   10   15 1     
   21   10   23 1     
   22   12   24 1     
   23   12   25 1     
   24   12   26 1     
   25   13   16 ar    
   26   13   27 1     
   27   14   16 ar    
   28   14   28 1     
   29   15   17 2     
   30   16   29 1     
@<TRIPOS>SUBSTRUCTURE
      1 RES1           1
@<TRIPOS>SET
DONOR_HYDROGENS      STATIC     ATOMS    <user>   **** ""
2 22 23
ATOM$RED        STATIC     ATOMS    COLORGROUP SYSTEM
2 22 23
@<TRIPOS>COMMENT
> <Gold.Version>
2022.3.0

> <Gold.Id.Protein>
unknown|4d1n_clean|pdb

> <Gold.Protein.RotatedTorsions>
[ 17004 16968 16967 16965 ] final -150.10 input   59.98 | X-H torsion
[ 18512 18476 18475 18473 ] final  -21.98 input   59.98 | X-H torsion
[ 18572 18537 18538 18539 ] final   -2.27 input   87.04 | X-H torsion
[ 18719 18692 18693 18694 ] final  139.76 input  124.02 | X-H torsion
[ 18790 18749 18750 18751 ] final  107.10 input   91.60 | X-H torsion
[ 19033 19013 19014 19015 ] final -119.24 input  122.46 | X-H torsion
[ 17200 17180 17181 17182 ] final  147.11 input   47.21 | X-H torsion
[ 17260 17226 17227 17228 ] final -172.96 input  117.85 | X-H torsion
[ 18826 18813 18814 18815 ] final  169.58 input  116.01 | X-H torsion
[ 18976 18926 18927 18928 ] final  147.27 input  102.20 | X-H torsion
[ 19112 19073 19074 19075 ] final  125.62 input   89.03 | X-H torsion
[ 18504 18465 18466 18467 ] final  138.82 input  102.26 | X-H torsion
[ 18300 18279 18280 18281 ] final   15.34 input   28.27 | X-H torsion
[ 18330 18317 18318 18319 ] final -127.08 input   50.43 | X-H torsion
[ 18419 18375 18376 18377 ] final  166.45 input   32.92 | X-H torsion
[ 7530 7517 7518 7519 ] final -101.52 input   89.56 | X-H torsion
[ 7496 7462 7463 7464 ] final  -80.73 input  103.52 | X-H torsion
[ 18606 18593 18594 18595 ] final  172.80 input  124.70 | X-H torsion
[ 10120 10100 10099 10096 ] final  -72.63 input   60.00 | X-H torsion
[ 18304 18284 18283 18280 ] final   41.63 input   60.01 | X-H torsion
[ 11501 11468 11469 11470 ] final   53.36 input   45.03 | X-H torsion
[ 18664 18636 18634 18631 ] final  -67.98 input   60.01 | X-H torsion
[ 18884 18850 18851 18852 ] final -102.10 input   84.91 | X-H torsion
[ 17308 17287 17288 17289 ] final   78.23 input   50.16 | X-H torsion
[ 22456 22422 22423 22424 ] final   39.24 input   54.84 | X-H torsion
[ 11440 11420 11419 11416 ] final   31.60 input   60.01 | X-H torsion
[ 11650 11609 11610 11611 ] final -108.81 input   61.57 | X-H torsion
[ 11832 11793 11794 11795 ] final  -12.60 input   91.14 | X-H torsion
[ 16996 16957 16958 16959 ] final    2.88 input   91.87 | X-H torsion
[ 27198 18540 18539 18538 ] final -142.25 input   -0.00 | X-H torsion
[ 27200 18633 18632 18631 ] final   55.64 input    0.00 | X-H torsion
[ 27203 18695 18694 18693 ] final  -96.25 input   -0.00 | X-H torsion
[ 27222 17133 17132 17131 ] final   62.65 input    0.00 | X-H torsion
[ 27226 11612 11611 11610 ] final   21.80 input    0.00 | X-H torsion
[ 27230 17060 17059 17058 ] final  170.93 input   -0.00 | X-H torsion
[ 27232 18752 18751 18750 ] final  -69.61 input    0.00 | X-H torsion
[ 27234 18596 18595 18594 ] final  131.61 input   -0.00 | X-H torsion
[ 27238 18929 18928 18927 ] final  170.76 input   -0.00 | X-H torsion
[ 27240 19016 19015 19014 ] final  -94.99 input   -0.00 | X-H torsion
[ 27243 11418 11417 11416 ] final -179.40 input    0.00 | X-H torsion
[ 27245 17183 17182 17181 ] final  175.09 input   -0.00 | X-H torsion
[ 27247 18378 18377 18376 ] final -163.85 input   -0.00 | X-H torsion
[ 27250 18217 18216 18215 ] final  132.98 input    0.00 | X-H torsion
[ 27254 17229 17228 17227 ] final -101.39 input   -0.00 | X-H torsion
[ 27259 18320 18319 18318 ] final  108.80 input    0.00 | X-H torsion
[ 27261 18468 18467 18466 ] final  108.44 input    0.00 | X-H torsion
[ 27264 18282 18281 18280 ] final  111.48 input   -0.00 | X-H torsion
[ 27267 17020 17019 17018 ] final -112.15 input   -0.00 | X-H torsion
[ 27275 16960 16959 16958 ] final  -67.65 input    0.00 | X-H torsion

> <Gold.Protein.ActiveResidues>
 TRP414  CYS420  VAL421  GLY422  LEU460  SER462  SER482  GLN483  ILE485  ARG486 
 TYR487  ASP500  ASN503  TRP566  TYR567  GLY568  LEU569  PRO570  ALA571  VAL572 
 SER573  ASN574  PHE589  SER590  GLY591  TRP592  TYR593  MET594  GLY595  THR596 
 GLU597  ILE598  GLY599  VAL600  ARG601  ASP602  TYR603  ARG608  ILE653  VAL654 
 TRP683  PRO687  HEM750  H4B760 

> <Gold.Protein.RotatedAtoms>
  240.3824   10.4539   32.8686 H   0  0  0  0  0  0  0  0  0  0  0  0  # atno 7496 bound_to 7462
  241.5144    8.3591   31.0200 H   0  0  0  0  0  0  0  0  0  0  0  0  # atno 7530 bound_to 7517
  248.2715    2.9191   36.2397 H   0  0  0  0  0  0  0  0  0  0  0  0  # atno 10120 bound_to 10100
  254.5768   18.4235   41.5452 H   0  0  0  0  0  0  0  0  0  0  0  0  # atno 11440 bound_to 11420
  255.2940   16.5818   42.1331 H   0  0  0  0  0  0  0  0  0  0  0  0  # atno 11501 bound_to 11468
  258.5103   12.6066   41.7471 H   0  0  0  0  0  0  0  0  0  0  0  0  # atno 11650 bound_to 11609
  260.4324   18.2686   38.2753 H   0  0  0  0  0  0  0  0  0  0  0  0  # atno 11832 bound_to 11793
  259.9261   12.6162   31.3075 H   0  0  0  0  0  0  0  0  0  0  0  0  # atno 16996 bound_to 16957
  256.6186   16.1222   35.3496 H   0  0  0  0  0  0  0  0  0  0  0  0  # atno 17004 bound_to 16968
  254.3762   10.1608   38.0873 H   0  0  0  0  0  0  0  0  0  0  0  0  # atno 17200 bound_to 17180
  251.6208   11.7806   39.6325 H   0  0  0  0  0  0  0  0  0  0  0  0  # atno 17260 bound_to 17226
  251.9447   14.0055   43.1912 H   0  0  0  0  0  0  0  0  0  0  0  0  # atno 17308 bound_to 17287
  249.6576    5.7607   40.6732 H   0  0  0  0  0  0  0  0  0  0  0  0  # atno 18300 bound_to 18279
  252.0166    4.4078   39.2141 H   0  0  0  0  0  0  0  0  0  0  0  0  # atno 18304 bound_to 18284
  250.3256    5.7913   37.9565 H   0  0  0  0  0  0  0  0  0  0  0  0  # atno 18330 bound_to 18317
  250.6311    4.9755   34.1500 H   0  0  0  0  0  0  0  0  0  0  0  0  # atno 18419 bound_to 18375
  252.7274    7.8458   31.3636 H   0  0  0  0  0  0  0  0  0  0  0  0  # atno 18504 bound_to 18465
  254.5213   14.5692   33.2773 H   0  0  0  0  0  0  0  0  0  0  0  0  # atno 18512 bound_to 18476
  250.5802   10.4850   29.1423 H   0  0  0  0  0  0  0  0  0  0  0  0  # atno 18572 bound_to 18537
  250.5107   10.2285   25.5899 H   0  0  0  0  0  0  0  0  0  0  0  0  # atno 18606 bound_to 18593
  247.6728   13.9781   25.4634 H   0  0  0  0  0  0  0  0  0  0  0  0  # atno 18664 bound_to 18636
  249.5295   14.4574   27.3917 H   0  0  0  0  0  0  0  0  0  0  0  0  # atno 18719 bound_to 18692
  252.5625   14.8114   27.7545 H   0  0  0  0  0  0  0  0  0  0  0  0  # atno 18790 bound_to 18749
  254.2467   15.6638   25.4921 H   0  0  0  0  0  0  0  0  0  0  0  0  # atno 18826 bound_to 18813
  253.0351   18.6524   24.0229 H   0  0  0  0  0  0  0  0  0  0  0  0  # atno 18884 bound_to 18850
  250.5319   19.6104   26.6261 H   0  0  0  0  0  0  0  0  0  0  0  0  # atno 18976 bound_to 18926
  252.5855   20.7065   29.4479 H   0  0  0  0  0  0  0  0  0  0  0  0  # atno 19033 bound_to 19013
  255.4076   19.9910   27.3198 H   0  0  0  0  0  0  0  0  0  0  0  0  # atno 19112 bound_to 19073
  250.7119    7.2702   26.2671 H   0  0  0  0  0  0  0  0  0  0  0  0  # atno 22456 bound_to 22422
  256.5231   15.3656   36.7872 LP  0  0  0  0  0  0  0  0  0  0  0  0  # atno 27193 bound_to 16968
  255.6291   14.8421   35.5248 LP  0  0  0  0  0  0  0  0  0  0  0  0  # atno 27194 bound_to 16968
  255.9438   13.7796   33.2598 LP  0  0  0  0  0  0  0  0  0  0  0  0  # atno 27195 bound_to 18476
  254.8042   13.3908   34.3629 LP  0  0  0  0  0  0  0  0  0  0  0  0  # atno 27196 bound_to 18476
  249.2587    9.3744   29.4274 LP  0  0  0  0  0  0  0  0  0  0  0  0  # atno 27197 bound_to 18537
  250.6244   13.2681   27.2401 LP  0  0  0  0  0  0  0  0  0  0  0  0  # atno 27198 bound_to 18540
  250.7276   12.2301   28.6228 LP  0  0  0  0  0  0  0  0  0  0  0  0  # atno 27199 bound_to 18540
  249.8308   17.9077   25.9762 LP  0  0  0  0  0  0  0  0  0  0  0  0  # atno 27200 bound_to 18633
  251.3056   17.5106   26.7931 LP  0  0  0  0  0  0  0  0  0  0  0  0  # atno 27201 bound_to 18633
  250.3452   15.7502   26.5584 LP  0  0  0  0  0  0  0  0  0  0  0  0  # atno 27202 bound_to 18692
  252.1536   18.4078   28.7808 LP  0  0  0  0  0  0  0  0  0  0  0  0  # atno 27203 bound_to 18695
  252.3570   17.5044   30.2445 LP  0  0  0  0  0  0  0  0  0  0  0  0  # atno 27204 bound_to 18695
  252.0921   16.4153   28.2775 LP  0  0  0  0  0  0  0  0  0  0  0  0  # atno 27209 bound_to 18749
  253.3239   19.8238   28.1316 LP  0  0  0  0  0  0  0  0  0  0  0  0  # atno 27210 bound_to 19013
  252.6791    8.2036   37.1615 LP  0  0  0  0  0  0  0  0  0  0  0  0  # atno 27222 bound_to 17133
  251.4605    9.2772   37.7636 LP  0  0  0  0  0  0  0  0  0  0  0  0  # atno 27223 bound_to 17133
  253.1445   11.3989   38.1841 LP  0  0  0  0  0  0  0  0  0  0  0  0  # atno 27224 bound_to 17180
  251.7571   10.7905   41.0703 LP  0  0  0  0  0  0  0  0  0  0  0  0  # atno 27225 bound_to 17226
  257.3443   13.3961   38.4721 LP  0  0  0  0  0  0  0  0  0  0  0  0  # atno 27226 bound_to 11612
  257.9574   14.7773   37.6258 LP  0  0  0  0  0  0  0  0  0  0  0  0  # atno 27227 bound_to 11612
  256.1328   10.8249   37.0274 LP  0  0  0  0  0  0  0  0  0  0  0  0  # atno 27230 bound_to 17060
  257.4239    9.6748   37.1283 LP  0  0  0  0  0  0  0  0  0  0  0  0  # atno 27231 bound_to 17060
  254.3571   18.9655   27.1412 LP  0  0  0  0  0  0  0  0  0  0  0  0  # atno 27232 bound_to 18752
  255.7517   18.4214   26.2700 LP  0  0  0  0  0  0  0  0  0  0  0  0  # atno 27233 bound_to 18752
  252.4914   15.0239   24.6749 LP  0  0  0  0  0  0  0  0  0  0  0  0  # atno 27234 bound_to 18596
  253.0065   14.0280   25.9951 LP  0  0  0  0  0  0  0  0  0  0  0  0  # atno 27235 bound_to 18596
  253.4882   17.0790   26.1896 LP  0  0  0  0  0  0  0  0  0  0  0  0  # atno 27236 bound_to 18813
  252.0524   20.3301   26.1646 LP  0  0  0  0  0  0  0  0  0  0  0  0  # atno 27237 bound_to 18926
  253.9551   22.7087   29.1982 LP  0  0  0  0  0  0  0  0  0  0  0  0  # atno 27238 bound_to 18929
  252.5960   23.2720   28.2841 LP  0  0  0  0  0  0  0  0  0  0  0  0  # atno 27239 bound_to 18929
  256.1485   23.0502   29.2516 LP  0  0  0  0  0  0  0  0  0  0  0  0  # atno 27240 bound_to 19016
  257.2933   21.8246   29.6847 LP  0  0  0  0  0  0  0  0  0  0  0  0  # atno 27241 bound_to 19016
  255.3152   21.4805   28.2323 LP  0  0  0  0  0  0  0  0  0  0  0  0  # atno 27242 bound_to 19073
  252.2477   15.0595   42.0080 LP  0  0  0  0  0  0  0  0  0  0  0  0  # atno 27243 bound_to 11418
  251.4763   16.2920   42.9492 LP  0  0  0  0  0  0  0  0  0  0  0  0  # atno 27244 bound_to 11418
  253.2517   12.6966   42.0175 LP  0  0  0  0  0  0  0  0  0  0  0  0  # atno 27245 bound_to 17183
  254.4876   11.5478   41.6263 LP  0  0  0  0  0  0  0  0  0  0  0  0  # atno 27246 bound_to 17183
  249.2945    8.3405   31.2689 LP  0  0  0  0  0  0  0  0  0  0  0  0  # atno 27247 bound_to 18378
  249.1628    7.3954   32.7143 LP  0  0  0  0  0  0  0  0  0  0  0  0  # atno 27248 bound_to 18378
  251.0865    7.2715   31.1653 LP  0  0  0  0  0  0  0  0  0  0  0  0  # atno 27249 bound_to 18465
  251.3780    8.8871   40.6023 LP  0  0  0  0  0  0  0  0  0  0  0  0  # atno 27250 bound_to 18217
  249.8722    9.4668   41.2319 LP  0  0  0  0  0  0  0  0  0  0  0  0  # atno 27251 bound_to 18217
  249.5698   11.2391   43.7031 LP  0  0  0  0  0  0  0  0  0  0  0  0  # atno 27254 bound_to 17229
  251.0274   10.4669   43.1747 LP  0  0  0  0  0  0  0  0  0  0  0  0  # atno 27255 bound_to 17229
  250.3692    7.2581   41.2222 LP  0  0  0  0  0  0  0  0  0  0  0  0  # atno 27256 bound_to 18279
  250.4987    7.1239   36.8374 LP  0  0  0  0  0  0  0  0  0  0  0  0  # atno 27257 bound_to 18317
  249.7746    6.4875   33.9358 LP  0  0  0  0  0  0  0  0  0  0  0  0  # atno 27258 bound_to 18375
  252.3989    4.1520   34.6330 LP  0  0  0  0  0  0  0  0  0  0  0  0  # atno 27259 bound_to 18320
  252.6598    5.5141   35.6706 LP  0  0  0  0  0  0  0  0  0  0  0  0  # atno 27260 bound_to 18320
  249.9920    7.3813   28.2480 LP  0  0  0  0  0  0  0  0  0  0  0  0  # atno 27261 bound_to 18468
  251.4915    8.0299   27.6730 LP  0  0  0  0  0  0  0  0  0  0  0  0  # atno 27262 bound_to 18468
  241.9846    8.6496   32.6783 LP  0  0  0  0  0  0  0  0  0  0  0  0  # atno 27263 bound_to 7517
  248.9090    4.4632   38.6593 LP  0  0  0  0  0  0  0  0  0  0  0  0  # atno 27264 bound_to 18282
  250.5341    3.9418   38.9547 LP  0  0  0  0  0  0  0  0  0  0  0  0  # atno 27265 bound_to 18282
  241.8004   11.1834   32.1431 LP  0  0  0  0  0  0  0  0  0  0  0  0  # atno 27266 bound_to 7462
  255.6402    8.2342   32.6574 LP  0  0  0  0  0  0  0  0  0  0  0  0  # atno 27267 bound_to 17020
  256.2960    6.6636   32.3359 LP  0  0  0  0  0  0  0  0  0  0  0  0  # atno 27268 bound_to 17020
  249.7828   11.6866   26.2333 LP  0  0  0  0  0  0  0  0  0  0  0  0  # atno 27269 bound_to 18593
  247.0964    1.8175   36.0064 LP  0  0  0  0  0  0  0  0  0  0  0  0  # atno 27270 bound_to 10100
  248.6583    1.4164   35.7488 LP  0  0  0  0  0  0  0  0  0  0  0  0  # atno 27271 bound_to 10100
  252.4240    4.8198   40.7345 LP  0  0  0  0  0  0  0  0  0  0  0  0  # atno 27272 bound_to 18284
  253.5752    4.6940   39.5832 LP  0  0  0  0  0  0  0  0  0  0  0  0  # atno 27273 bound_to 18284
  253.6925   16.2202   42.7442 LP  0  0  0  0  0  0  0  0  0  0  0  0  # atno 27274 bound_to 11468
  257.8359   11.4591   32.3701 LP  0  0  0  0  0  0  0  0  0  0  0  0  # atno 27275 bound_to 16960
  258.2376   10.6148   30.9122 LP  0  0  0  0  0  0  0  0  0  0  0  0  # atno 27276 bound_to 16960

> <Gold.Score>
     Fitness  S(hb_ext) S(vdw_ext)  S(hb_int)    S(int)      intcor
     33.09       6.63      20.30       0.00      -1.46      -0.76

> <Gold.Goldscore.Fitness>
33.0865

> <Gold.Goldscore.Internal.Vdw>
-1.7184

> <Gold.Goldscore.Internal.Torsion>
-0.5034

> <Gold.Goldscore.External.Vdw>
20.3027

> <Gold.Goldscore.Internal.HBond>
0.0000

> <Gold.Goldscore.External.HBond>
6.6336

> <Gold.Goldscore.Internal.Correction>
-0.7585

> <Gold.Goldscore.Hbonds>
donor molecule, donor type, donor heavy atom, donor atom, acceptor molecule, acceptor atom, score
      P1  H 19355 19405       L1     9  0.01
      L1  H     8    22       P1 19019  0.11
      L1  H    10    23       P1 27122  0.98

> <Gold.Goldscore.Internal.Vdw.Weighted>
-1.7184

> <Gold.Goldscore.Internal.Torsion.Weighted>
-0.5034

> <Gold.Goldscore.External.Vdw.Weighted>
27.9162

> <Gold.Goldscore.Internal.HBond.Weighted>
0.0000

> <Gold.Goldscore.External.HBond.Weighted>
6.6336

> <Gold.Goldscore.Internal.Correction.Weighted>
-0.7585

> <Gold.Rescore>
     Score     S(PLP)   S(hbond)     S(cho)   S(metal)  DE(clash)   DE(tors)     intcor
     18.61     -16.06       1.40       0.00       0.00       1.16       0.25       ----

> <Gold.PLP.Fitness>
18.6059

> <Gold.PLP.PLP>
-16.0572

> <Gold.PLP.part.hbond>
-3.3073

> <Gold.PLP.part.metal>
0.0000

> <Gold.PLP.part.buried>
-0.7406

> <Gold.PLP.part.nonpolar>
-13.7297

> <Gold.PLP.part.repulsive>
0.6736

> <Gold.PLP.ligand.clash>
1.1590

> <Gold.PLP.ligand.torsion>
0.2510

> <Gold.PLP.Chemscore.Hbond>
1.4033

> <Gold.PLP.Chemscore.CHOScore>
0.0000

> <Gold.PLP.Chemscore.Metal>
0.0000

> <Gold.Chemscore.Hbonds>
donor molecule, donor type, donor heavy atom, donor atom, acceptor molecule, acceptor atom, score
      L1  H     8    22       P1 19019  0.28
      L1  H    10    23       P1 27122  0.34
      P1  H 19355 19405       L1     9  0.18

> <Gold.PLP.Chemscore.Internal.Correction>
   9.000000E+99

