#       Name:                CT1002167954
#       Creating user name   hitesit
#       Creation time:       Sun Apr 16 23:06:24 2023


#       File generated by GOLD software.
#

@<TRIPOS>MOLECULE
CT1002167954|ligand_prepared|mol2|1|dock6
    29    30     1
SMALL
NO_CHARGES


@<TRIPOS>ATOM
      1 C1         250.5999  18.2329  34.6034 C.3            1 RES1               0.0000
      2 C2         250.4515  18.3705  36.1324 C.ar           1 RES1               0.0000
      3 C3         252.0353  18.6326  34.2746 C.2            1 RES1               0.0000
      4 C4         250.2663  16.7828  34.2712 C.2            1 RES1               0.0000
      5 C5         249.6407  19.1403  33.7984 C.3            1 RES1               0.0000
      6 C6         251.5640  18.6089  36.9337 C.ar           1 RES1               0.0000
      7 C7         249.2104  18.2643  36.7546 C.ar           1 RES1               0.0000
      8 N8         252.9078  17.6384  33.9427 N.am           1 RES1               0.0000
      9 O9         252.4060  19.7980  34.3439 O.2            1 RES1               0.0000
     10 N10        251.2688  15.9905  33.7761 N.am           1 RES1               0.0000
     11 O11        249.1486  16.3145  34.4493 O.2            1 RES1               0.0000
     12 C12        249.8024  19.0191  32.2913 C.3            1 RES1               0.0000
     13 C13        251.4401  18.7394  38.3070 C.ar           1 RES1               0.0000
     14 C14        249.0888  18.3949  38.1281 C.ar           1 RES1               0.0000
     15 C15        252.5820  16.3442  33.6257 C.2            1 RES1               0.0000
     16 C16        250.2025  18.6330  38.9051 C.ar           1 RES1               0.0000
     17 O17        253.4364  15.5588  33.2252 O.2            1 RES1               0.0000
     18 H18        248.6074  18.8856  34.0643 H              1 RES1               0.0000
     19 H19        249.8143  20.1837  34.0892 H              1 RES1               0.0000
     20 H20        252.5464  18.6933  36.4812 H              1 RES1               0.0000
     21 H21        248.3206  18.0762  36.1634 H              1 RES1               0.0000
     22 H22        253.8937  17.8794  33.9291 H              1 RES1               0.0000
     23 H23        251.0123  15.0500  33.4933 H              1 RES1               0.0000
     24 H24        249.1062  19.6764  31.7745 H              1 RES1               0.0000
     25 H25        250.8118  19.2895  31.9886 H              1 RES1               0.0000
     26 H26        249.6120  17.9991  31.9638 H              1 RES1               0.0000
     27 H27        252.3199  18.9253  38.9142 H              1 RES1               0.0000
     28 H28        248.1129  18.3098  38.5946 H              1 RES1               0.0000
     29 H29        250.1056  18.7356  39.9808 H              1 RES1               0.0000
@<TRIPOS>BOND
    1    1    2 1     
    2    1    3 1     
    3    1    4 1     
    4    1    5 1     
    5    2    6 ar    
    6    2    7 ar    
    7    3    8 1     
    8    3    9 2     
    9    4   10 1     
   10    4   11 2     
   11    5   12 1     
   12    5   18 1     
   13    5   19 1     
   14    6   13 ar    
   15    6   20 1     
   16    7   14 ar    
   17    7   21 1     
   18    8   15 1     
   19    8   22 1     
   20   10   15 1     
   21   10   23 1     
   22   12   24 1     
   23   12   25 1     
   24   12   26 1     
   25   13   16 ar    
   26   13   27 1     
   27   14   16 ar    
   28   14   28 1     
   29   15   17 2     
   30   16   29 1     
@<TRIPOS>SUBSTRUCTURE
      1 RES1           1
@<TRIPOS>SET
DONOR_HYDROGENS      STATIC     ATOMS    <user>   **** ""
2 22 23
ATOM$RED        STATIC     ATOMS    COLORGROUP SYSTEM
2 22 23
@<TRIPOS>COMMENT
> <Gold.Version>
2022.3.0

> <Gold.Id.Protein>
unknown|4d1n_clean|pdb

> <Gold.Protein.RotatedTorsions>
[ 17004 16968 16967 16965 ] final -144.94 input   59.98 | X-H torsion
[ 18512 18476 18475 18473 ] final -105.11 input   59.98 | X-H torsion
[ 18572 18537 18538 18539 ] final -149.31 input   87.04 | X-H torsion
[ 18719 18692 18693 18694 ] final  116.92 input  124.02 | X-H torsion
[ 18790 18749 18750 18751 ] final -131.56 input   91.60 | X-H torsion
[ 19033 19013 19014 19015 ] final  -69.49 input  122.46 | X-H torsion
[ 17200 17180 17181 17182 ] final   85.32 input   47.21 | X-H torsion
[ 17260 17226 17227 17228 ] final   93.77 input  117.85 | X-H torsion
[ 18826 18813 18814 18815 ] final  120.51 input  116.01 | X-H torsion
[ 18976 18926 18927 18928 ] final  102.03 input  102.20 | X-H torsion
[ 19112 19073 19074 19075 ] final   22.75 input   89.03 | X-H torsion
[ 18504 18465 18466 18467 ] final   76.85 input  102.26 | X-H torsion
[ 18300 18279 18280 18281 ] final   18.28 input   28.27 | X-H torsion
[ 18330 18317 18318 18319 ] final  -69.53 input   50.43 | X-H torsion
[ 18419 18375 18376 18377 ] final  -26.05 input   32.92 | X-H torsion
[ 7530 7517 7518 7519 ] final   48.80 input   89.56 | X-H torsion
[ 7496 7462 7463 7464 ] final  -55.78 input  103.52 | X-H torsion
[ 18606 18593 18594 18595 ] final  -59.89 input  124.70 | X-H torsion
[ 10120 10100 10099 10096 ] final  -31.75 input   60.00 | X-H torsion
[ 18304 18284 18283 18280 ] final  157.94 input   60.01 | X-H torsion
[ 11501 11468 11469 11470 ] final -131.05 input   45.03 | X-H torsion
[ 18664 18636 18634 18631 ] final   -5.00 input   60.01 | X-H torsion
[ 18884 18850 18851 18852 ] final  159.06 input   84.91 | X-H torsion
[ 17308 17287 17288 17289 ] final  -61.17 input   50.16 | X-H torsion
[ 22456 22422 22423 22424 ] final -119.94 input   54.84 | X-H torsion
[ 11440 11420 11419 11416 ] final   67.16 input   60.01 | X-H torsion
[ 11650 11609 11610 11611 ] final  -45.72 input   61.57 | X-H torsion
[ 11832 11793 11794 11795 ] final   35.82 input   91.14 | X-H torsion
[ 16996 16957 16958 16959 ] final  119.49 input   91.87 | X-H torsion
[ 27198 18540 18539 18538 ] final  -38.24 input   -0.00 | X-H torsion
[ 27200 18633 18632 18631 ] final  -60.74 input    0.00 | X-H torsion
[ 27203 18695 18694 18693 ] final -171.86 input   -0.00 | X-H torsion
[ 27222 17133 17132 17131 ] final -104.61 input    0.00 | X-H torsion
[ 27226 11612 11611 11610 ] final   89.46 input    0.00 | X-H torsion
[ 27230 17060 17059 17058 ] final  -58.15 input   -0.00 | X-H torsion
[ 27232 18752 18751 18750 ] final  -97.56 input    0.00 | X-H torsion
[ 27234 18596 18595 18594 ] final   26.36 input   -0.00 | X-H torsion
[ 27238 18929 18928 18927 ] final  125.78 input   -0.00 | X-H torsion
[ 27240 19016 19015 19014 ] final  106.10 input   -0.00 | X-H torsion
[ 27243 11418 11417 11416 ] final   11.29 input    0.00 | X-H torsion
[ 27245 17183 17182 17181 ] final  -93.58 input   -0.00 | X-H torsion
[ 27247 18378 18377 18376 ] final   51.17 input   -0.00 | X-H torsion
[ 27250 18217 18216 18215 ] final  146.26 input    0.00 | X-H torsion
[ 27254 17229 17228 17227 ] final  113.18 input   -0.00 | X-H torsion
[ 27259 18320 18319 18318 ] final   -2.28 input    0.00 | X-H torsion
[ 27261 18468 18467 18466 ] final   71.56 input    0.00 | X-H torsion
[ 27264 18282 18281 18280 ] final  114.94 input   -0.00 | X-H torsion
[ 27267 17020 17019 17018 ] final  -93.49 input   -0.00 | X-H torsion
[ 27275 16960 16959 16958 ] final    6.44 input    0.00 | X-H torsion

> <Gold.Protein.ActiveResidues>
 TRP414  CYS420  VAL421  GLY422  LEU460  SER462  SER482  GLN483  ILE485  ARG486 
 TYR487  ASP500  ASN503  TRP566  TYR567  GLY568  LEU569  PRO570  ALA571  VAL572 
 SER573  ASN574  PHE589  SER590  GLY591  TRP592  TYR593  MET594  GLY595  THR596 
 GLU597  ILE598  GLY599  VAL600  ARG601  ASP602  TYR603  ARG608  ILE653  VAL654 
 TRP683  PRO687  HEM750  H4B760 

> <Gold.Protein.RotatedAtoms>
  240.6590   10.1983   32.9513 H   0  0  0  0  0  0  0  0  0  0  0  0  # atno 7496 bound_to 7462
  241.5841    8.4543   32.7266 H   0  0  0  0  0  0  0  0  0  0  0  0  # atno 7530 bound_to 7517
  248.7939    2.5571   36.0847 H   0  0  0  0  0  0  0  0  0  0  0  0  # atno 10120 bound_to 10100
  254.1705   18.5700   41.1704 H   0  0  0  0  0  0  0  0  0  0  0  0  # atno 11440 bound_to 11420
  253.6393   16.2069   42.6846 H   0  0  0  0  0  0  0  0  0  0  0  0  # atno 11501 bound_to 11468
  257.9412   13.2008   41.3100 H   0  0  0  0  0  0  0  0  0  0  0  0  # atno 11650 bound_to 11609
  260.1560   18.4800   37.6285 H   0  0  0  0  0  0  0  0  0  0  0  0  # atno 11832 bound_to 11793
  260.5821   13.3807   32.4161 H   0  0  0  0  0  0  0  0  0  0  0  0  # atno 16996 bound_to 16957
  256.5711   16.0925   35.2867 H   0  0  0  0  0  0  0  0  0  0  0  0  # atno 17004 bound_to 16968
  254.5602   10.9766   38.4491 H   0  0  0  0  0  0  0  0  0  0  0  0  # atno 17200 bound_to 17180
  250.8861   10.9091   40.2494 H   0  0  0  0  0  0  0  0  0  0  0  0  # atno 17260 bound_to 17226
  250.4439   13.3358   43.3575 H   0  0  0  0  0  0  0  0  0  0  0  0  # atno 17308 bound_to 17287
  249.6932    5.7388   40.6905 H   0  0  0  0  0  0  0  0  0  0  0  0  # atno 18300 bound_to 18279
  253.5513    4.6802   39.5289 H   0  0  0  0  0  0  0  0  0  0  0  0  # atno 18304 bound_to 18284
  251.0798    5.9127   37.5757 H   0  0  0  0  0  0  0  0  0  0  0  0  # atno 18330 bound_to 18317
  249.9004    6.5847   34.0476 H   0  0  0  0  0  0  0  0  0  0  0  0  # atno 18419 bound_to 18375
  252.4892    7.3425   30.6382 H   0  0  0  0  0  0  0  0  0  0  0  0  # atno 18504 bound_to 18465
  255.6683   14.2136   32.9616 H   0  0  0  0  0  0  0  0  0  0  0  0  # atno 18512 bound_to 18476
  249.6004    9.0925   29.2015 H   0  0  0  0  0  0  0  0  0  0  0  0  # atno 18572 bound_to 18537
  250.3348   11.3789   26.6881 H   0  0  0  0  0  0  0  0  0  0  0  0  # atno 18606 bound_to 18593
  248.1772   14.3965   26.1892 H   0  0  0  0  0  0  0  0  0  0  0  0  # atno 18664 bound_to 18636
  249.8478   14.3282   27.3600 H   0  0  0  0  0  0  0  0  0  0  0  0  # atno 18719 bound_to 18692
  252.3583   15.8641   28.8797 H   0  0  0  0  0  0  0  0  0  0  0  0  # atno 18790 bound_to 18749
  253.5126   15.6910   25.4090 H   0  0  0  0  0  0  0  0  0  0  0  0  # atno 18826 bound_to 18813
  251.9001   17.9379   23.9677 H   0  0  0  0  0  0  0  0  0  0  0  0  # atno 18884 bound_to 18850
  251.0635   19.2674   26.8614 H   0  0  0  0  0  0  0  0  0  0  0  0  # atno 18976 bound_to 18926
  252.8174   21.1283   28.8787 H   0  0  0  0  0  0  0  0  0  0  0  0  # atno 19033 bound_to 19013
  254.7046   21.1856   27.3780 H   0  0  0  0  0  0  0  0  0  0  0  0  # atno 19112 bound_to 19073
  251.3382    5.7993   25.5754 H   0  0  0  0  0  0  0  0  0  0  0  0  # atno 22456 bound_to 22422
  256.5733   15.4326   36.7743 LP  0  0  0  0  0  0  0  0  0  0  0  0  # atno 27193 bound_to 16968
  255.6267   14.8050   35.6010 LP  0  0  0  0  0  0  0  0  0  0  0  0  # atno 27194 bound_to 16968
  255.3550   13.2201   34.2113 LP  0  0  0  0  0  0  0  0  0  0  0  0  # atno 27195 bound_to 18476
  254.2371   14.3086   33.7295 LP  0  0  0  0  0  0  0  0  0  0  0  0  # atno 27196 bound_to 18476
  250.2084   10.7243   29.3700 LP  0  0  0  0  0  0  0  0  0  0  0  0  # atno 27197 bound_to 18537
  249.8901   12.8008   28.2915 LP  0  0  0  0  0  0  0  0  0  0  0  0  # atno 27198 bound_to 18540
  251.4619   12.6974   27.5713 LP  0  0  0  0  0  0  0  0  0  0  0  0  # atno 27199 bound_to 18540
  251.2583   17.5609   25.8828 LP  0  0  0  0  0  0  0  0  0  0  0  0  # atno 27200 bound_to 18633
  249.8782   17.8574   26.8865 LP  0  0  0  0  0  0  0  0  0  0  0  0  # atno 27201 bound_to 18633
  250.0274   15.8793   26.5900 LP  0  0  0  0  0  0  0  0  0  0  0  0  # atno 27202 bound_to 18692
  253.0434   17.9646   29.1536 LP  0  0  0  0  0  0  0  0  0  0  0  0  # atno 27203 bound_to 18695
  251.4673   17.9476   29.8716 LP  0  0  0  0  0  0  0  0  0  0  0  0  # atno 27204 bound_to 18695
  252.2891   15.4000   27.1923 LP  0  0  0  0  0  0  0  0  0  0  0  0  # atno 27209 bound_to 18749
  253.0982   19.4134   28.6855 LP  0  0  0  0  0  0  0  0  0  0  0  0  # atno 27210 bound_to 19013
  251.4264    9.3087   37.5772 LP  0  0  0  0  0  0  0  0  0  0  0  0  # atno 27222 bound_to 17133
  252.7132    8.1722   37.3479 LP  0  0  0  0  0  0  0  0  0  0  0  0  # atno 27223 bound_to 17133
  252.9658   10.6063   37.8327 LP  0  0  0  0  0  0  0  0  0  0  0  0  # atno 27224 bound_to 17180
  252.4654   11.6308   40.4755 LP  0  0  0  0  0  0  0  0  0  0  0  0  # atno 27225 bound_to 17226
  257.1440   14.3073   38.7156 LP  0  0  0  0  0  0  0  0  0  0  0  0  # atno 27226 bound_to 11612
  258.1578   13.8661   37.3823 LP  0  0  0  0  0  0  0  0  0  0  0  0  # atno 27227 bound_to 11612
  256.9103    9.5918   37.6252 LP  0  0  0  0  0  0  0  0  0  0  0  0  # atno 27230 bound_to 17060
  256.6464   10.9079   36.5305 LP  0  0  0  0  0  0  0  0  0  0  0  0  # atno 27231 bound_to 17060
  254.2626   19.0423   26.7410 LP  0  0  0  0  0  0  0  0  0  0  0  0  # atno 27232 bound_to 18752
  255.8463   18.3446   26.6702 LP  0  0  0  0  0  0  0  0  0  0  0  0  # atno 27233 bound_to 18752
  253.2523   13.9179   24.9787 LP  0  0  0  0  0  0  0  0  0  0  0  0  # atno 27234 bound_to 18596
  252.2456   15.1341   25.6912 LP  0  0  0  0  0  0  0  0  0  0  0  0  # atno 27235 bound_to 18596
  254.1976   17.0527   26.2699 LP  0  0  0  0  0  0  0  0  0  0  0  0  # atno 27236 bound_to 18813
  251.5273   20.6689   25.9321 LP  0  0  0  0  0  0  0  0  0  0  0  0  # atno 27237 bound_to 18926
  253.4369   22.8608   29.5821 LP  0  0  0  0  0  0  0  0  0  0  0  0  # atno 27238 bound_to 18929
  253.1142   23.1199   27.9002 LP  0  0  0  0  0  0  0  0  0  0  0  0  # atno 27239 bound_to 18929
  257.3980   21.9023   29.3957 LP  0  0  0  0  0  0  0  0  0  0  0  0  # atno 27240 bound_to 19016
  256.0438   22.9725   29.5407 LP  0  0  0  0  0  0  0  0  0  0  0  0  # atno 27241 bound_to 19016
  255.9982   20.3199   28.1758 LP  0  0  0  0  0  0  0  0  0  0  0  0  # atno 27242 bound_to 19073
  251.4646   16.3707   42.8089 LP  0  0  0  0  0  0  0  0  0  0  0  0  # atno 27243 bound_to 11418
  252.2594   14.9808   42.1483 LP  0  0  0  0  0  0  0  0  0  0  0  0  # atno 27244 bound_to 11418
  253.6281   11.6093   42.4765 LP  0  0  0  0  0  0  0  0  0  0  0  0  # atno 27245 bound_to 17183
  254.1112   12.6352   41.1672 LP  0  0  0  0  0  0  0  0  0  0  0  0  # atno 27246 bound_to 17183
  249.3109    7.8752   32.8537 LP  0  0  0  0  0  0  0  0  0  0  0  0  # atno 27247 bound_to 18378
  249.1464    7.8607   31.1295 LP  0  0  0  0  0  0  0  0  0  0  0  0  # atno 27248 bound_to 18378
  251.3174    7.7596   31.8689 LP  0  0  0  0  0  0  0  0  0  0  0  0  # atno 27249 bound_to 18465
  251.2736    8.8696   40.4323 LP  0  0  0  0  0  0  0  0  0  0  0  0  # atno 27250 bound_to 18217
  249.9766    9.4842   41.4020 LP  0  0  0  0  0  0  0  0  0  0  0  0  # atno 27251 bound_to 18217
  251.1030   10.6206   43.6601 LP  0  0  0  0  0  0  0  0  0  0  0  0  # atno 27254 bound_to 17229
  249.4942   11.0853   43.2177 LP  0  0  0  0  0  0  0  0  0  0  0  0  # atno 27255 bound_to 17229
  250.3343    7.2796   41.2053 LP  0  0  0  0  0  0  0  0  0  0  0  0  # atno 27256 bound_to 18279
  249.7654    7.0058   37.2076 LP  0  0  0  0  0  0  0  0  0  0  0  0  # atno 27257 bound_to 18317
  250.4805    4.9328   34.0348 LP  0  0  0  0  0  0  0  0  0  0  0  0  # atno 27258 bound_to 18375
  252.3115    4.6482   35.9693 LP  0  0  0  0  0  0  0  0  0  0  0  0  # atno 27259 bound_to 18320
  252.7472    5.0179   34.3343 LP  0  0  0  0  0  0  0  0  0  0  0  0  # atno 27260 bound_to 18320
  250.3974    7.1814   28.5577 LP  0  0  0  0  0  0  0  0  0  0  0  0  # atno 27261 bound_to 18468
  251.0861    8.2298   27.3633 LP  0  0  0  0  0  0  0  0  0  0  0  0  # atno 27262 bound_to 18468
  241.9165    8.5567   31.0135 LP  0  0  0  0  0  0  0  0  0  0  0  0  # atno 27263 bound_to 7517
  248.9136    4.4447   38.6106 LP  0  0  0  0  0  0  0  0  0  0  0  0  # atno 27264 bound_to 18282
  250.5295    3.9604   39.0034 LP  0  0  0  0  0  0  0  0  0  0  0  0  # atno 27265 bound_to 18282
  241.5342   11.4294   32.0636 LP  0  0  0  0  0  0  0  0  0  0  0  0  # atno 27266 bound_to 7462
  255.7387    8.2782   32.3982 LP  0  0  0  0  0  0  0  0  0  0  0  0  # atno 27267 bound_to 17020
  256.1975    6.6196   32.5951 LP  0  0  0  0  0  0  0  0  0  0  0  0  # atno 27268 bound_to 17020
  249.9521   10.5797   25.1766 LP  0  0  0  0  0  0  0  0  0  0  0  0  # atno 27269 bound_to 18593
  247.1736    2.4453   36.1894 LP  0  0  0  0  0  0  0  0  0  0  0  0  # atno 27270 bound_to 10100
  248.0554    1.1529   35.7218 LP  0  0  0  0  0  0  0  0  0  0  0  0  # atno 27271 bound_to 10100
  251.9706    4.4092   39.2540 LP  0  0  0  0  0  0  0  0  0  0  0  0  # atno 27272 bound_to 18284
  252.4825    4.8301   40.7465 LP  0  0  0  0  0  0  0  0  0  0  0  0  # atno 27273 bound_to 18284
  255.2846   16.5809   42.2135 LP  0  0  0  0  0  0  0  0  0  0  0  0  # atno 27274 bound_to 11468
  258.4196   11.8114   31.5802 LP  0  0  0  0  0  0  0  0  0  0  0  0  # atno 27275 bound_to 16960
  257.6540   10.2625   31.7021 LP  0  0  0  0  0  0  0  0  0  0  0  0  # atno 27276 bound_to 16960

> <Gold.Score>
     Fitness  S(hb_ext) S(vdw_ext)  S(hb_int)    S(int)      intcor
     26.47       1.23      20.03       0.00      -2.30      -0.76

> <Gold.Goldscore.Fitness>
26.4667

> <Gold.Goldscore.Internal.Vdw>
-2.6917

> <Gold.Goldscore.Internal.Torsion>
-0.3683

> <Gold.Goldscore.External.Vdw>
20.0313

> <Gold.Goldscore.Internal.HBond>
0.0000

> <Gold.Goldscore.External.HBond>
1.2251

> <Gold.Goldscore.Internal.Correction>
-0.7585

> <Gold.Goldscore.Hbonds>
donor molecule, donor type, donor heavy atom, donor atom, acceptor molecule, acceptor atom, score
      P1  H 11475 11507       L1    17  0.02
      P1  H 19355 19405       L1     9  0.06
      L1  H    10    23       P1 18699  0.14

> <Gold.Goldscore.Internal.Vdw.Weighted>
-2.6917

> <Gold.Goldscore.Internal.Torsion.Weighted>
-0.3683

> <Gold.Goldscore.External.Vdw.Weighted>
27.5431

> <Gold.Goldscore.Internal.HBond.Weighted>
0.0000

> <Gold.Goldscore.External.HBond.Weighted>
1.2251

> <Gold.Goldscore.Internal.Correction.Weighted>
-0.7585

> <Gold.Rescore>
     Score     S(PLP)   S(hbond)     S(cho)   S(metal)  DE(clash)   DE(tors)     intcor
     14.29     -15.76       0.27       0.00       0.00       2.06       0.11       ----

> <Gold.PLP.Fitness>
14.2862

> <Gold.PLP.PLP>
-15.7570

> <Gold.PLP.part.hbond>
-4.6906

> <Gold.PLP.part.metal>
0.0000

> <Gold.PLP.part.buried>
-0.0538

> <Gold.PLP.part.nonpolar>
-16.7710

> <Gold.PLP.part.repulsive>
3.5497

> <Gold.PLP.ligand.clash>
2.0605

> <Gold.PLP.ligand.torsion>
0.1132

> <Gold.PLP.Chemscore.Hbond>
0.2720

> <Gold.PLP.Chemscore.CHOScore>
0.0000

> <Gold.PLP.Chemscore.Metal>
0.0000

> <Gold.Chemscore.Hbonds>
donor molecule, donor type, donor heavy atom, donor atom, acceptor molecule, acceptor atom, score
      P1  H 19355 19405       L1     9  0.46

> <Gold.PLP.Chemscore.Internal.Correction>
   9.000000E+99

