#       Name:                CT1002167954
#       Creating user name   hitesit
#       Creation time:       Sun Apr 16 23:06:20 2023


#       File generated by GOLD software.
#

@<TRIPOS>MOLECULE
CT1002167954|ligand_prepared|mol2|1|dock1
    29    30     1
SMALL
NO_CHARGES


@<TRIPOS>ATOM
      1 C1         250.5955  17.3371  34.2516 C.3            1 RES1               0.0000
      2 C2         250.0953  16.0106  34.8591 C.ar           1 RES1               0.0000
      3 C3         251.0808  18.1880  35.4216 C.2            1 RES1               0.0000
      4 C4         251.6896  16.9651  33.2570 C.2            1 RES1               0.0000
      5 C5         249.5052  18.1258  33.4897 C.3            1 RES1               0.0000
      6 C6         250.7457  14.8128  34.5781 C.ar           1 RES1               0.0000
      7 C7         248.9884  15.9692  35.7027 C.ar           1 RES1               0.0000
      8 N8         252.4273  18.3359  35.5796 N.am           1 RES1               0.0000
      9 O9         250.2951  18.6889  36.2166 O.2            1 RES1               0.0000
     10 N10        252.9696  17.3718  33.5286 N.am           1 RES1               0.0000
     11 O11        251.4575  16.3092  32.2489 O.2            1 RES1               0.0000
     12 C12        250.0520  19.2585  32.6352 C.3            1 RES1               0.0000
     13 C13        250.3074  13.6173  35.1231 C.ar           1 RES1               0.0000
     14 C14        248.5516  14.7726  36.2465 C.ar           1 RES1               0.0000
     15 C15        253.3932  18.0139  34.6603 C.2            1 RES1               0.0000
     16 C16        249.2104  13.5964  35.9579 C.ar           1 RES1               0.0000
     17 O17        254.5710  18.2986  34.8571 O.2            1 RES1               0.0000
     18 H18        248.9531  17.4315  32.8443 H              1 RES1               0.0000
     19 H19        248.7974  18.5423  34.2170 H              1 RES1               0.0000
     20 H20        251.6093  14.8092  33.9213 H              1 RES1               0.0000
     21 H21        248.4539  16.8821  35.9428 H              1 RES1               0.0000
     22 H22        252.7455  18.7214  36.4630 H              1 RES1               0.0000
     23 H23        253.6718  17.1781  32.8217 H              1 RES1               0.0000
     24 H24        249.2457  19.7789  32.1226 H              1 RES1               0.0000
     25 H25        250.5859  19.9814  33.2486 H              1 RES1               0.0000
     26 H26        250.7407  18.8771  31.8841 H              1 RES1               0.0000
     27 H27        250.8286  12.6942  34.8918 H              1 RES1               0.0000
     28 H28        247.6874  14.7608  36.9025 H              1 RES1               0.0000
     29 H29        248.8675  12.6599  36.3850 H              1 RES1               0.0000
@<TRIPOS>BOND
    1    1    2 1     
    2    1    3 1     
    3    1    4 1     
    4    1    5 1     
    5    2    6 ar    
    6    2    7 ar    
    7    3    8 1     
    8    3    9 2     
    9    4   10 1     
   10    4   11 2     
   11    5   12 1     
   12    5   18 1     
   13    5   19 1     
   14    6   13 ar    
   15    6   20 1     
   16    7   14 ar    
   17    7   21 1     
   18    8   15 1     
   19    8   22 1     
   20   10   15 1     
   21   10   23 1     
   22   12   24 1     
   23   12   25 1     
   24   12   26 1     
   25   13   16 ar    
   26   13   27 1     
   27   14   16 ar    
   28   14   28 1     
   29   15   17 2     
   30   16   29 1     
@<TRIPOS>SUBSTRUCTURE
      1 RES1           1
@<TRIPOS>SET
DONOR_HYDROGENS      STATIC     ATOMS    <user>   **** ""
2 22 23
ATOM$RED        STATIC     ATOMS    COLORGROUP SYSTEM
2 22 23
@<TRIPOS>COMMENT
> <Gold.Version>
2022.3.0

> <Gold.Id.Protein>
unknown|4d1n_clean|pdb

> <Gold.Protein.RotatedTorsions>
[ 17004 16968 16967 16965 ] final   92.82 input   59.98 | X-H torsion
[ 18512 18476 18475 18473 ] final   33.14 input   59.98 | X-H torsion
[ 18572 18537 18538 18539 ] final   60.66 input   87.04 | X-H torsion
[ 18719 18692 18693 18694 ] final    3.53 input  124.02 | X-H torsion
[ 18790 18749 18750 18751 ] final  170.69 input   91.60 | X-H torsion
[ 19033 19013 19014 19015 ] final  119.79 input  122.46 | X-H torsion
[ 17200 17180 17181 17182 ] final  -52.70 input   47.21 | X-H torsion
[ 17260 17226 17227 17228 ] final -122.18 input  117.85 | X-H torsion
[ 18826 18813 18814 18815 ] final  -90.21 input  116.01 | X-H torsion
[ 18976 18926 18927 18928 ] final  -56.09 input  102.20 | X-H torsion
[ 19112 19073 19074 19075 ] final   50.86 input   89.03 | X-H torsion
[ 18504 18465 18466 18467 ] final   40.90 input  102.26 | X-H torsion
[ 18300 18279 18280 18281 ] final  -34.45 input   28.27 | X-H torsion
[ 18330 18317 18318 18319 ] final  177.65 input   50.43 | X-H torsion
[ 18419 18375 18376 18377 ] final   81.70 input   32.92 | X-H torsion
[ 7530 7517 7518 7519 ] final  135.05 input   89.56 | X-H torsion
[ 7496 7462 7463 7464 ] final  -33.50 input  103.52 | X-H torsion
[ 18606 18593 18594 18595 ] final -105.02 input  124.70 | X-H torsion
[ 10120 10100 10099 10096 ] final   14.23 input   60.00 | X-H torsion
[ 18304 18284 18283 18280 ] final  178.19 input   60.01 | X-H torsion
[ 11501 11468 11469 11470 ] final  137.75 input   45.03 | X-H torsion
[ 18664 18636 18634 18631 ] final  -96.35 input   60.01 | X-H torsion
[ 18884 18850 18851 18852 ] final  -96.41 input   84.91 | X-H torsion
[ 17308 17287 17288 17289 ] final  -49.40 input   50.16 | X-H torsion
[ 22456 22422 22423 22424 ] final   22.71 input   54.84 | X-H torsion
[ 11440 11420 11419 11416 ] final  143.22 input   60.01 | X-H torsion
[ 11650 11609 11610 11611 ] final  -53.75 input   61.57 | X-H torsion
[ 11832 11793 11794 11795 ] final  -22.79 input   91.14 | X-H torsion
[ 16996 16957 16958 16959 ] final -133.14 input   91.87 | X-H torsion
[ 27198 18540 18539 18538 ] final  148.84 input   -0.00 | X-H torsion
[ 27200 18633 18632 18631 ] final   81.41 input    0.00 | X-H torsion
[ 27203 18695 18694 18693 ] final  -12.16 input   -0.00 | X-H torsion
[ 27222 17133 17132 17131 ] final   61.52 input    0.00 | X-H torsion
[ 27226 11612 11611 11610 ] final   79.83 input    0.00 | X-H torsion
[ 27230 17060 17059 17058 ] final -142.72 input   -0.00 | X-H torsion
[ 27232 18752 18751 18750 ] final   -1.88 input    0.00 | X-H torsion
[ 27234 18596 18595 18594 ] final -145.42 input   -0.00 | X-H torsion
[ 27238 18929 18928 18927 ] final -114.00 input   -0.00 | X-H torsion
[ 27240 19016 19015 19014 ] final   38.64 input   -0.00 | X-H torsion
[ 27243 11418 11417 11416 ] final  -52.93 input    0.00 | X-H torsion
[ 27245 17183 17182 17181 ] final -106.42 input   -0.00 | X-H torsion
[ 27247 18378 18377 18376 ] final -100.56 input   -0.00 | X-H torsion
[ 27250 18217 18216 18215 ] final -161.05 input    0.00 | X-H torsion
[ 27254 17229 17228 17227 ] final   24.15 input   -0.00 | X-H torsion
[ 27259 18320 18319 18318 ] final   21.35 input    0.00 | X-H torsion
[ 27261 18468 18467 18466 ] final  169.05 input    0.00 | X-H torsion
[ 27264 18282 18281 18280 ] final   99.92 input   -0.00 | X-H torsion
[ 27267 17020 17019 17018 ] final   91.15 input   -0.00 | X-H torsion
[ 27275 16960 16959 16958 ] final  169.96 input    0.00 | X-H torsion

> <Gold.Protein.ActiveResidues>
 TRP414  CYS420  VAL421  GLY422  LEU460  SER462  SER482  GLN483  ILE485  ARG486 
 TYR487  ASP500  ASN503  TRP566  TYR567  GLY568  LEU569  PRO570  ALA571  VAL572 
 SER573  ASN574  PHE589  SER590  GLY591  TRP592  TYR593  MET594  GLY595  THR596 
 GLU597  ILE598  GLY599  VAL600  ARG601  ASP602  TYR603  ARG608  ILE653  VAL654 
 TRP683  PRO687  HEM750  H4B760 

> <Gold.Protein.RotatedAtoms>
  240.9781   10.0669   32.9519 H   0  0  0  0  0  0  0  0  0  0  0  0  # atno 7496 bound_to 7462
  242.5234    8.8739   32.0902 H   0  0  0  0  0  0  0  0  0  0  0  0  # atno 7530 bound_to 7517
  248.9182    1.8700   35.8662 H   0  0  0  0  0  0  0  0  0  0  0  0  # atno 10120 bound_to 10100
  253.7400   19.6352   41.0642 H   0  0  0  0  0  0  0  0  0  0  0  0  # atno 11440 bound_to 11420
  254.2042   16.6755   41.6415 H   0  0  0  0  0  0  0  0  0  0  0  0  # atno 11501 bound_to 11468
  258.0246   13.1722   41.3982 H   0  0  0  0  0  0  0  0  0  0  0  0  # atno 11650 bound_to 11609
  260.5210   18.1694   38.3625 H   0  0  0  0  0  0  0  0  0  0  0  0  # atno 11832 bound_to 11793
  261.5319   12.7734   31.5551 H   0  0  0  0  0  0  0  0  0  0  0  0  # atno 16996 bound_to 16957
  256.5518   15.4020   36.7739 H   0  0  0  0  0  0  0  0  0  0  0  0  # atno 17004 bound_to 16968
  252.9622   11.1880   38.0673 H   0  0  0  0  0  0  0  0  0  0  0  0  # atno 17200 bound_to 17180
  252.2663   11.8701   40.0321 H   0  0  0  0  0  0  0  0  0  0  0  0  # atno 17260 bound_to 17226
  250.4571   13.5119   43.3947 H   0  0  0  0  0  0  0  0  0  0  0  0  # atno 17308 bound_to 17287
  249.2617    6.3697   40.5196 H   0  0  0  0  0  0  0  0  0  0  0  0  # atno 18300 bound_to 18279
  253.5984    4.7613   39.8442 H   0  0  0  0  0  0  0  0  0  0  0  0  # atno 18304 bound_to 18284
  249.6667    6.2651   37.8225 H   0  0  0  0  0  0  0  0  0  0  0  0  # atno 18330 bound_to 18317
  249.7094    5.2908   33.4487 H   0  0  0  0  0  0  0  0  0  0  0  0  # atno 18419 bound_to 18375
  252.0068    7.1264   30.4927 H   0  0  0  0  0  0  0  0  0  0  0  0  # atno 18504 bound_to 18465
  254.2282   14.1058   33.9477 H   0  0  0  0  0  0  0  0  0  0  0  0  # atno 18512 bound_to 18476
  249.7863   10.7667   29.5300 H   0  0  0  0  0  0  0  0  0  0  0  0  # atno 18572 bound_to 18537
  250.7012   10.8080   26.5926 H   0  0  0  0  0  0  0  0  0  0  0  0  # atno 18606 bound_to 18593
  247.2906   14.0870   25.2345 H   0  0  0  0  0  0  0  0  0  0  0  0  # atno 18664 bound_to 18636
  250.7372   15.2419   26.6571 H   0  0  0  0  0  0  0  0  0  0  0  0  # atno 18719 bound_to 18692
  252.5845   15.0632   28.6592 H   0  0  0  0  0  0  0  0  0  0  0  0  # atno 18790 bound_to 18749
  254.5776   16.8076   26.1613 H   0  0  0  0  0  0  0  0  0  0  0  0  # atno 18826 bound_to 18813
  253.0751   18.6844   24.0942 H   0  0  0  0  0  0  0  0  0  0  0  0  # atno 18884 bound_to 18850
  251.8285   20.5487   26.0003 H   0  0  0  0  0  0  0  0  0  0  0  0  # atno 18976 bound_to 18926
  253.0513   19.3784   28.8170 H   0  0  0  0  0  0  0  0  0  0  0  0  # atno 19033 bound_to 19013
  254.7318   20.8146   27.1606 H   0  0  0  0  0  0  0  0  0  0  0  0  # atno 19112 bound_to 19073
  250.8526    7.3294   26.0634 H   0  0  0  0  0  0  0  0  0  0  0  0  # atno 22456 bound_to 22422
  255.6271   14.8205   35.5677 LP  0  0  0  0  0  0  0  0  0  0  0  0  # atno 27193 bound_to 16968
  256.5923   16.1123   35.3103 LP  0  0  0  0  0  0  0  0  0  0  0  0  # atno 27194 bound_to 16968
  255.4420   14.3988   32.9046 LP  0  0  0  0  0  0  0  0  0  0  0  0  # atno 27195 bound_to 18476
  255.6014   13.2385   34.0426 LP  0  0  0  0  0  0  0  0  0  0  0  0  # atno 27196 bound_to 18476
  250.0282    9.1014   29.0515 LP  0  0  0  0  0  0  0  0  0  0  0  0  # atno 27197 bound_to 18537
  251.4252   12.7653   27.4974 LP  0  0  0  0  0  0  0  0  0  0  0  0  # atno 27198 bound_to 18540
  249.9268   12.7329   28.3655 LP  0  0  0  0  0  0  0  0  0  0  0  0  # atno 27199 bound_to 18540
  249.7283   17.9171   26.3483 LP  0  0  0  0  0  0  0  0  0  0  0  0  # atno 27200 bound_to 18633
  251.4081   17.5012   26.4209 LP  0  0  0  0  0  0  0  0  0  0  0  0  # atno 27201 bound_to 18633
  249.1395   14.9670   27.2918 LP  0  0  0  0  0  0  0  0  0  0  0  0  # atno 27202 bound_to 18692
  251.4096   18.1092   29.6191 LP  0  0  0  0  0  0  0  0  0  0  0  0  # atno 27203 bound_to 18695
  253.1010   17.8030   29.4061 LP  0  0  0  0  0  0  0  0  0  0  0  0  # atno 27204 bound_to 18695
  252.0709   16.1724   27.4049 LP  0  0  0  0  0  0  0  0  0  0  0  0  # atno 27209 bound_to 18749
  252.8706   21.1160   28.7455 LP  0  0  0  0  0  0  0  0  0  0  0  0  # atno 27210 bound_to 19013
  252.6745    8.2078   37.1455 LP  0  0  0  0  0  0  0  0  0  0  0  0  # atno 27222 bound_to 17133
  251.4650    9.2731   37.7796 LP  0  0  0  0  0  0  0  0  0  0  0  0  # atno 27223 bound_to 17133
  254.5183   10.4009   38.2036 LP  0  0  0  0  0  0  0  0  0  0  0  0  # atno 27224 bound_to 17180
  251.1347   10.7042   40.6850 LP  0  0  0  0  0  0  0  0  0  0  0  0  # atno 27225 bound_to 17226
  257.1305   14.1641   38.7369 LP  0  0  0  0  0  0  0  0  0  0  0  0  # atno 27226 bound_to 11612
  258.1712   14.0093   37.3610 LP  0  0  0  0  0  0  0  0  0  0  0  0  # atno 27227 bound_to 11612
  256.0542   10.3773   37.5354 LP  0  0  0  0  0  0  0  0  0  0  0  0  # atno 27230 bound_to 17060
  257.5025   10.1223   36.6203 LP  0  0  0  0  0  0  0  0  0  0  0  0  # atno 27231 bound_to 17060
  255.1374   18.5823   27.5604 LP  0  0  0  0  0  0  0  0  0  0  0  0  # atno 27232 bound_to 18752
  254.9715   18.8046   25.8507 LP  0  0  0  0  0  0  0  0  0  0  0  0  # atno 27233 bound_to 18752
  252.2693   15.0777   25.7992 LP  0  0  0  0  0  0  0  0  0  0  0  0  # atno 27234 bound_to 18596
  253.2286   13.9742   24.8707 LP  0  0  0  0  0  0  0  0  0  0  0  0  # atno 27235 bound_to 18596
  253.1683   15.9734   25.5427 LP  0  0  0  0  0  0  0  0  0  0  0  0  # atno 27236 bound_to 18813
  250.7713   19.4030   26.7829 LP  0  0  0  0  0  0  0  0  0  0  0  0  # atno 27237 bound_to 18926
  253.8855   22.8233   28.1495 LP  0  0  0  0  0  0  0  0  0  0  0  0  # atno 27238 bound_to 18929
  252.6656   23.1575   29.3329 LP  0  0  0  0  0  0  0  0  0  0  0  0  # atno 27239 bound_to 18929
  256.8282   21.9409   30.1696 LP  0  0  0  0  0  0  0  0  0  0  0  0  # atno 27240 bound_to 19016
  256.6136   22.9339   28.7667 LP  0  0  0  0  0  0  0  0  0  0  0  0  # atno 27241 bound_to 19016
  255.9717   20.6803   28.3870 LP  0  0  0  0  0  0  0  0  0  0  0  0  # atno 27242 bound_to 19073
  251.7122   15.6543   43.3313 LP  0  0  0  0  0  0  0  0  0  0  0  0  # atno 27243 bound_to 11418
  252.0118   15.6972   41.6259 LP  0  0  0  0  0  0  0  0  0  0  0  0  # atno 27244 bound_to 11418
  253.4956   11.7471   42.5070 LP  0  0  0  0  0  0  0  0  0  0  0  0  # atno 27245 bound_to 17183
  254.2437   12.4973   41.1368 LP  0  0  0  0  0  0  0  0  0  0  0  0  # atno 27246 bound_to 17183
  249.0463    7.4667   31.2461 LP  0  0  0  0  0  0  0  0  0  0  0  0  # atno 27247 bound_to 18378
  249.4110    8.2693   32.7370 LP  0  0  0  0  0  0  0  0  0  0  0  0  # atno 27248 bound_to 18378
  251.7853    7.9692   32.0100 LP  0  0  0  0  0  0  0  0  0  0  0  0  # atno 27249 bound_to 18465
  250.5966    8.9588   40.0795 LP  0  0  0  0  0  0  0  0  0  0  0  0  # atno 27250 bound_to 18217
  250.6536    9.3950   41.7548 LP  0  0  0  0  0  0  0  0  0  0  0  0  # atno 27251 bound_to 18217
  250.4293   10.5059   42.6563 LP  0  0  0  0  0  0  0  0  0  0  0  0  # atno 27254 bound_to 17229
  250.1679   11.2001   44.2215 LP  0  0  0  0  0  0  0  0  0  0  0  0  # atno 27255 bound_to 17229
  250.7574    6.6610   41.3728 LP  0  0  0  0  0  0  0  0  0  0  0  0  # atno 27256 bound_to 18279
  251.1393    6.6632   36.9676 LP  0  0  0  0  0  0  0  0  0  0  0  0  # atno 27257 bound_to 18317
  250.6650    6.1829   34.6134 LP  0  0  0  0  0  0  0  0  0  0  0  0  # atno 27258 bound_to 18375
  252.2400    4.3425   35.8042 LP  0  0  0  0  0  0  0  0  0  0  0  0  # atno 27259 bound_to 18320
  252.8187    5.3236   34.4994 LP  0  0  0  0  0  0  0  0  0  0  0  0  # atno 27260 bound_to 18320
  250.0031    7.9308   27.5685 LP  0  0  0  0  0  0  0  0  0  0  0  0  # atno 27261 bound_to 18468
  251.4804    7.4804   28.3526 LP  0  0  0  0  0  0  0  0  0  0  0  0  # atno 27262 bound_to 18468
  241.0002    8.1474   31.6343 LP  0  0  0  0  0  0  0  0  0  0  0  0  # atno 27263 bound_to 7517
  248.9152    4.5179   38.8249 LP  0  0  0  0  0  0  0  0  0  0  0  0  # atno 27264 bound_to 18282
  250.5280    3.8872   38.7891 LP  0  0  0  0  0  0  0  0  0  0  0  0  # atno 27265 bound_to 18282
  241.2271   11.5559   32.0630 LP  0  0  0  0  0  0  0  0  0  0  0  0  # atno 27266 bound_to 7462
  256.1688    6.6222   32.6590 LP  0  0  0  0  0  0  0  0  0  0  0  0  # atno 27267 bound_to 17020
  255.7674    8.2756   32.3344 LP  0  0  0  0  0  0  0  0  0  0  0  0  # atno 27268 bound_to 17020
  249.5995   11.1291   25.2685 LP  0  0  0  0  0  0  0  0  0  0  0  0  # atno 27269 bound_to 18593
  247.7373    2.9104   36.2808 LP  0  0  0  0  0  0  0  0  0  0  0  0  # atno 27270 bound_to 10100
  247.3665    1.3794   35.8504 LP  0  0  0  0  0  0  0  0  0  0  0  0  # atno 27271 bound_to 10100
  252.2287    4.3931   39.0468 LP  0  0  0  0  0  0  0  0  0  0  0  0  # atno 27272 bound_to 18284
  252.1770    4.7646   40.6361 LP  0  0  0  0  0  0  0  0  0  0  0  0  # atno 27273 bound_to 18284
  254.7411   16.1299   43.2172 LP  0  0  0  0  0  0  0  0  0  0  0  0  # atno 27274 bound_to 11468
  257.7599   10.2324   31.4797 LP  0  0  0  0  0  0  0  0  0  0  0  0  # atno 27275 bound_to 16960
  258.3137   11.8415   31.8026 LP  0  0  0  0  0  0  0  0  0  0  0  0  # atno 27276 bound_to 16960

> <Gold.Score>
     Fitness  S(hb_ext) S(vdw_ext)  S(hb_int)    S(int)      intcor
     33.99       5.95      23.14       0.00      -3.78      -0.83

> <Gold.Goldscore.Fitness>
33.9883

> <Gold.Goldscore.Internal.Vdw>
-3.9873

> <Gold.Goldscore.Internal.Torsion>
-0.6243

> <Gold.Goldscore.External.Vdw>
23.1384

> <Gold.Goldscore.Internal.HBond>
0.0000

> <Gold.Goldscore.External.HBond>
5.9528

> <Gold.Goldscore.Internal.Correction>
-0.8319

> <Gold.Goldscore.Hbonds>
donor molecule, donor type, donor heavy atom, donor atom, acceptor molecule, acceptor atom, score
      P1  H 11704 11756       L1    17  0.30
      P1  H 19356 19407       L1    17  0.07
      L1  H    10    23       P1 19020  0.62

> <Gold.Goldscore.Internal.Vdw.Weighted>
-3.9873

> <Gold.Goldscore.Internal.Torsion.Weighted>
-0.6243

> <Gold.Goldscore.External.Vdw.Weighted>
31.8153

> <Gold.Goldscore.Internal.HBond.Weighted>
0.0000

> <Gold.Goldscore.External.HBond.Weighted>
5.9528

> <Gold.Goldscore.Internal.Correction.Weighted>
-0.8319

> <Gold.Rescore>
     Score     S(PLP)   S(hbond)     S(cho)   S(metal)  DE(clash)   DE(tors)     intcor
     22.46     -16.76       2.74       0.00       0.00       1.96       0.27       ----

> <Gold.PLP.Fitness>
22.4645

> <Gold.PLP.PLP>
-16.7560

> <Gold.PLP.part.hbond>
-4.0000

> <Gold.PLP.part.metal>
0.0000

> <Gold.PLP.part.buried>
8.7494

> <Gold.PLP.part.nonpolar>
-27.0415

> <Gold.PLP.part.repulsive>
3.1051

> <Gold.PLP.ligand.clash>
1.9599

> <Gold.PLP.ligand.torsion>
0.2698

> <Gold.PLP.Chemscore.Hbond>
2.7360

> <Gold.PLP.Chemscore.CHOScore>
0.0000

> <Gold.PLP.Chemscore.Metal>
0.0000

> <Gold.Chemscore.Hbonds>
donor molecule, donor type, donor heavy atom, donor atom, acceptor molecule, acceptor atom, score
      L1  H    10    23       P1 19020  0.55
      P1  H 11704 11756       L1    17  0.86
      P1  H 19356 19407       L1    17  0.78

> <Gold.PLP.Chemscore.Internal.Correction>
   9.000000E+99

