#       Name:                CT1002167954
#       Creating user name   hitesit
#       Creation time:       Sun Apr 16 23:06:24 2023


#       File generated by GOLD software.
#

@<TRIPOS>MOLECULE
CT1002167954|ligand_prepared|mol2|1|dock5
    29    30     1
SMALL
NO_CHARGES


@<TRIPOS>ATOM
      1 C1         249.6672  14.0928  35.5219 C.3            1 RES1               0.0000
      2 C2         249.0685  12.7636  35.0184 C.ar           1 RES1               0.0000
      3 C3         250.9655  13.7337  36.2386 C.2            1 RES1               0.0000
      4 C4         249.8591  14.9685  34.2886 C.2            1 RES1               0.0000
      5 C5         248.7545  14.8543  36.5111 C.3            1 RES1               0.0000
      6 C6         249.6756  12.0604  33.9823 C.ar           1 RES1               0.0000
      7 C7         247.9131  12.2276  35.5810 C.ar           1 RES1               0.0000
      8 N8         252.1380  14.0269  35.6068 N.am           1 RES1               0.0000
      9 O9         250.9603  13.1659  37.3239 O.2            1 RES1               0.0000
     10 N10        251.1397  15.2930  33.9245 N.am           1 RES1               0.0000
     11 O11        248.9138  15.3666  33.6192 O.2            1 RES1               0.0000
     12 C12        249.2481  16.2522  36.8491 C.3            1 RES1               0.0000
     13 C13        249.1486  10.8632  33.5269 C.ar           1 RES1               0.0000
     14 C14        247.3876  11.0304  35.1240 C.ar           1 RES1               0.0000
     15 C15        252.2892  14.8366  34.5099 C.2            1 RES1               0.0000
     16 C16        248.0046  10.3472  34.0977 C.ar           1 RES1               0.0000
     17 O17        253.4055  15.1297  34.0914 O.2            1 RES1               0.0000
     18 H18        247.7496  14.9298  36.0777 H              1 RES1               0.0000
     19 H19        248.6768  14.2735  37.4385 H              1 RES1               0.0000
     20 H20        250.5751  12.4521  33.5192 H              1 RES1               0.0000
     21 H21        247.4102  12.7483  36.3888 H              1 RES1               0.0000
     22 H22        252.9803  13.6052  35.9849 H              1 RES1               0.0000
     23 H23        251.2459  15.9344  33.1450 H              1 RES1               0.0000
     24 H24        248.5717  16.7421  37.5464 H              1 RES1               0.0000
     25 H25        250.2351  16.2129  37.3054 H              1 RES1               0.0000
     26 H26        249.3133  16.8654  35.9527 H              1 RES1               0.0000
     27 H27        249.6372  10.3301  32.7180 H              1 RES1               0.0000
     28 H28        246.4867  10.6283  35.5757 H              1 RES1               0.0000
     29 H29        247.5921   9.4092  33.7410 H              1 RES1               0.0000
@<TRIPOS>BOND
    1    1    2 1     
    2    1    3 1     
    3    1    4 1     
    4    1    5 1     
    5    2    6 ar    
    6    2    7 ar    
    7    3    8 1     
    8    3    9 2     
    9    4   10 1     
   10    4   11 2     
   11    5   12 1     
   12    5   18 1     
   13    5   19 1     
   14    6   13 ar    
   15    6   20 1     
   16    7   14 ar    
   17    7   21 1     
   18    8   15 1     
   19    8   22 1     
   20   10   15 1     
   21   10   23 1     
   22   12   24 1     
   23   12   25 1     
   24   12   26 1     
   25   13   16 ar    
   26   13   27 1     
   27   14   16 ar    
   28   14   28 1     
   29   15   17 2     
   30   16   29 1     
@<TRIPOS>SUBSTRUCTURE
      1 RES1           1
@<TRIPOS>SET
DONOR_HYDROGENS      STATIC     ATOMS    <user>   **** ""
2 22 23
ATOM$RED        STATIC     ATOMS    COLORGROUP SYSTEM
2 22 23
@<TRIPOS>COMMENT
> <Gold.Version>
2022.3.0

> <Gold.Id.Protein>
unknown|4d1n_clean|pdb

> <Gold.Protein.RotatedTorsions>
[ 17004 16968 16967 16965 ] final  -77.84 input   59.98 | X-H torsion
[ 18512 18476 18475 18473 ] final   43.32 input   59.98 | X-H torsion
[ 18572 18537 18538 18539 ] final -162.81 input   87.04 | X-H torsion
[ 18719 18692 18693 18694 ] final   52.10 input  124.02 | X-H torsion
[ 18790 18749 18750 18751 ] final  -47.54 input   91.60 | X-H torsion
[ 19033 19013 19014 19015 ] final  -90.27 input  122.46 | X-H torsion
[ 17200 17180 17181 17182 ] final  113.75 input   47.21 | X-H torsion
[ 17260 17226 17227 17228 ] final -174.25 input  117.85 | X-H torsion
[ 18826 18813 18814 18815 ] final -115.66 input  116.01 | X-H torsion
[ 18976 18926 18927 18928 ] final  -74.02 input  102.20 | X-H torsion
[ 19112 19073 19074 19075 ] final   11.56 input   89.03 | X-H torsion
[ 18504 18465 18466 18467 ] final   30.53 input  102.26 | X-H torsion
[ 18300 18279 18280 18281 ] final   22.02 input   28.27 | X-H torsion
[ 18330 18317 18318 18319 ] final -140.02 input   50.43 | X-H torsion
[ 18419 18375 18376 18377 ] final  -26.45 input   32.92 | X-H torsion
[ 7530 7517 7518 7519 ] final -113.49 input   89.56 | X-H torsion
[ 7496 7462 7463 7464 ] final -110.53 input  103.52 | X-H torsion
[ 18606 18593 18594 18595 ] final  -92.04 input  124.70 | X-H torsion
[ 10120 10100 10099 10096 ] final   11.26 input   60.00 | X-H torsion
[ 18304 18284 18283 18280 ] final  166.52 input   60.01 | X-H torsion
[ 11501 11468 11469 11470 ] final  -68.09 input   45.03 | X-H torsion
[ 18664 18636 18634 18631 ] final   -7.31 input   60.01 | X-H torsion
[ 18884 18850 18851 18852 ] final   82.67 input   84.91 | X-H torsion
[ 17308 17287 17288 17289 ] final  114.50 input   50.16 | X-H torsion
[ 22456 22422 22423 22424 ] final -147.19 input   54.84 | X-H torsion
[ 11440 11420 11419 11416 ] final  -78.58 input   60.01 | X-H torsion
[ 11650 11609 11610 11611 ] final  -61.76 input   61.57 | X-H torsion
[ 11832 11793 11794 11795 ] final   99.06 input   91.14 | X-H torsion
[ 16996 16957 16958 16959 ] final  178.91 input   91.87 | X-H torsion
[ 27198 18540 18539 18538 ] final   39.24 input   -0.00 | X-H torsion
[ 27200 18633 18632 18631 ] final  124.13 input    0.00 | X-H torsion
[ 27203 18695 18694 18693 ] final  122.53 input   -0.00 | X-H torsion
[ 27222 17133 17132 17131 ] final -109.16 input    0.00 | X-H torsion
[ 27226 11612 11611 11610 ] final  -15.81 input    0.00 | X-H torsion
[ 27230 17060 17059 17058 ] final  148.62 input   -0.00 | X-H torsion
[ 27232 18752 18751 18750 ] final   69.91 input    0.00 | X-H torsion
[ 27234 18596 18595 18594 ] final  -98.89 input   -0.00 | X-H torsion
[ 27238 18929 18928 18927 ] final  -75.32 input   -0.00 | X-H torsion
[ 27240 19016 19015 19014 ] final  179.35 input   -0.00 | X-H torsion
[ 27243 11418 11417 11416 ] final -139.53 input    0.00 | X-H torsion
[ 27245 17183 17182 17181 ] final   86.00 input   -0.00 | X-H torsion
[ 27247 18378 18377 18376 ] final -109.74 input   -0.00 | X-H torsion
[ 27250 18217 18216 18215 ] final  119.21 input    0.00 | X-H torsion
[ 27254 17229 17228 17227 ] final -133.02 input   -0.00 | X-H torsion
[ 27259 18320 18319 18318 ] final  -83.26 input    0.00 | X-H torsion
[ 27261 18468 18467 18466 ] final  -72.46 input    0.00 | X-H torsion
[ 27264 18282 18281 18280 ] final  -75.32 input   -0.00 | X-H torsion
[ 27267 17020 17019 17018 ] final -168.99 input   -0.00 | X-H torsion
[ 27275 16960 16959 16958 ] final -109.63 input    0.00 | X-H torsion

> <Gold.Protein.ActiveResidues>
 TRP414  CYS420  VAL421  GLY422  LEU460  SER462  SER482  GLN483  ILE485  ARG486 
 TYR487  ASP500  ASN503  TRP566  TYR567  GLY568  LEU569  PRO570  ALA571  VAL572 
 SER573  ASN574  PHE589  SER590  GLY591  TRP592  TYR593  MET594  GLY595  THR596 
 GLU597  ILE598  GLY599  VAL600  ARG601  ASP602  TYR603  ARG608  ILE653  VAL654 
 TRP683  PRO687  HEM750  H4B760 

> <Gold.Protein.RotatedAtoms>
  240.2307   10.8433   32.6788 H   0  0  0  0  0  0  0  0  0  0  0  0  # atno 7496 bound_to 7462
  241.6779    8.4347   30.9807 H   0  0  0  0  0  0  0  0  0  0  0  0  # atno 7530 bound_to 7517
  248.9280    1.9158   35.8792 H   0  0  0  0  0  0  0  0  0  0  0  0  # atno 10120 bound_to 10100
  254.9447   19.6901   42.3319 H   0  0  0  0  0  0  0  0  0  0  0  0  # atno 11440 bound_to 11420
  254.3580   16.0463   43.2565 H   0  0  0  0  0  0  0  0  0  0  0  0  # atno 11501 bound_to 11468
  258.1075   13.1276   41.4794 H   0  0  0  0  0  0  0  0  0  0  0  0  # atno 11650 bound_to 11609
  260.3212   18.0405   36.8155 H   0  0  0  0  0  0  0  0  0  0  0  0  # atno 11832 bound_to 11793
  261.3792   13.1733   32.1284 H   0  0  0  0  0  0  0  0  0  0  0  0  # atno 16996 bound_to 16957
  255.8804   15.3646   35.0327 H   0  0  0  0  0  0  0  0  0  0  0  0  # atno 17004 bound_to 16968
  254.5940   10.5671   38.3040 H   0  0  0  0  0  0  0  0  0  0  0  0  # atno 17200 bound_to 17180
  251.6028   11.7727   39.6290 H   0  0  0  0  0  0  0  0  0  0  0  0  # atno 17260 bound_to 17226
  252.1636   13.5275   43.0361 H   0  0  0  0  0  0  0  0  0  0  0  0  # atno 17308 bound_to 17287
  249.7398    5.7139   40.7135 H   0  0  0  0  0  0  0  0  0  0  0  0  # atno 18300 bound_to 18279
  253.5852    4.7158   39.6599 H   0  0  0  0  0  0  0  0  0  0  0  0  # atno 18304 bound_to 18284
  250.1383    5.8587   37.9726 H   0  0  0  0  0  0  0  0  0  0  0  0  # atno 18330 bound_to 18317
  249.9046    6.5862   34.0518 H   0  0  0  0  0  0  0  0  0  0  0  0  # atno 18419 bound_to 18375
  251.8503    7.0927   30.5053 H   0  0  0  0  0  0  0  0  0  0  0  0  # atno 18504 bound_to 18465
  254.2578   13.9853   34.0579 H   0  0  0  0  0  0  0  0  0  0  0  0  # atno 18512 bound_to 18476
  249.4294    9.1734   29.2899 H   0  0  0  0  0  0  0  0  0  0  0  0  # atno 18572 bound_to 18537
  250.6224   10.9773   26.6690 H   0  0  0  0  0  0  0  0  0  0  0  0  # atno 18606 bound_to 18593
  248.1730   14.3683   26.1645 H   0  0  0  0  0  0  0  0  0  0  0  0  # atno 18664 bound_to 18636
  250.6553   14.6105   26.9856 H   0  0  0  0  0  0  0  0  0  0  0  0  # atno 18719 bound_to 18692
  252.0588   16.4702   27.8964 H   0  0  0  0  0  0  0  0  0  0  0  0  # atno 18790 bound_to 18749
  254.7314   16.4828   26.0044 H   0  0  0  0  0  0  0  0  0  0  0  0  # atno 18826 bound_to 18813
  251.7753   17.9668   25.0530 H   0  0  0  0  0  0  0  0  0  0  0  0  # atno 18884 bound_to 18850
  251.5879   20.6555   25.9265 H   0  0  0  0  0  0  0  0  0  0  0  0  # atno 18976 bound_to 18926
  252.6949   21.0186   29.1527 H   0  0  0  0  0  0  0  0  0  0  0  0  # atno 19033 bound_to 19013
  254.7380   21.3090   27.4946 H   0  0  0  0  0  0  0  0  0  0  0  0  # atno 19112 bound_to 19073
  251.1374    5.5979   25.8807 H   0  0  0  0  0  0  0  0  0  0  0  0  # atno 22456 bound_to 22422
  256.8824   16.1285   36.0627 LP  0  0  0  0  0  0  0  0  0  0  0  0  # atno 27193 bound_to 16968
  256.0130   14.8420   36.5682 LP  0  0  0  0  0  0  0  0  0  0  0  0  # atno 27194 bound_to 16968
  255.2958   14.4800   32.9068 LP  0  0  0  0  0  0  0  0  0  0  0  0  # atno 27195 bound_to 18476
  255.7177   13.2788   33.9294 LP  0  0  0  0  0  0  0  0  0  0  0  0  # atno 27196 bound_to 18476
  250.3742   10.6459   29.2843 LP  0  0  0  0  0  0  0  0  0  0  0  0  # atno 27197 bound_to 18537
  250.7490   12.2255   28.6174 LP  0  0  0  0  0  0  0  0  0  0  0  0  # atno 27198 bound_to 18540
  250.6030   13.2727   27.2455 LP  0  0  0  0  0  0  0  0  0  0  0  0  # atno 27199 bound_to 18540
  249.9215   17.8443   26.9445 LP  0  0  0  0  0  0  0  0  0  0  0  0  # atno 27200 bound_to 18633
  251.2149   17.5740   25.8247 LP  0  0  0  0  0  0  0  0  0  0  0  0  # atno 27201 bound_to 18633
  249.2213   15.5974   26.9639 LP  0  0  0  0  0  0  0  0  0  0  0  0  # atno 27202 bound_to 18692
  252.8606   17.5369   29.9686 LP  0  0  0  0  0  0  0  0  0  0  0  0  # atno 27203 bound_to 18695
  251.6501   18.3753   29.0567 LP  0  0  0  0  0  0  0  0  0  0  0  0  # atno 27204 bound_to 18695
  252.5779   14.8155   28.1406 LP  0  0  0  0  0  0  0  0  0  0  0  0  # atno 27209 bound_to 18749
  253.2174   19.5201   28.4188 LP  0  0  0  0  0  0  0  0  0  0  0  0  # atno 27210 bound_to 19013
  251.4350    9.3006   37.6449 LP  0  0  0  0  0  0  0  0  0  0  0  0  # atno 27222 bound_to 17133
  252.7046    8.1803   37.2802 LP  0  0  0  0  0  0  0  0  0  0  0  0  # atno 27223 bound_to 17133
  252.9329   11.0041   37.9736 LP  0  0  0  0  0  0  0  0  0  0  0  0  # atno 27224 bound_to 17180
  251.7744   10.7982   41.0737 LP  0  0  0  0  0  0  0  0  0  0  0  0  # atno 27225 bound_to 17226
  257.6656   13.2208   38.0504 LP  0  0  0  0  0  0  0  0  0  0  0  0  # atno 27226 bound_to 11612
  257.6362   14.9526   38.0474 LP  0  0  0  0  0  0  0  0  0  0  0  0  # atno 27227 bound_to 11612
  256.3273   10.9232   36.7728 LP  0  0  0  0  0  0  0  0  0  0  0  0  # atno 27230 bound_to 17060
  257.2294    9.5764   37.3829 LP  0  0  0  0  0  0  0  0  0  0  0  0  # atno 27231 bound_to 17060
  255.8285   18.3362   26.8581 LP  0  0  0  0  0  0  0  0  0  0  0  0  # atno 27232 bound_to 18752
  254.2804   19.0507   26.5531 LP  0  0  0  0  0  0  0  0  0  0  0  0  # atno 27233 bound_to 18752
  252.5643   14.5909   26.1786 LP  0  0  0  0  0  0  0  0  0  0  0  0  # atno 27234 bound_to 18596
  252.9335   14.4611   24.4913 LP  0  0  0  0  0  0  0  0  0  0  0  0  # atno 27235 bound_to 18596
  253.0196   16.2873   25.6944 LP  0  0  0  0  0  0  0  0  0  0  0  0  # atno 27236 bound_to 18813
  251.0091   19.2974   26.8558 LP  0  0  0  0  0  0  0  0  0  0  0  0  # atno 27237 bound_to 18926
  253.4129   23.0145   27.8864 LP  0  0  0  0  0  0  0  0  0  0  0  0  # atno 27238 bound_to 18929
  253.1382   22.9663   29.5959 LP  0  0  0  0  0  0  0  0  0  0  0  0  # atno 27239 bound_to 18929
  257.0739   22.5852   28.6913 LP  0  0  0  0  0  0  0  0  0  0  0  0  # atno 27240 bound_to 19016
  256.3679   22.2896   30.2451 LP  0  0  0  0  0  0  0  0  0  0  0  0  # atno 27241 bound_to 19016
  255.9658   20.2000   28.0625 LP  0  0  0  0  0  0  0  0  0  0  0  0  # atno 27242 bound_to 19073
  252.2214   14.8937   42.5742 LP  0  0  0  0  0  0  0  0  0  0  0  0  # atno 27243 bound_to 11418
  251.5026   16.4579   42.3830 LP  0  0  0  0  0  0  0  0  0  0  0  0  # atno 27244 bound_to 11418
  254.1158   12.6310   41.1657 LP  0  0  0  0  0  0  0  0  0  0  0  0  # atno 27245 bound_to 17183
  253.6235   11.6135   42.4780 LP  0  0  0  0  0  0  0  0  0  0  0  0  # atno 27246 bound_to 17183
  249.0750    7.5883   31.1865 LP  0  0  0  0  0  0  0  0  0  0  0  0  # atno 27247 bound_to 18378
  249.3823    8.1476   32.7967 LP  0  0  0  0  0  0  0  0  0  0  0  0  # atno 27248 bound_to 18378
  251.9371    8.0019   31.9977 LP  0  0  0  0  0  0  0  0  0  0  0  0  # atno 27249 bound_to 18465
  251.4437    8.9215   40.7963 LP  0  0  0  0  0  0  0  0  0  0  0  0  # atno 27250 bound_to 18217
  249.8065    9.4323   41.0379 LP  0  0  0  0  0  0  0  0  0  0  0  0  # atno 27251 bound_to 18217
  249.8668   11.2608   44.0692 LP  0  0  0  0  0  0  0  0  0  0  0  0  # atno 27254 bound_to 17229
  250.7303   10.4452   42.8086 LP  0  0  0  0  0  0  0  0  0  0  0  0  # atno 27255 bound_to 17229
  250.2887    7.3040   41.1828 LP  0  0  0  0  0  0  0  0  0  0  0  0  # atno 27256 bound_to 18279
  250.6808    7.0584   36.8217 LP  0  0  0  0  0  0  0  0  0  0  0  0  # atno 27257 bound_to 18317
  250.4764    4.9314   34.0308 LP  0  0  0  0  0  0  0  0  0  0  0  0  # atno 27258 bound_to 18375
  252.7162    5.5954   35.5178 LP  0  0  0  0  0  0  0  0  0  0  0  0  # atno 27259 bound_to 18320
  252.3425    4.0707   34.7858 LP  0  0  0  0  0  0  0  0  0  0  0  0  # atno 27260 bound_to 18320
  251.4848    8.0368   27.6635 LP  0  0  0  0  0  0  0  0  0  0  0  0  # atno 27261 bound_to 18468
  249.9987    7.3744   28.2576 LP  0  0  0  0  0  0  0  0  0  0  0  0  # atno 27262 bound_to 18468
  241.8251    8.5758   32.7167 LP  0  0  0  0  0  0  0  0  0  0  0  0  # atno 27263 bound_to 7517
  250.5345    3.9083   38.8576 LP  0  0  0  0  0  0  0  0  0  0  0  0  # atno 27264 bound_to 18282
  248.9087    4.4968   38.7564 LP  0  0  0  0  0  0  0  0  0  0  0  0  # atno 27265 bound_to 18282
  241.9464   10.8086   32.3258 LP  0  0  0  0  0  0  0  0  0  0  0  0  # atno 27266 bound_to 7462
  255.5760    7.6552   33.2408 LP  0  0  0  0  0  0  0  0  0  0  0  0  # atno 27267 bound_to 17020
  256.3602    7.2426   31.7526 LP  0  0  0  0  0  0  0  0  0  0  0  0  # atno 27268 bound_to 17020
  249.6754   10.9662   25.1950 LP  0  0  0  0  0  0  0  0  0  0  0  0  # atno 27269 bound_to 18593
  247.6910    2.8946   36.2800 LP  0  0  0  0  0  0  0  0  0  0  0  0  # atno 27270 bound_to 10100
  247.4029    1.3492   35.8381 LP  0  0  0  0  0  0  0  0  0  0  0  0  # atno 27271 bound_to 10100
  252.0710    4.3987   39.1557 LP  0  0  0  0  0  0  0  0  0  0  0  0  # atno 27272 bound_to 18284
  252.3480    4.8048   40.7129 LP  0  0  0  0  0  0  0  0  0  0  0  0  # atno 27273 bound_to 18284
  254.5932   16.7354   41.6632 LP  0  0  0  0  0  0  0  0  0  0  0  0  # atno 27274 bound_to 11468
  257.5829   10.8926   32.3645 LP  0  0  0  0  0  0  0  0  0  0  0  0  # atno 27275 bound_to 16960
  258.4906   11.1813   30.9178 LP  0  0  0  0  0  0  0  0  0  0  0  0  # atno 27276 bound_to 16960

> <Gold.Score>
     Fitness  S(hb_ext) S(vdw_ext)  S(hb_int)    S(int)      intcor
     41.67       1.74      29.16       0.00      -0.16      -0.76

> <Gold.Goldscore.Fitness>
41.6734

> <Gold.Goldscore.Internal.Vdw>
-0.4442

> <Gold.Goldscore.Internal.Torsion>
-0.4778

> <Gold.Goldscore.External.Vdw>
29.1610

> <Gold.Goldscore.Internal.HBond>
0.0000

> <Gold.Goldscore.External.HBond>
1.7405

> <Gold.Goldscore.Internal.Correction>
-0.7585

> <Gold.Goldscore.Hbonds>
donor molecule, donor type, donor heavy atom, donor atom, acceptor molecule, acceptor atom, score
      P1  H 11475 11507       L1    17  0.29
      P1  H 16968 17004       L1    17  0.13
      P1  H 18476 18512       L1    17  0.09
      P1  H 17226 17260       L1     9  0.12
      L1  H     8    22       P1 11476  0.08

> <Gold.Goldscore.Internal.Vdw.Weighted>
-0.4442

> <Gold.Goldscore.Internal.Torsion.Weighted>
-0.4778

> <Gold.Goldscore.External.Vdw.Weighted>
40.0964

> <Gold.Goldscore.Internal.HBond.Weighted>
0.0000

> <Gold.Goldscore.External.HBond.Weighted>
1.7405

> <Gold.Goldscore.Internal.Correction.Weighted>
-0.7585

> <Gold.Rescore>
     Score     S(PLP)   S(hbond)     S(cho)   S(metal)  DE(clash)   DE(tors)     intcor
     16.72     -14.61       0.78       0.00       0.00       0.00       0.12       ----

> <Gold.PLP.Fitness>
16.7214

> <Gold.PLP.PLP>
-14.6078

> <Gold.PLP.part.hbond>
-3.7860

> <Gold.PLP.part.metal>
0.0000

> <Gold.PLP.part.buried>
15.6990

> <Gold.PLP.part.nonpolar>
-33.0372

> <Gold.PLP.part.repulsive>
3.3360

> <Gold.PLP.ligand.clash>
0.0000

> <Gold.PLP.ligand.torsion>
0.1189

> <Gold.PLP.Chemscore.Hbond>
0.7838

> <Gold.PLP.Chemscore.CHOScore>
0.0000

> <Gold.PLP.Chemscore.Metal>
0.0000

> <Gold.Chemscore.Hbonds>
donor molecule, donor type, donor heavy atom, donor atom, acceptor molecule, acceptor atom, score
      L1  H     8    22       P1 11476  0.38
      P1  H 18476 18512       L1    17  0.37

> <Gold.PLP.Chemscore.Internal.Correction>
   9.000000E+99

