#       Name:                CT1002167954
#       Creating user name   hitesit
#       Creation time:       Sun Apr 16 22:52:39 2023


#       File generated by GOLD software.
#

@<TRIPOS>MOLECULE
CT1002167954|ligand_prepared|mol2|1|dock5
    29    30     1
SMALL
NO_CHARGES


@<TRIPOS>ATOM
      1 C1         117.5525 245.5316 323.4301 C.3            1 RES1               0.0000
      2 C2         116.3832 246.1994 324.1822 C.ar           1 RES1               0.0000
      3 C3         116.9484 244.8826 322.1884 C.2            1 RES1               0.0000
      4 C4         118.5540 246.6408 323.1276 C.2            1 RES1               0.0000
      5 C5         118.2808 244.4409 324.2496 C.3            1 RES1               0.0000
      6 C6         116.0912 247.5458 323.9858 C.ar           1 RES1               0.0000
      7 C7         115.5874 245.4826 325.0718 C.ar           1 RES1               0.0000
      8 N8         117.1795 245.4828 320.9858 N.am           1 RES1               0.0000
      9 O9         116.2470 243.8816 322.2677 O.2            1 RES1               0.0000
     10 N10        118.7675 246.9727 321.8154 N.am           1 RES1               0.0000
     11 O11        119.1478 247.2416 324.0146 O.2            1 RES1               0.0000
     12 C12        119.6145 244.0159 323.6557 C.3            1 RES1               0.0000
     13 C13        115.0399 248.1530 324.6524 C.ar           1 RES1               0.0000
     14 C14        114.5366 246.0918 325.7375 C.ar           1 RES1               0.0000
     15 C15        118.1029 246.4651 320.7324 C.2            1 RES1               0.0000
     16 C16        114.2617 247.4265 325.5282 C.ar           1 RES1               0.0000
     17 O17        118.3123 246.8533 319.5867 O.2            1 RES1               0.0000
     18 H18        118.4506 244.8171 325.2659 H              1 RES1               0.0000
     19 H19        117.6302 243.5606 324.3223 H              1 RES1               0.0000
     20 H20        116.6942 248.1343 323.3023 H              1 RES1               0.0000
     21 H21        115.7859 244.4317 325.2528 H              1 RES1               0.0000
     22 H22        116.6133 245.1728 320.2025 H              1 RES1               0.0000
     23 H23        119.4888 247.6620 321.6285 H              1 RES1               0.0000
     24 H24        120.0831 243.2493 324.2692 H              1 RES1               0.0000
     25 H25        119.4800 243.6130 322.6541 H              1 RES1               0.0000
     26 H26        120.2955 244.8621 323.5921 H              1 RES1               0.0000
     27 H27        114.8285 249.2040 324.4852 H              1 RES1               0.0000
     28 H28        113.9272 245.5163 326.4264 H              1 RES1               0.0000
     29 H29        113.4379 247.9023 326.0500 H              1 RES1               0.0000
@<TRIPOS>BOND
    1    1    2 1     
    2    1    3 1     
    3    1    4 1     
    4    1    5 1     
    5    2    6 ar    
    6    2    7 ar    
    7    3    8 1     
    8    3    9 2     
    9    4   10 1     
   10    4   11 2     
   11    5   12 1     
   12    5   18 1     
   13    5   19 1     
   14    6   13 ar    
   15    6   20 1     
   16    7   14 ar    
   17    7   21 1     
   18    8   15 1     
   19    8   22 1     
   20   10   15 1     
   21   10   23 1     
   22   12   24 1     
   23   12   25 1     
   24   12   26 1     
   25   13   16 ar    
   26   13   27 1     
   27   14   16 ar    
   28   14   28 1     
   29   15   17 2     
   30   16   29 1     
@<TRIPOS>SUBSTRUCTURE
      1 RES1           1
@<TRIPOS>SET
DONOR_HYDROGENS      STATIC     ATOMS    <user>   **** ""
2 22 23
ATOM$RED        STATIC     ATOMS    COLORGROUP SYSTEM
2 22 23
@<TRIPOS>COMMENT
> <Gold.Version>
2022.3.0

> <Gold.Id.Protein>
unknown|5adg_clean|pdb

> <Gold.Protein.RotatedTorsions>
[ 5556 5551 5550 5547 ] final  -23.05 input   60.01 | X-H torsion
[ 8542 8534 8535 8536 ] final  -33.09 input   85.39 | X-H torsion
[ 12870 12858 12859 12860 ] final  -69.15 input  110.07 | X-H torsion
[ 12878 12869 12868 12866 ] final  125.43 input   59.97 | X-H torsion
[ 12906 12897 12898 12899 ] final    2.59 input   35.92 | X-H torsion
[ 8434 8429 8430 8431 ] final -103.64 input   45.97 | X-H torsion
[ 8458 8451 8452 8453 ] final  -52.15 input  104.20 | X-H torsion
[ 9002 8998 8999 9000 ] final  -20.35 input   46.10 | X-H torsion
[ 9036 9022 9023 9024 ] final  -33.86 input   36.28 | X-H torsion
[ 9080 9068 9069 9070 ] final -131.01 input   95.83 | X-H torsion
[ 9088 9079 9078 9076 ] final   97.40 input   59.97 | X-H torsion
[ 9114 9106 9107 9108 ] final -175.05 input   84.45 | X-H torsion
[ 9192 9183 9184 9185 ] final  -82.45 input  123.29 | X-H torsion
[ 3596 3592 3593 3594 ] final   17.48 input   84.32 | X-H torsion
[ 8984 8978 8979 8980 ] final -144.91 input   29.51 | X-H torsion
[ 9140 9136 9137 9138 ] final  -88.94 input  134.07 | X-H torsion
[ 11056 11049 11050 11051 ] final   46.75 input   56.26 | X-H torsion
[ 4893 4888 4887 4884 ] final  175.80 input   60.00 | X-H torsion
[ 8988 8983 8982 8979 ] final  -50.64 input   59.98 | X-H torsion
[ 3550 3542 3543 3544 ] final   36.05 input   80.85 | X-H torsion
[ 8488 8482 8483 8484 ] final  -41.06 input   54.31 | X-H torsion
[ 8954 8943 8944 8945 ] final   21.99 input   47.77 | X-H torsion
[ 8514 8506 8507 8508 ] final   37.88 input   67.56 | X-H torsion
[ 5580 5571 5572 5573 ] final  161.39 input   48.82 | X-H torsion
[ 3570 3563 3564 3565 ] final  123.92 input  103.62 | X-H torsion
[ 9229 9212 9213 9214 ] final  169.25 input   91.82 | X-H torsion
[ 8576 8568 8569 8570 ] final  122.31 input   67.63 | X-H torsion
[ 13465 1235 1234 1233 ] final   30.55 input    0.00 | X-H torsion
[ 13468 5549 5548 5547 ] final -154.93 input   -0.00 | X-H torsion
[ 13472 8509 8508 8507 ] final  133.09 input    0.00 | X-H torsion
[ 13479 12900 12899 12898 ] final   66.53 input   -0.00 | X-H torsion
[ 13492 8406 8405 8404 ] final  -79.09 input    0.00 | X-H torsion
[ 13496 8946 8945 8944 ] final  136.39 input   -0.00 | X-H torsion
[ 13499 9001 9000 8999 ] final  173.73 input    0.00 | X-H torsion
[ 13502 9025 9024 9023 ] final  132.93 input    0.00 | X-H torsion
[ 13505 9071 9070 9069 ] final  128.54 input    0.00 | X-H torsion
[ 13510 9109 9108 9107 ] final   -7.79 input    0.00 | X-H torsion
[ 13521 8981 8980 8979 ] final  -10.69 input   -0.00 | X-H torsion
[ 13523 8351 8350 8349 ] final  -18.36 input   -0.00 | X-H torsion
[ 13531 8454 8453 8452 ] final  131.07 input    0.00 | X-H torsion
[ 13533 8432 8431 8430 ] final  -90.56 input    0.00 | X-H torsion
[ 13535 3502 3501 3500 ] final  128.59 input    0.00 | X-H torsion
[ 13543 12828 12827 12826 ] final   28.40 input   -0.00 | X-H torsion

> <Gold.Protein.ActiveResidues>
 TRP311  MET341  HIS342  TRP414  ALA417  ARG419  CYS420  VAL421  GLY422  LEU460 
 SER462  SER482  GLN483  ARG486  ALA502  TYR567  GLY568  LEU569  PRO570  ALA571 
 VAL572  SER573  ASN574  MET575  LEU576  PHE589  SER590  GLY591  TRP592  TYR593 
 MET594  GLY595  GLU597  ILE598  ARG601  ASP602  ARG608  ILE653  VAL654  TRP683 
 PHE709  GLU710  TYR711  GLN712  ASP714  HEM750  H4B760 

> <Gold.Protein.RotatedAtoms>
  120.7203  252.2149  329.7929 H   0  0  0  0  0  0  0  0  0  0  0  0  # atno 3550 bound_to 3542
  121.6675  248.3588  329.8843 H   0  0  0  0  0  0  0  0  0  0  0  0  # atno 3570 bound_to 3563
  124.0505  249.0832  327.9041 H   0  0  0  0  0  0  0  0  0  0  0  0  # atno 3596 bound_to 3592
  125.7144  247.1647  319.1625 H   0  0  0  0  0  0  0  0  0  0  0  0  # atno 4893 bound_to 4888
  107.0484  243.0224  320.2522 H   0  0  0  0  0  0  0  0  0  0  0  0  # atno 5556 bound_to 5551
  108.9288  243.9186  319.8438 H   0  0  0  0  0  0  0  0  0  0  0  0  # atno 5580 bound_to 5571
  116.3196  242.7919  319.4014 H   0  0  0  0  0  0  0  0  0  0  0  0  # atno 8434 bound_to 8429
  114.3173  245.2028  318.0462 H   0  0  0  0  0  0  0  0  0  0  0  0  # atno 8458 bound_to 8451
  111.6207  247.8783  319.0005 H   0  0  0  0  0  0  0  0  0  0  0  0  # atno 8488 bound_to 8482
  110.3386  249.1540  319.1826 H   0  0  0  0  0  0  0  0  0  0  0  0  # atno 8514 bound_to 8506
  109.3319  251.6913  318.8555 H   0  0  0  0  0  0  0  0  0  0  0  0  # atno 8542 bound_to 8534
  109.7446  255.2691  320.4825 H   0  0  0  0  0  0  0  0  0  0  0  0  # atno 8576 bound_to 8568
  115.2055  248.3462  316.5727 H   0  0  0  0  0  0  0  0  0  0  0  0  # atno 8954 bound_to 8943
  117.8892  247.3557  317.0646 H   0  0  0  0  0  0  0  0  0  0  0  0  # atno 8984 bound_to 8978
  119.7317  245.6113  314.9765 H   0  0  0  0  0  0  0  0  0  0  0  0  # atno 8988 bound_to 8983
  120.3438  244.0410  318.4733 H   0  0  0  0  0  0  0  0  0  0  0  0  # atno 9002 bound_to 8998
  122.0403  243.2458  321.1544 H   0  0  0  0  0  0  0  0  0  0  0  0  # atno 9036 bound_to 9022
  121.6062  240.5740  322.2735 H   0  0  0  0  0  0  0  0  0  0  0  0  # atno 9080 bound_to 9068
  114.9301  239.1810  322.2213 H   0  0  0  0  0  0  0  0  0  0  0  0  # atno 9088 bound_to 9079
  122.2335  240.7537  325.9719 H   0  0  0  0  0  0  0  0  0  0  0  0  # atno 9114 bound_to 9106
  121.9139  237.8718  327.8357 H   0  0  0  0  0  0  0  0  0  0  0  0  # atno 9140 bound_to 9136
  117.9451  238.2316  330.9916 H   0  0  0  0  0  0  0  0  0  0  0  0  # atno 9192 bound_to 9183
  116.9410  237.2575  327.7699 H   0  0  0  0  0  0  0  0  0  0  0  0  # atno 9229 bound_to 9212
  125.0422  238.1307  325.9885 H   0  0  0  0  0  0  0  0  0  0  0  0  # atno 11056 bound_to 11049
  110.0969  256.2558  323.8191 H   0  0  0  0  0  0  0  0  0  0  0  0  # atno 12870 bound_to 12858
  112.1195  252.3925  329.2242 H   0  0  0  0  0  0  0  0  0  0  0  0  # atno 12878 bound_to 12869
  106.3464  254.2629  323.4550 H   0  0  0  0  0  0  0  0  0  0  0  0  # atno 12906 bound_to 12897
  109.7123  253.2818  332.0736 LP  0  0  0  0  0  0  0  0  0  0  0  0  # atno 13465 bound_to 1235
  109.1706  254.9222  331.9482 LP  0  0  0  0  0  0  0  0  0  0  0  0  # atno 13466 bound_to 1235
  110.5337  245.7385  319.1845 LP  0  0  0  0  0  0  0  0  0  0  0  0  # atno 13468 bound_to 5549
  109.4812  246.4767  320.3452 LP  0  0  0  0  0  0  0  0  0  0  0  0  # atno 13469 bound_to 5549
  106.2490  243.0766  321.6689 LP  0  0  0  0  0  0  0  0  0  0  0  0  # atno 13470 bound_to 5551
  107.8671  243.2940  321.6324 LP  0  0  0  0  0  0  0  0  0  0  0  0  # atno 13471 bound_to 5551
  107.9807  252.3637  321.1112 LP  0  0  0  0  0  0  0  0  0  0  0  0  # atno 13472 bound_to 8509
  106.9686  252.1658  319.7196 LP  0  0  0  0  0  0  0  0  0  0  0  0  # atno 13473 bound_to 8509
  110.3632  250.8434  319.9777 LP  0  0  0  0  0  0  0  0  0  0  0  0  # atno 13474 bound_to 8534
  109.7368  256.4941  325.5117 LP  0  0  0  0  0  0  0  0  0  0  0  0  # atno 13475 bound_to 12858
  111.4691  251.0225  328.6338 LP  0  0  0  0  0  0  0  0  0  0  0  0  # atno 13476 bound_to 12869
  110.8454  251.7137  329.9754 LP  0  0  0  0  0  0  0  0  0  0  0  0  # atno 13477 bound_to 12869
  107.3102  255.6647  323.0544 LP  0  0  0  0  0  0  0  0  0  0  0  0  # atno 13478 bound_to 12897
  104.7101  253.3698  323.6623 LP  0  0  0  0  0  0  0  0  0  0  0  0  # atno 13479 bound_to 12900
  104.1402  252.8586  322.1087 LP  0  0  0  0  0  0  0  0  0  0  0  0  # atno 13480 bound_to 12900
  118.0404  243.8258  319.8905 LP  0  0  0  0  0  0  0  0  0  0  0  0  # atno 13492 bound_to 8406
  118.3310  243.2552  318.2812 LP  0  0  0  0  0  0  0  0  0  0  0  0  # atno 13493 bound_to 8406
  115.0897  241.9458  318.4954 LP  0  0  0  0  0  0  0  0  0  0  0  0  # atno 13494 bound_to 8429
  115.2861  245.6370  319.4380 LP  0  0  0  0  0  0  0  0  0  0  0  0  # atno 13495 bound_to 8451
  116.6042  245.8281  317.5063 LP  0  0  0  0  0  0  0  0  0  0  0  0  # atno 13496 bound_to 8946
  116.0405  247.3180  318.1862 LP  0  0  0  0  0  0  0  0  0  0  0  0  # atno 13497 bound_to 8946
  120.4350  245.6960  319.0324 LP  0  0  0  0  0  0  0  0  0  0  0  0  # atno 13498 bound_to 8998
  122.4265  241.3111  318.7008 LP  0  0  0  0  0  0  0  0  0  0  0  0  # atno 13499 bound_to 9001
  121.8577  242.6212  317.7210 LP  0  0  0  0  0  0  0  0  0  0  0  0  # atno 13500 bound_to 9001
  123.4236  243.0221  320.1162 LP  0  0  0  0  0  0  0  0  0  0  0  0  # atno 13501 bound_to 9022
  121.3317  242.2312  323.7031 LP  0  0  0  0  0  0  0  0  0  0  0  0  # atno 13502 bound_to 9025
  122.8904  242.7706  323.1742 LP  0  0  0  0  0  0  0  0  0  0  0  0  # atno 13503 bound_to 9025
  122.7746  239.3189  322.6193 LP  0  0  0  0  0  0  0  0  0  0  0  0  # atno 13504 bound_to 9068
  124.2113  239.6968  325.5293 LP  0  0  0  0  0  0  0  0  0  0  0  0  # atno 13505 bound_to 9071
  123.5801  238.2616  324.7932 LP  0  0  0  0  0  0  0  0  0  0  0  0  # atno 13506 bound_to 9071
  114.5619  238.5440  323.6730 LP  0  0  0  0  0  0  0  0  0  0  0  0  # atno 13507 bound_to 9079
  114.8653  237.5648  322.4019 LP  0  0  0  0  0  0  0  0  0  0  0  0  # atno 13508 bound_to 9079
  120.9716  239.5584  326.1738 LP  0  0  0  0  0  0  0  0  0  0  0  0  # atno 13509 bound_to 9106
  119.8534  239.3540  327.9378 LP  0  0  0  0  0  0  0  0  0  0  0  0  # atno 13510 bound_to 9109
  119.7629  237.6778  328.3649 LP  0  0  0  0  0  0  0  0  0  0  0  0  # atno 13511 bound_to 9109
  118.8684  238.2753  329.5108 LP  0  0  0  0  0  0  0  0  0  0  0  0  # atno 13512 bound_to 9183
  124.1144  247.4542  328.5226 LP  0  0  0  0  0  0  0  0  0  0  0  0  # atno 13519 bound_to 3592
  119.5007  247.4857  316.4066 LP  0  0  0  0  0  0  0  0  0  0  0  0  # atno 13520 bound_to 8978
  121.2221  246.8512  316.5446 LP  0  0  0  0  0  0  0  0  0  0  0  0  # atno 13521 bound_to 8981
  122.3523  246.4380  317.7903 LP  0  0  0  0  0  0  0  0  0  0  0  0  # atno 13522 bound_to 8981
  120.5981  236.7739  319.9465 LP  0  0  0  0  0  0  0  0  0  0  0  0  # atno 13523 bound_to 8351
  120.3330  238.2207  319.0318 LP  0  0  0  0  0  0  0  0  0  0  0  0  # atno 13524 bound_to 8351
  122.9162  237.7284  329.2636 LP  0  0  0  0  0  0  0  0  0  0  0  0  # atno 13525 bound_to 9136
  126.4475  237.4638  325.1960 LP  0  0  0  0  0  0  0  0  0  0  0  0  # atno 13526 bound_to 11049
  126.0770  245.9000  318.2049 LP  0  0  0  0  0  0  0  0  0  0  0  0  # atno 13527 bound_to 4888
  124.5830  246.0378  318.8495 LP  0  0  0  0  0  0  0  0  0  0  0  0  # atno 13528 bound_to 4888
  119.4556  244.0513  314.6049 LP  0  0  0  0  0  0  0  0  0  0  0  0  # atno 13529 bound_to 8983
  120.6834  244.4506  315.6048 LP  0  0  0  0  0  0  0  0  0  0  0  0  # atno 13530 bound_to 8983
  113.5668  248.2990  316.8649 LP  0  0  0  0  0  0  0  0  0  0  0  0  # atno 13531 bound_to 8454
  114.1872  248.7644  318.4136 LP  0  0  0  0  0  0  0  0  0  0  0  0  # atno 13532 bound_to 8454
  112.9359  244.8628  316.6750 LP  0  0  0  0  0  0  0  0  0  0  0  0  # atno 13533 bound_to 8432
  112.5758  243.7460  317.9490 LP  0  0  0  0  0  0  0  0  0  0  0  0  # atno 13534 bound_to 8432
  118.9332  249.2244  329.8866 LP  0  0  0  0  0  0  0  0  0  0  0  0  # atno 13535 bound_to 3502
  119.0796  249.6512  331.5588 LP  0  0  0  0  0  0  0  0  0  0  0  0  # atno 13536 bound_to 3502
  119.2221  251.3667  329.5004 LP  0  0  0  0  0  0  0  0  0  0  0  0  # atno 13537 bound_to 3542
  111.7318  246.3952  318.0858 LP  0  0  0  0  0  0  0  0  0  0  0  0  # atno 13538 bound_to 8482
  115.5505  249.4889  315.2973 LP  0  0  0  0  0  0  0  0  0  0  0  0  # atno 13539 bound_to 8943
  109.5121  248.6744  317.7220 LP  0  0  0  0  0  0  0  0  0  0  0  0  # atno 13541 bound_to 8506
  108.2506  243.8592  318.2314 LP  0  0  0  0  0  0  0  0  0  0  0  0  # atno 13542 bound_to 5571
  111.0264  255.5920  321.9348 LP  0  0  0  0  0  0  0  0  0  0  0  0  # atno 13543 bound_to 12828
  109.3380  255.3318  322.2206 LP  0  0  0  0  0  0  0  0  0  0  0  0  # atno 13544 bound_to 12828

> <Gold.Score>
     Fitness  S(hb_ext) S(vdw_ext)  S(hb_int)    S(int)      intcor
     59.16      10.36      36.09       0.00      -0.82      -0.76

> <Gold.Goldscore.Fitness>
59.1623

> <Gold.Goldscore.Internal.Vdw>
-0.9277

> <Gold.Goldscore.Internal.Torsion>
-0.6505

> <Gold.Goldscore.External.Vdw>
36.0884

> <Gold.Goldscore.Internal.HBond>
0.0000

> <Gold.Goldscore.External.HBond>
10.3606

> <Gold.Goldscore.Internal.Correction>
-0.7585

> <Gold.Goldscore.Hbonds>
donor molecule, donor type, donor heavy atom, donor atom, acceptor molecule, acceptor atom, score
      P1  M 13332 13547       L1    11  1.00
      L1  H     8    22       P1  8451  0.06

> <Gold.Goldscore.Internal.Vdw.Weighted>
-0.9277

> <Gold.Goldscore.Internal.Torsion.Weighted>
-0.6505

> <Gold.Goldscore.External.Vdw.Weighted>
49.6215

> <Gold.Goldscore.Internal.HBond.Weighted>
0.0000

> <Gold.Goldscore.External.HBond.Weighted>
10.3606

> <Gold.Goldscore.Internal.Correction.Weighted>
-0.7585

> <Gold.Rescore>
     Score     S(PLP)   S(hbond)     S(cho)   S(metal)  DE(clash)   DE(tors)     intcor
     50.41     -46.65       0.06       0.00       1.00       0.00       1.21       ----

> <Gold.PLP.Fitness>
50.4117

> <Gold.PLP.PLP>
-46.6499

> <Gold.PLP.part.hbond>
-3.0000

> <Gold.PLP.part.metal>
-1.0000

> <Gold.PLP.part.buried>
13.6249

> <Gold.PLP.part.nonpolar>
-60.2867

> <Gold.PLP.part.repulsive>
3.4945

> <Gold.PLP.ligand.clash>
0.0000

> <Gold.PLP.ligand.torsion>
1.2068

> <Gold.PLP.Chemscore.Hbond>
0.0585

> <Gold.PLP.Chemscore.CHOScore>
0.0000

> <Gold.PLP.Chemscore.Metal>
1.0000

> <Gold.Chemscore.Hbonds>
donor molecule, donor type, donor heavy atom, donor atom, acceptor molecule, acceptor atom, score
      P1  M 13332 13332       L1    11  1.00

> <Gold.PLP.Chemscore.Internal.Correction>
   9.000000E+99

#       Name:                CT1002167954
#       Creating user name   hitesit
#       Creation time:       Sun Apr 16 22:52:36 2023


#       File generated by GOLD software.
#

@<TRIPOS>MOLECULE
CT1002167954|ligand_prepared|mol2|1|dock1
    29    30     1
SMALL
NO_CHARGES


@<TRIPOS>ATOM
      1 C1         117.4864 245.6233 323.5468 C.3            1 RES1               0.0000
      2 C2         116.2372 246.3162 324.1283 C.ar           1 RES1               0.0000
      3 C3         117.0241 244.8904 322.2909 C.2            1 RES1               0.0000
      4 C4         118.5034 246.7283 323.2835 C.2            1 RES1               0.0000
      5 C5         118.1340 244.5963 324.5046 C.3            1 RES1               0.0000
      6 C6         115.3069 245.5940 324.8699 C.ar           1 RES1               0.0000
      7 C7         116.0031 247.6749 323.9343 C.ar           1 RES1               0.0000
      8 N8         117.3759 245.4203 321.0845 N.am           1 RES1               0.0000
      9 O9         116.3282 243.8847 322.3576 O.2            1 RES1               0.0000
     10 N10        118.8519 246.9835 321.9830 N.am           1 RES1               0.0000
     11 O11        118.9935 247.3914 324.1892 O.2            1 RES1               0.0000
     12 C12        119.4598 244.0437 324.0055 C.3            1 RES1               0.0000
     13 C13        114.1849 246.2085 325.4008 C.ar           1 RES1               0.0000
     14 C14        114.8803 248.2874 324.4658 C.ar           1 RES1               0.0000
     15 C15        118.3113 246.4004 320.8696 C.2            1 RES1               0.0000
     16 C16        113.9710 247.5555 325.1995 C.ar           1 RES1               0.0000
     17 O17        118.6375 246.7218 319.7305 O.2            1 RES1               0.0000
     18 H18        118.2950 245.0745 325.4786 H              1 RES1               0.0000
     19 H19        117.4368 243.7622 324.6517 H              1 RES1               0.0000
     20 H20        115.4572 244.5326 325.0366 H              1 RES1               0.0000
     21 H21        116.7044 248.2703 323.3595 H              1 RES1               0.0000
     22 H22        116.8993 245.0541 320.2665 H              1 RES1               0.0000
     23 H23        119.5822 247.6720 321.8310 H              1 RES1               0.0000
     24 H24        119.8708 243.3281 324.7145 H              1 RES1               0.0000
     25 H25        119.3322 243.5390 323.0501 H              1 RES1               0.0000
     26 H26        120.1853 244.8435 323.8721 H              1 RES1               0.0000
     27 H27        113.4716 245.6277 325.9763 H              1 RES1               0.0000
     28 H28        114.7157 249.3476 324.3044 H              1 RES1               0.0000
     29 H29        113.0922 248.0366 325.6158 H              1 RES1               0.0000
@<TRIPOS>BOND
    1    1    2 1     
    2    1    3 1     
    3    1    4 1     
    4    1    5 1     
    5    2    6 ar    
    6    2    7 ar    
    7    3    8 1     
    8    3    9 2     
    9    4   10 1     
   10    4   11 2     
   11    5   12 1     
   12    5   18 1     
   13    5   19 1     
   14    6   13 ar    
   15    6   20 1     
   16    7   14 ar    
   17    7   21 1     
   18    8   15 1     
   19    8   22 1     
   20   10   15 1     
   21   10   23 1     
   22   12   24 1     
   23   12   25 1     
   24   12   26 1     
   25   13   16 ar    
   26   13   27 1     
   27   14   16 ar    
   28   14   28 1     
   29   15   17 2     
   30   16   29 1     
@<TRIPOS>SUBSTRUCTURE
      1 RES1           1
@<TRIPOS>SET
DONOR_HYDROGENS      STATIC     ATOMS    <user>   **** ""
2 22 23
ATOM$RED        STATIC     ATOMS    COLORGROUP SYSTEM
2 22 23
@<TRIPOS>COMMENT
> <Gold.Version>
2022.3.0

> <Gold.Id.Protein>
unknown|5adg_clean|pdb

> <Gold.Protein.RotatedTorsions>
[ 5556 5551 5550 5547 ] final  -48.68 input   60.01 | X-H torsion
[ 8542 8534 8535 8536 ] final -157.59 input   85.39 | X-H torsion
[ 12870 12858 12859 12860 ] final   31.57 input  110.07 | X-H torsion
[ 12878 12869 12868 12866 ] final   70.48 input   59.97 | X-H torsion
[ 12906 12897 12898 12899 ] final  -73.80 input   35.92 | X-H torsion
[ 8434 8429 8430 8431 ] final  123.41 input   45.97 | X-H torsion
[ 8458 8451 8452 8453 ] final  -29.27 input  104.20 | X-H torsion
[ 9002 8998 8999 9000 ] final  126.35 input   46.10 | X-H torsion
[ 9036 9022 9023 9024 ] final  -43.61 input   36.28 | X-H torsion
[ 9080 9068 9069 9070 ] final -165.95 input   95.83 | X-H torsion
[ 9088 9079 9078 9076 ] final  -10.84 input   59.97 | X-H torsion
[ 9114 9106 9107 9108 ] final  -85.98 input   84.45 | X-H torsion
[ 9192 9183 9184 9185 ] final   11.57 input  123.29 | X-H torsion
[ 3596 3592 3593 3594 ] final -130.84 input   84.32 | X-H torsion
[ 8984 8978 8979 8980 ] final  165.63 input   29.51 | X-H torsion
[ 9140 9136 9137 9138 ] final -177.73 input  134.07 | X-H torsion
[ 11056 11049 11050 11051 ] final  -39.01 input   56.26 | X-H torsion
[ 4893 4888 4887 4884 ] final   -7.48 input   60.00 | X-H torsion
[ 8988 8983 8982 8979 ] final  -47.83 input   59.98 | X-H torsion
[ 3550 3542 3543 3544 ] final  -66.34 input   80.85 | X-H torsion
[ 8488 8482 8483 8484 ] final   86.78 input   54.31 | X-H torsion
[ 8954 8943 8944 8945 ] final  -55.16 input   47.77 | X-H torsion
[ 8514 8506 8507 8508 ] final  117.84 input   67.56 | X-H torsion
[ 5580 5571 5572 5573 ] final  157.13 input   48.82 | X-H torsion
[ 3570 3563 3564 3565 ] final   86.64 input  103.62 | X-H torsion
[ 9229 9212 9213 9214 ] final  -74.61 input   91.82 | X-H torsion
[ 8576 8568 8569 8570 ] final -151.10 input   67.63 | X-H torsion
[ 13465 1235 1234 1233 ] final  152.78 input    0.00 | X-H torsion
[ 13468 5549 5548 5547 ] final  -53.16 input   -0.00 | X-H torsion
[ 13472 8509 8508 8507 ] final  -61.72 input    0.00 | X-H torsion
[ 13479 12900 12899 12898 ] final   27.68 input   -0.00 | X-H torsion
[ 13492 8406 8405 8404 ] final  -77.49 input    0.00 | X-H torsion
[ 13496 8946 8945 8944 ] final   14.56 input   -0.00 | X-H torsion
[ 13499 9001 9000 8999 ] final  -19.34 input    0.00 | X-H torsion
[ 13502 9025 9024 9023 ] final  124.27 input    0.00 | X-H torsion
[ 13505 9071 9070 9069 ] final -106.57 input    0.00 | X-H torsion
[ 13510 9109 9108 9107 ] final   24.21 input    0.00 | X-H torsion
[ 13521 8981 8980 8979 ] final -134.84 input   -0.00 | X-H torsion
[ 13523 8351 8350 8349 ] final  -25.17 input   -0.00 | X-H torsion
[ 13531 8454 8453 8452 ] final   47.53 input    0.00 | X-H torsion
[ 13533 8432 8431 8430 ] final  173.11 input    0.00 | X-H torsion
[ 13535 3502 3501 3500 ] final   49.33 input    0.00 | X-H torsion
[ 13543 12828 12827 12826 ] final  -60.35 input   -0.00 | X-H torsion

> <Gold.Protein.ActiveResidues>
 TRP311  MET341  HIS342  TRP414  ALA417  ARG419  CYS420  VAL421  GLY422  LEU460 
 SER462  SER482  GLN483  ARG486  ALA502  TYR567  GLY568  LEU569  PRO570  ALA571 
 VAL572  SER573  ASN574  MET575  LEU576  PHE589  SER590  GLY591  TRP592  TYR593 
 MET594  GLY595  GLU597  ILE598  ARG601  ASP602  ARG608  ILE653  VAL654  TRP683 
 PHE709  GLU710  TYR711  GLN712  ASP714  HEM750  H4B760 

> <Gold.Protein.RotatedAtoms>
  119.9173  251.2418  330.3364 H   0  0  0  0  0  0  0  0  0  0  0  0  # atno 3550 bound_to 3542
  121.8271  248.1806  329.3675 H   0  0  0  0  0  0  0  0  0  0  0  0  # atno 3570 bound_to 3563
  124.4582  247.6865  328.7565 H   0  0  0  0  0  0  0  0  0  0  0  0  # atno 3596 bound_to 3592
  125.1538  245.5812  318.3375 H   0  0  0  0  0  0  0  0  0  0  0  0  # atno 4893 bound_to 4888
  106.6475  242.9793  320.3528 H   0  0  0  0  0  0  0  0  0  0  0  0  # atno 5556 bound_to 5551
  108.9138  243.8545  319.8498 H   0  0  0  0  0  0  0  0  0  0  0  0  # atno 5580 bound_to 5571
  115.7301  241.8277  318.2462 H   0  0  0  0  0  0  0  0  0  0  0  0  # atno 8434 bound_to 8429
  114.4699  245.5008  317.9349 H   0  0  0  0  0  0  0  0  0  0  0  0  # atno 8458 bound_to 8451
  111.0670  246.4986  318.4558 H   0  0  0  0  0  0  0  0  0  0  0  0  # atno 8488 bound_to 8482
  109.6616  248.2693  318.9878 H   0  0  0  0  0  0  0  0  0  0  0  0  # atno 8514 bound_to 8506
  109.5882  250.9516  320.1956 H   0  0  0  0  0  0  0  0  0  0  0  0  # atno 8542 bound_to 8534
  109.8725  254.5681  319.4954 H   0  0  0  0  0  0  0  0  0  0  0  0  # atno 8576 bound_to 8568
  115.3913  248.1487  315.5057 H   0  0  0  0  0  0  0  0  0  0  0  0  # atno 8954 bound_to 8943
  117.9656  247.0900  316.3824 H   0  0  0  0  0  0  0  0  0  0  0  0  # atno 8984 bound_to 8978
  119.7664  245.6215  315.0047 H   0  0  0  0  0  0  0  0  0  0  0  0  # atno 8988 bound_to 8983
  120.2700  245.4427  319.4333 H   0  0  0  0  0  0  0  0  0  0  0  0  # atno 9002 bound_to 8998
  121.9599  243.2207  321.0314 H   0  0  0  0  0  0  0  0  0  0  0  0  # atno 9036 bound_to 9022
  121.4061  240.1150  322.0921 H   0  0  0  0  0  0  0  0  0  0  0  0  # atno 9080 bound_to 9068
  114.5774  238.7305  323.6267 H   0  0  0  0  0  0  0  0  0  0  0  0  # atno 9088 bound_to 9079
  122.1143  239.5497  325.6733 H   0  0  0  0  0  0  0  0  0  0  0  0  # atno 9114 bound_to 9106
  123.0156  237.3443  328.0771 H   0  0  0  0  0  0  0  0  0  0  0  0  # atno 9140 bound_to 9136
  118.2057  237.4273  330.0195 H   0  0  0  0  0  0  0  0  0  0  0  0  # atno 9192 bound_to 9183
  116.0580  237.3673  328.9934 H   0  0  0  0  0  0  0  0  0  0  0  0  # atno 9229 bound_to 9212
  125.5529  237.0466  326.0097 H   0  0  0  0  0  0  0  0  0  0  0  0  # atno 11056 bound_to 11049
  109.3969  257.0902  324.6335 H   0  0  0  0  0  0  0  0  0  0  0  0  # atno 12870 bound_to 12858
  112.1394  251.7784  328.6167 H   0  0  0  0  0  0  0  0  0  0  0  0  # atno 12878 bound_to 12869
  106.4502  255.1955  324.0173 H   0  0  0  0  0  0  0  0  0  0  0  0  # atno 12906 bound_to 12897
  108.8988  254.3629  331.3884 LP  0  0  0  0  0  0  0  0  0  0  0  0  # atno 13465 bound_to 1235
  109.9841  253.8412  332.6333 LP  0  0  0  0  0  0  0  0  0  0  0  0  # atno 13466 bound_to 1235
  109.6067  246.7063  319.2843 LP  0  0  0  0  0  0  0  0  0  0  0  0  # atno 13468 bound_to 5549
  110.4082  245.5088  320.2454 LP  0  0  0  0  0  0  0  0  0  0  0  0  # atno 13469 bound_to 5549
  106.5328  243.1506  321.9672 LP  0  0  0  0  0  0  0  0  0  0  0  0  # atno 13470 bound_to 5551
  107.9869  243.2634  321.2327 LP  0  0  0  0  0  0  0  0  0  0  0  0  # atno 13471 bound_to 5551
  107.0712  252.3529  319.6541 LP  0  0  0  0  0  0  0  0  0  0  0  0  # atno 13472 bound_to 8509
  107.8780  252.1767  321.1767 LP  0  0  0  0  0  0  0  0  0  0  0  0  # atno 13473 bound_to 8509
  110.1097  251.5750  318.6525 LP  0  0  0  0  0  0  0  0  0  0  0  0  # atno 13474 bound_to 8534
  110.4216  255.6778  324.7149 LP  0  0  0  0  0  0  0  0  0  0  0  0  # atno 13475 bound_to 12858
  110.8687  250.9930  329.2626 LP  0  0  0  0  0  0  0  0  0  0  0  0  # atno 13476 bound_to 12869
  111.4257  252.3614  329.9581 LP  0  0  0  0  0  0  0  0  0  0  0  0  # atno 13477 bound_to 12869
  107.2090  254.7547  322.5058 LP  0  0  0  0  0  0  0  0  0  0  0  0  # atno 13478 bound_to 12897
  105.1526  253.3458  323.2943 LP  0  0  0  0  0  0  0  0  0  0  0  0  # atno 13479 bound_to 12900
  103.6976  252.8826  322.4767 LP  0  0  0  0  0  0  0  0  0  0  0  0  # atno 13480 bound_to 12900
  118.0547  243.8082  319.8990 LP  0  0  0  0  0  0  0  0  0  0  0  0  # atno 13492 bound_to 8406
  118.3167  243.2728  318.2727 LP  0  0  0  0  0  0  0  0  0  0  0  0  # atno 13493 bound_to 8406
  115.6683  242.8922  319.6292 LP  0  0  0  0  0  0  0  0  0  0  0  0  # atno 13494 bound_to 8429
  115.1384  245.3486  319.5456 LP  0  0  0  0  0  0  0  0  0  0  0  0  # atno 13495 bound_to 8451
  115.7256  247.0593  317.4494 LP  0  0  0  0  0  0  0  0  0  0  0  0  # atno 13496 bound_to 8946
  116.9190  246.0868  318.2431 LP  0  0  0  0  0  0  0  0  0  0  0  0  # atno 13497 bound_to 8946
  120.5067  244.3349  318.1003 LP  0  0  0  0  0  0  0  0  0  0  0  0  # atno 13498 bound_to 8998
  121.6821  242.5710  317.7953 LP  0  0  0  0  0  0  0  0  0  0  0  0  # atno 13499 bound_to 9001
  122.6020  241.3614  318.6265 LP  0  0  0  0  0  0  0  0  0  0  0  0  # atno 13500 bound_to 9001
  123.5031  243.0468  320.2378 LP  0  0  0  0  0  0  0  0  0  0  0  0  # atno 13501 bound_to 9022
  121.2850  242.2970  323.6000 LP  0  0  0  0  0  0  0  0  0  0  0  0  # atno 13502 bound_to 9025
  122.9371  242.7048  323.2772 LP  0  0  0  0  0  0  0  0  0  0  0  0  # atno 13503 bound_to 9025
  122.9690  239.7650  322.7955 LP  0  0  0  0  0  0  0  0  0  0  0  0  # atno 13504 bound_to 9068
  123.6747  238.2593  325.5888 LP  0  0  0  0  0  0  0  0  0  0  0  0  # atno 13505 bound_to 9071
  124.1168  239.6991  324.7337 LP  0  0  0  0  0  0  0  0  0  0  0  0  # atno 13506 bound_to 9071
  114.8204  237.5074  322.5808 LP  0  0  0  0  0  0  0  0  0  0  0  0  # atno 13507 bound_to 9079
  114.9620  239.0549  322.0789 LP  0  0  0  0  0  0  0  0  0  0  0  0  # atno 13508 bound_to 9079
  121.0871  240.7255  326.4632 LP  0  0  0  0  0  0  0  0  0  0  0  0  # atno 13509 bound_to 9106
  119.8666  239.1124  327.5263 LP  0  0  0  0  0  0  0  0  0  0  0  0  # atno 13510 bound_to 9109
  119.7497  237.9194  328.7765 LP  0  0  0  0  0  0  0  0  0  0  0  0  # atno 13511 bound_to 9109
  118.6125  239.0653  330.4656 LP  0  0  0  0  0  0  0  0  0  0  0  0  # atno 13512 bound_to 9183
  123.7110  248.8361  327.6793 LP  0  0  0  0  0  0  0  0  0  0  0  0  # atno 13519 bound_to 3592
  119.4255  247.7471  317.0780 LP  0  0  0  0  0  0  0  0  0  0  0  0  # atno 13520 bound_to 8978
  122.3314  245.9722  317.1266 LP  0  0  0  0  0  0  0  0  0  0  0  0  # atno 13521 bound_to 8981
  121.2430  247.3171  317.2082 LP  0  0  0  0  0  0  0  0  0  0  0  0  # atno 13522 bound_to 8981
  120.5210  236.8053  320.0069 LP  0  0  0  0  0  0  0  0  0  0  0  0  # atno 13523 bound_to 8351
  120.4101  238.1893  318.9714 LP  0  0  0  0  0  0  0  0  0  0  0  0  # atno 13524 bound_to 8351
  121.8511  238.2384  329.0302 LP  0  0  0  0  0  0  0  0  0  0  0  0  # atno 13525 bound_to 9136
  125.9458  238.5286  325.1750 LP  0  0  0  0  0  0  0  0  0  0  0  0  # atno 13526 bound_to 11049
  124.8794  246.8749  319.2857 LP  0  0  0  0  0  0  0  0  0  0  0  0  # atno 13527 bound_to 4888
  126.3454  246.6580  318.5998 LP  0  0  0  0  0  0  0  0  0  0  0  0  # atno 13528 bound_to 4888
  119.4293  244.0852  314.5876 LP  0  0  0  0  0  0  0  0  0  0  0  0  # atno 13529 bound_to 8983
  120.6747  244.4065  315.5937 LP  0  0  0  0  0  0  0  0  0  0  0  0  # atno 13530 bound_to 8983
  114.4382  247.8872  317.4993 LP  0  0  0  0  0  0  0  0  0  0  0  0  # atno 13531 bound_to 8454
  113.3158  249.1762  317.7792 LP  0  0  0  0  0  0  0  0  0  0  0  0  # atno 13532 bound_to 8454
  112.3517  244.8726  317.8257 LP  0  0  0  0  0  0  0  0  0  0  0  0  # atno 13533 bound_to 8432
  113.1600  243.7362  316.7983 LP  0  0  0  0  0  0  0  0  0  0  0  0  # atno 13534 bound_to 8432
  118.1564  249.5506  330.6012 LP  0  0  0  0  0  0  0  0  0  0  0  0  # atno 13535 bound_to 3502
  119.8564  249.3250  330.8442 LP  0  0  0  0  0  0  0  0  0  0  0  0  # atno 13536 bound_to 3502
  120.0100  252.3215  328.9671 LP  0  0  0  0  0  0  0  0  0  0  0  0  # atno 13537 bound_to 3542
  112.2749  247.7487  318.6202 LP  0  0  0  0  0  0  0  0  0  0  0  0  # atno 13538 bound_to 8482
  115.3686  249.6823  316.3418 LP  0  0  0  0  0  0  0  0  0  0  0  0  # atno 13539 bound_to 8943
  110.1779  249.5444  317.9136 LP  0  0  0  0  0  0  0  0  0  0  0  0  # atno 13541 bound_to 8506
  108.2651  243.9213  318.2256 LP  0  0  0  0  0  0  0  0  0  0  0  0  # atno 13542 bound_to 5571
  110.0178  256.2081  321.6701 LP  0  0  0  0  0  0  0  0  0  0  0  0  # atno 13543 bound_to 12828
  110.3467  254.7157  322.4852 LP  0  0  0  0  0  0  0  0  0  0  0  0  # atno 13544 bound_to 12828

> <Gold.Score>
     Fitness  S(hb_ext) S(vdw_ext)  S(hb_int)    S(int)      intcor
     58.71      10.67      35.71       0.00      -1.05      -0.79

> <Gold.Goldscore.Fitness>
58.7120

> <Gold.Goldscore.Internal.Vdw>
-1.3886

> <Gold.Goldscore.Internal.Torsion>
-0.4482

> <Gold.Goldscore.External.Vdw>
35.7058

> <Gold.Goldscore.Internal.HBond>
0.0000

> <Gold.Goldscore.External.HBond>
10.6684

> <Gold.Goldscore.Internal.Correction>
-0.7850

> <Gold.Goldscore.Hbonds>
donor molecule, donor type, donor heavy atom, donor atom, acceptor molecule, acceptor atom, score
      P1  H  8998  9002       L1    17  0.12
      P1  M 13332 13547       L1    11  1.00
      L1  H     8    22       P1  8429  0.07

> <Gold.Goldscore.Internal.Vdw.Weighted>
-1.3886

> <Gold.Goldscore.Internal.Torsion.Weighted>
-0.4482

> <Gold.Goldscore.External.Vdw.Weighted>
49.0954

> <Gold.Goldscore.Internal.HBond.Weighted>
0.0000

> <Gold.Goldscore.External.HBond.Weighted>
10.6684

> <Gold.Goldscore.Internal.Correction.Weighted>
-0.7850

> <Gold.Rescore>
     Score     S(PLP)   S(hbond)     S(cho)   S(metal)  DE(clash)   DE(tors)     intcor
     53.86     -46.62       1.15       0.00       1.00       0.00       1.10       ----

> <Gold.PLP.Fitness>
53.8621

> <Gold.PLP.PLP>
-46.6180

> <Gold.PLP.part.hbond>
-3.0000

> <Gold.PLP.part.metal>
-0.7371

> <Gold.PLP.part.buried>
12.7616

> <Gold.PLP.part.nonpolar>
-61.1185

> <Gold.PLP.part.repulsive>
2.4089

> <Gold.PLP.ligand.clash>
0.0000

> <Gold.PLP.ligand.torsion>
1.1000

> <Gold.PLP.Chemscore.Hbond>
1.1480

> <Gold.PLP.Chemscore.CHOScore>
0.0000

> <Gold.PLP.Chemscore.Metal>
1.0000

> <Gold.Chemscore.Hbonds>
donor molecule, donor type, donor heavy atom, donor atom, acceptor molecule, acceptor atom, score
      L1  H     8    22       P1  8406  0.16
      P1  H  8998  9002       L1    17  1.00
      P1  M 13332 13332       L1    11  1.00

> <Gold.PLP.Chemscore.Internal.Correction>
   9.000000E+99

#       Name:                CT1002167954
#       Creating user name   hitesit
#       Creation time:       Sun Apr 16 22:52:43 2023


#       File generated by GOLD software.
#

@<TRIPOS>MOLECULE
CT1002167954|ligand_prepared|mol2|1|dock10
    29    30     1
SMALL
NO_CHARGES


@<TRIPOS>ATOM
      1 C1         117.5056 245.1082 323.8375 C.3            1 RES1               0.0000
      2 C2         116.4739 244.0710 324.3260 C.ar           1 RES1               0.0000
      3 C3         118.7750 244.8645 324.6484 C.2            1 RES1               0.0000
      4 C4         117.6696 244.8741 322.3399 C.2            1 RES1               0.0000
      5 C5         117.0635 246.5753 324.0462 C.3            1 RES1               0.0000
      6 C6         115.5601 244.3962 325.3240 C.ar           1 RES1               0.0000
      7 C7         116.4220 242.7881 323.7873 C.ar           1 RES1               0.0000
      8 N8         119.8248 244.2678 324.0147 N.am           1 RES1               0.0000
      9 O9         118.8400 245.1555 325.8364 O.2            1 RES1               0.0000
     10 N10        118.8851 244.4308 321.8886 N.am           1 RES1               0.0000
     11 O11        116.7521 245.0536 321.5485 O.2            1 RES1               0.0000
     12 C12        117.9196 247.5858 323.2991 C.3            1 RES1               0.0000
     13 C13        114.6263 243.4734 325.7654 C.ar           1 RES1               0.0000
     14 C14        115.4876 241.8667 324.2304 C.ar           1 RES1               0.0000
     15 C15        119.9607 244.0877 322.6616 C.2            1 RES1               0.0000
     16 C16        114.5891 242.2084 325.2188 C.ar           1 RES1               0.0000
     17 O17        121.0021 243.6446 322.1859 O.2            1 RES1               0.0000
     18 H18        116.0229 246.6810 323.7153 H              1 RES1               0.0000
     19 H19        117.0995 246.8059 325.1181 H              1 RES1               0.0000
     20 H20        115.5759 245.3861 325.7677 H              1 RES1               0.0000
     21 H21        117.1197 242.4969 323.0095 H              1 RES1               0.0000
     22 H22        120.5785 243.9235 324.6010 H              1 RES1               0.0000
     23 H23        118.9987 244.3492 320.8832 H              1 RES1               0.0000
     24 H24        117.5666 248.5989 323.4799 H              1 RES1               0.0000
     25 H25        118.9570 247.5258 323.6217 H              1 RES1               0.0000
     26 H26        117.8868 247.4016 322.2273 H              1 RES1               0.0000
     27 H27        113.9224 243.7468 326.5445 H              1 RES1               0.0000
     28 H28        115.4623 240.8720 323.7978 H              1 RES1               0.0000
     29 H29        113.8573 241.4858 325.5645 H              1 RES1               0.0000
@<TRIPOS>BOND
    1    1    2 1     
    2    1    3 1     
    3    1    4 1     
    4    1    5 1     
    5    2    6 ar    
    6    2    7 ar    
    7    3    8 1     
    8    3    9 2     
    9    4   10 1     
   10    4   11 2     
   11    5   12 1     
   12    5   18 1     
   13    5   19 1     
   14    6   13 ar    
   15    6   20 1     
   16    7   14 ar    
   17    7   21 1     
   18    8   15 1     
   19    8   22 1     
   20   10   15 1     
   21   10   23 1     
   22   12   24 1     
   23   12   25 1     
   24   12   26 1     
   25   13   16 ar    
   26   13   27 1     
   27   14   16 ar    
   28   14   28 1     
   29   15   17 2     
   30   16   29 1     
@<TRIPOS>SUBSTRUCTURE
      1 RES1           1
@<TRIPOS>SET
DONOR_HYDROGENS      STATIC     ATOMS    <user>   **** ""
2 22 23
ATOM$RED        STATIC     ATOMS    COLORGROUP SYSTEM
2 22 23
@<TRIPOS>COMMENT
> <Gold.Version>
2022.3.0

> <Gold.Id.Protein>
unknown|5adg_clean|pdb

> <Gold.Protein.RotatedTorsions>
[ 5556 5551 5550 5547 ] final   78.97 input   60.01 | X-H torsion
[ 8542 8534 8535 8536 ] final   94.90 input   85.39 | X-H torsion
[ 12870 12858 12859 12860 ] final  -24.54 input  110.07 | X-H torsion
[ 12878 12869 12868 12866 ] final  -44.46 input   59.97 | X-H torsion
[ 12906 12897 12898 12899 ] final  150.23 input   35.92 | X-H torsion
[ 8434 8429 8430 8431 ] final -153.56 input   45.97 | X-H torsion
[ 8458 8451 8452 8453 ] final  150.73 input  104.20 | X-H torsion
[ 9002 8998 8999 9000 ] final  136.78 input   46.10 | X-H torsion
[ 9036 9022 9023 9024 ] final  -12.65 input   36.28 | X-H torsion
[ 9080 9068 9069 9070 ] final   91.96 input   95.83 | X-H torsion
[ 9088 9079 9078 9076 ] final  122.60 input   59.97 | X-H torsion
[ 9114 9106 9107 9108 ] final   53.69 input   84.45 | X-H torsion
[ 9192 9183 9184 9185 ] final -106.01 input  123.29 | X-H torsion
[ 3596 3592 3593 3594 ] final    9.95 input   84.32 | X-H torsion
[ 8984 8978 8979 8980 ] final   -8.25 input   29.51 | X-H torsion
[ 9140 9136 9137 9138 ] final  151.37 input  134.07 | X-H torsion
[ 11056 11049 11050 11051 ] final  115.18 input   56.26 | X-H torsion
[ 4893 4888 4887 4884 ] final  -21.59 input   60.00 | X-H torsion
[ 8988 8983 8982 8979 ] final   48.15 input   59.98 | X-H torsion
[ 3550 3542 3543 3544 ] final   79.15 input   80.85 | X-H torsion
[ 8488 8482 8483 8484 ] final   93.38 input   54.31 | X-H torsion
[ 8954 8943 8944 8945 ] final   14.95 input   47.77 | X-H torsion
[ 8514 8506 8507 8508 ] final  -46.36 input   67.56 | X-H torsion
[ 5580 5571 5572 5573 ] final  153.86 input   48.82 | X-H torsion
[ 3570 3563 3564 3565 ] final  -12.05 input  103.62 | X-H torsion
[ 9229 9212 9213 9214 ] final  112.56 input   91.82 | X-H torsion
[ 8576 8568 8569 8570 ] final  -40.76 input   67.63 | X-H torsion
[ 13465 1235 1234 1233 ] final  106.70 input    0.00 | X-H torsion
[ 13468 5549 5548 5547 ] final  119.44 input   -0.00 | X-H torsion
[ 13472 8509 8508 8507 ] final   92.54 input    0.00 | X-H torsion
[ 13479 12900 12899 12898 ] final  147.57 input   -0.00 | X-H torsion
[ 13492 8406 8405 8404 ] final  -35.95 input    0.00 | X-H torsion
[ 13496 8946 8945 8944 ] final   -3.16 input   -0.00 | X-H torsion
[ 13499 9001 9000 8999 ] final -167.24 input    0.00 | X-H torsion
[ 13502 9025 9024 9023 ] final -141.65 input    0.00 | X-H torsion
[ 13505 9071 9070 9069 ] final   27.03 input    0.00 | X-H torsion
[ 13510 9109 9108 9107 ] final   -8.35 input    0.00 | X-H torsion
[ 13521 8981 8980 8979 ] final  -38.56 input   -0.00 | X-H torsion
[ 13523 8351 8350 8349 ] final -111.80 input   -0.00 | X-H torsion
[ 13531 8454 8453 8452 ] final   -0.79 input    0.00 | X-H torsion
[ 13533 8432 8431 8430 ] final  152.47 input    0.00 | X-H torsion
[ 13535 3502 3501 3500 ] final   28.78 input    0.00 | X-H torsion
[ 13543 12828 12827 12826 ] final   96.16 input   -0.00 | X-H torsion

> <Gold.Protein.ActiveResidues>
 TRP311  MET341  HIS342  TRP414  ALA417  ARG419  CYS420  VAL421  GLY422  LEU460 
 SER462  SER482  GLN483  ARG486  ALA502  TYR567  GLY568  LEU569  PRO570  ALA571 
 VAL572  SER573  ASN574  MET575  LEU576  PHE589  SER590  GLY591  TRP592  TYR593 
 MET594  GLY595  GLU597  ILE598  ARG601  ASP602  ARG608  ILE653  VAL654  TRP683 
 PHE709  GLU710  TYR711  GLN712  ASP714  HEM750  H4B760 

> <Gold.Protein.RotatedAtoms>
  120.4351  252.4169  329.2478 H   0  0  0  0  0  0  0  0  0  0  0  0  # atno 3550 bound_to 3542
  122.4713  249.1465  328.6748 H   0  0  0  0  0  0  0  0  0  0  0  0  # atno 3570 bound_to 3563
  124.1396  249.1050  327.9736 H   0  0  0  0  0  0  0  0  0  0  0  0  # atno 3596 bound_to 3592
  124.9581  245.6353  318.4454 H   0  0  0  0  0  0  0  0  0  0  0  0  # atno 4893 bound_to 4888
  107.9635  243.2774  321.3554 H   0  0  0  0  0  0  0  0  0  0  0  0  # atno 5556 bound_to 5551
  108.9011  243.8053  319.8513 H   0  0  0  0  0  0  0  0  0  0  0  0  # atno 5580 bound_to 5571
  116.5730  242.3837  318.8336 H   0  0  0  0  0  0  0  0  0  0  0  0  # atno 8434 bound_to 8429
  115.1339  245.3567  319.5794 H   0  0  0  0  0  0  0  0  0  0  0  0  # atno 8458 bound_to 8451
  111.1338  246.4501  318.3965 H   0  0  0  0  0  0  0  0  0  0  0  0  # atno 8488 bound_to 8482
  110.3029  249.6267  318.1017 H   0  0  0  0  0  0  0  0  0  0  0  0  # atno 8514 bound_to 8506
  110.6957  251.0531  319.3217 H   0  0  0  0  0  0  0  0  0  0  0  0  # atno 8542 bound_to 8534
  111.2811  254.7145  319.8385 H   0  0  0  0  0  0  0  0  0  0  0  0  # atno 8576 bound_to 8568
  115.2131  248.2692  316.4966 H   0  0  0  0  0  0  0  0  0  0  0  0  # atno 8954 bound_to 8943
  119.4785  247.7352  317.0007 H   0  0  0  0  0  0  0  0  0  0  0  0  # atno 8984 bound_to 8978
  120.6852  244.7943  315.6427 H   0  0  0  0  0  0  0  0  0  0  0  0  # atno 8988 bound_to 8983
  120.3248  245.5546  319.3307 H   0  0  0  0  0  0  0  0  0  0  0  0  # atno 9002 bound_to 8998
  122.2806  243.2888  321.3656 H   0  0  0  0  0  0  0  0  0  0  0  0  # atno 9036 bound_to 9022
  122.2627  239.0604  322.3325 H   0  0  0  0  0  0  0  0  0  0  0  0  # atno 9080 bound_to 9068
  114.9906  238.8706  321.9626 H   0  0  0  0  0  0  0  0  0  0  0  0  # atno 9088 bound_to 9079
  120.7945  240.1971  326.4614 H   0  0  0  0  0  0  0  0  0  0  0  0  # atno 9114 bound_to 9106
  123.1964  237.3601  328.5151 H   0  0  0  0  0  0  0  0  0  0  0  0  # atno 9140 bound_to 9136
  118.0796  238.5649  330.9988 H   0  0  0  0  0  0  0  0  0  0  0  0  # atno 9192 bound_to 9183
  117.5265  236.7943  328.1686 H   0  0  0  0  0  0  0  0  0  0  0  0  # atno 9229 bound_to 9212
  125.6258  238.6380  325.3694 H   0  0  0  0  0  0  0  0  0  0  0  0  # atno 11056 bound_to 11049
  109.6993  256.7854  323.9225 H   0  0  0  0  0  0  0  0  0  0  0  0  # atno 12870 bound_to 12858
  110.9099  250.9725  329.1933 H   0  0  0  0  0  0  0  0  0  0  0  0  # atno 12878 bound_to 12869
  107.3876  255.3605  322.6815 H   0  0  0  0  0  0  0  0  0  0  0  0  # atno 12906 bound_to 12897
  109.0492  253.7030  331.3499 LP  0  0  0  0  0  0  0  0  0  0  0  0  # atno 13465 bound_to 1235
  109.8337  254.5010  332.6719 LP  0  0  0  0  0  0  0  0  0  0  0  0  # atno 13466 bound_to 1235
  110.3464  245.5463  320.3306 LP  0  0  0  0  0  0  0  0  0  0  0  0  # atno 13468 bound_to 5549
  109.6685  246.6689  319.1991 LP  0  0  0  0  0  0  0  0  0  0  0  0  # atno 13469 bound_to 5549
  106.7606  242.9857  320.2986 LP  0  0  0  0  0  0  0  0  0  0  0  0  # atno 13470 bound_to 5551
  106.4344  243.1283  321.8923 LP  0  0  0  0  0  0  0  0  0  0  0  0  # atno 13471 bound_to 5551
  107.6407  251.8725  321.1694 LP  0  0  0  0  0  0  0  0  0  0  0  0  # atno 13472 bound_to 8509
  107.3085  252.6571  319.6614 LP  0  0  0  0  0  0  0  0  0  0  0  0  # atno 13473 bound_to 8509
  109.0145  251.4746  319.5167 LP  0  0  0  0  0  0  0  0  0  0  0  0  # atno 13474 bound_to 8534
  110.1257  255.9759  325.4106 LP  0  0  0  0  0  0  0  0  0  0  0  0  # atno 13475 bound_to 12858
  111.3609  252.3189  329.9885 LP  0  0  0  0  0  0  0  0  0  0  0  0  # atno 13476 bound_to 12869
  112.1712  251.8468  328.6517 LP  0  0  0  0  0  0  0  0  0  0  0  0  # atno 13477 bound_to 12869
  106.2944  254.5938  323.8091 LP  0  0  0  0  0  0  0  0  0  0  0  0  # atno 13478 bound_to 12897
  103.6734  253.1028  323.3153 LP  0  0  0  0  0  0  0  0  0  0  0  0  # atno 13479 bound_to 12900
  105.1769  253.1256  322.4557 LP  0  0  0  0  0  0  0  0  0  0  0  0  # atno 13480 bound_to 12900
  118.4278  243.3204  319.8877 LP  0  0  0  0  0  0  0  0  0  0  0  0  # atno 13492 bound_to 8406
  117.9437  243.7606  318.2840 LP  0  0  0  0  0  0  0  0  0  0  0  0  # atno 13493 bound_to 8406
  114.8409  242.3465  319.0527 LP  0  0  0  0  0  0  0  0  0  0  0  0  # atno 13494 bound_to 8429
  114.4959  245.4881  317.9546 LP  0  0  0  0  0  0  0  0  0  0  0  0  # atno 13495 bound_to 8451
  115.7657  247.2112  317.6649 LP  0  0  0  0  0  0  0  0  0  0  0  0  # atno 13496 bound_to 8946
  116.8790  245.9349  318.0276 LP  0  0  0  0  0  0  0  0  0  0  0  0  # atno 13497 bound_to 8946
  120.4535  244.2263  318.1998 LP  0  0  0  0  0  0  0  0  0  0  0  0  # atno 13498 bound_to 8998
  122.1473  241.2989  318.7629 LP  0  0  0  0  0  0  0  0  0  0  0  0  # atno 13499 bound_to 9001
  122.1368  242.6335  317.6589 LP  0  0  0  0  0  0  0  0  0  0  0  0  # atno 13500 bound_to 9001
  123.1861  242.9795  319.9075 LP  0  0  0  0  0  0  0  0  0  0  0  0  # atno 13501 bound_to 9022
  122.4168  242.0645  324.1213 LP  0  0  0  0  0  0  0  0  0  0  0  0  # atno 13502 bound_to 9025
  121.8053  242.9373  322.7559 LP  0  0  0  0  0  0  0  0  0  0  0  0  # atno 13503 bound_to 9025
  122.1366  240.7899  322.5619 LP  0  0  0  0  0  0  0  0  0  0  0  0  # atno 13504 bound_to 9068
  123.8812  239.2057  324.3255 LP  0  0  0  0  0  0  0  0  0  0  0  0  # atno 13505 bound_to 9071
  123.9103  238.7527  325.9970 LP  0  0  0  0  0  0  0  0  0  0  0  0  # atno 13506 bound_to 9071
  114.5989  238.9318  323.5411 LP  0  0  0  0  0  0  0  0  0  0  0  0  # atno 13507 bound_to 9079
  114.7674  237.4895  322.7942 LP  0  0  0  0  0  0  0  0  0  0  0  0  # atno 13508 bound_to 9079
  122.3664  240.0979  325.6993 LP  0  0  0  0  0  0  0  0  0  0  0  0  # atno 13509 bound_to 9106
  119.8531  239.3560  327.9460 LP  0  0  0  0  0  0  0  0  0  0  0  0  # atno 13510 bound_to 9109
  119.7633  237.6758  328.3567 LP  0  0  0  0  0  0  0  0  0  0  0  0  # atno 13511 bound_to 9109
  118.7363  237.9479  329.5037 LP  0  0  0  0  0  0  0  0  0  0  0  0  # atno 13512 bound_to 9183
  124.0263  247.4326  328.4539 LP  0  0  0  0  0  0  0  0  0  0  0  0  # atno 13519 bound_to 3592
  117.9368  247.1122  316.4695 LP  0  0  0  0  0  0  0  0  0  0  0  0  # atno 13520 bound_to 8978
  121.4158  246.5129  316.3962 LP  0  0  0  0  0  0  0  0  0  0  0  0  # atno 13521 bound_to 8981
  122.1586  246.7763  317.9386 LP  0  0  0  0  0  0  0  0  0  0  0  0  # atno 13522 bound_to 8981
  119.8164  237.7621  319.9976 LP  0  0  0  0  0  0  0  0  0  0  0  0  # atno 13523 bound_to 8351
  121.1146  237.2325  318.9807 LP  0  0  0  0  0  0  0  0  0  0  0  0  # atno 13524 bound_to 8351
  121.6763  238.2230  328.6068 LP  0  0  0  0  0  0  0  0  0  0  0  0  # atno 13525 bound_to 9136
  125.8743  236.9656  325.8039 LP  0  0  0  0  0  0  0  0  0  0  0  0  # atno 13526 bound_to 11049
  125.0648  247.0121  319.3064 LP  0  0  0  0  0  0  0  0  0  0  0  0  # atno 13527 bound_to 4888
  126.3570  246.4662  318.4704 LP  0  0  0  0  0  0  0  0  0  0  0  0  # atno 13528 bound_to 4888
  119.4902  245.4728  314.7712 LP  0  0  0  0  0  0  0  0  0  0  0  0  # atno 13529 bound_to 8983
  119.6884  243.8519  314.7675 LP  0  0  0  0  0  0  0  0  0  0  0  0  # atno 13530 bound_to 8983
  114.5308  248.2236  318.1163 LP  0  0  0  0  0  0  0  0  0  0  0  0  # atno 13531 bound_to 8454
  113.2232  248.8398  317.1621 LP  0  0  0  0  0  0  0  0  0  0  0  0  # atno 13532 bound_to 8454
  112.3296  244.6158  317.9985 LP  0  0  0  0  0  0  0  0  0  0  0  0  # atno 13533 bound_to 8432
  113.1821  243.9929  316.6255 LP  0  0  0  0  0  0  0  0  0  0  0  0  # atno 13534 bound_to 8432
  118.1800  249.6272  330.8995 LP  0  0  0  0  0  0  0  0  0  0  0  0  # atno 13535 bound_to 3502
  119.8327  249.2484  330.5458 LP  0  0  0  0  0  0  0  0  0  0  0  0  # atno 13536 bound_to 3502
  119.5019  251.1685  330.0352 LP  0  0  0  0  0  0  0  0  0  0  0  0  # atno 13537 bound_to 3542
  112.2094  247.7963  318.6784 LP  0  0  0  0  0  0  0  0  0  0  0  0  # atno 13538 bound_to 8482
  115.5431  249.5643  315.3717 LP  0  0  0  0  0  0  0  0  0  0  0  0  # atno 13539 bound_to 8943
  109.5472  248.2095  318.7850 LP  0  0  0  0  0  0  0  0  0  0  0  0  # atno 13541 bound_to 8506
  108.2773  243.9688  318.2241 LP  0  0  0  0  0  0  0  0  0  0  0  0  # atno 13542 bound_to 5571
  110.6712  254.8229  322.3980 LP  0  0  0  0  0  0  0  0  0  0  0  0  # atno 13543 bound_to 12828
  109.6933  256.1009  321.7573 LP  0  0  0  0  0  0  0  0  0  0  0  0  # atno 13544 bound_to 12828

> <Gold.Score>
     Fitness  S(hb_ext) S(vdw_ext)  S(hb_int)    S(int)      intcor
     42.38       1.93      29.82       0.00      -0.55      -0.76

> <Gold.Goldscore.Fitness>
42.3822

> <Gold.Goldscore.Internal.Vdw>
-0.6891

> <Gold.Goldscore.Internal.Torsion>
-0.6166

> <Gold.Goldscore.External.Vdw>
29.8158

> <Gold.Goldscore.Internal.HBond>
0.0000

> <Gold.Goldscore.External.HBond>
1.9326

> <Gold.Goldscore.Internal.Correction>
-0.7585

> <Gold.Goldscore.Hbonds>
donor molecule, donor type, donor heavy atom, donor atom, acceptor molecule, acceptor atom, score
      P1  H  8451  8458       L1    11  0.57
      P1  H  9022  9036       L1    17  0.36
      L1  H    10    23       P1  8406  0.04

> <Gold.Goldscore.Internal.Vdw.Weighted>
-0.6891

> <Gold.Goldscore.Internal.Torsion.Weighted>
-0.6166

> <Gold.Goldscore.External.Vdw.Weighted>
40.9967

> <Gold.Goldscore.Internal.HBond.Weighted>
0.0000

> <Gold.Goldscore.External.HBond.Weighted>
1.9326

> <Gold.Goldscore.Internal.Correction.Weighted>
-0.7585

> <Gold.Rescore>
     Score     S(PLP)   S(hbond)     S(cho)   S(metal)  DE(clash)   DE(tors)     intcor
     37.58     -33.28       2.30       0.00       0.00       0.00       1.29       ----

> <Gold.PLP.Fitness>
37.5804

> <Gold.PLP.PLP>
-33.2802

> <Gold.PLP.part.hbond>
-4.0000

> <Gold.PLP.part.metal>
0.0000

> <Gold.PLP.part.buried>
11.2060

> <Gold.PLP.part.nonpolar>
-44.3189

> <Gold.PLP.part.repulsive>
1.8756

> <Gold.PLP.ligand.clash>
0.0000

> <Gold.PLP.ligand.torsion>
1.2939

> <Gold.PLP.Chemscore.Hbond>
2.2960

> <Gold.PLP.Chemscore.CHOScore>
0.0000

> <Gold.PLP.Chemscore.Metal>
0.0000

> <Gold.Chemscore.Hbonds>
donor molecule, donor type, donor heavy atom, donor atom, acceptor molecule, acceptor atom, score
      L1  H    10    23       P1  8406  0.16
      P1  H  9022  9036       L1    17  0.84

> <Gold.PLP.Chemscore.Internal.Correction>
   9.000000E+99

#       Name:                CT1002167954
#       Creating user name   hitesit
#       Creation time:       Sun Apr 16 22:52:38 2023


#       File generated by GOLD software.
#

@<TRIPOS>MOLECULE
CT1002167954|ligand_prepared|mol2|1|dock4
    29    30     1
SMALL
NO_CHARGES


@<TRIPOS>ATOM
      1 C1         112.0392 246.1595 325.3606 C.3            1 RES1               0.0000
      2 C2         113.4987 245.8251 324.9909 C.ar           1 RES1               0.0000
      3 C3         112.1064 247.2380 326.4380 C.2            1 RES1               0.0000
      4 C4         111.3648 246.6108 324.0698 C.2            1 RES1               0.0000
      5 C5         111.2447 244.9560 325.9193 C.3            1 RES1               0.0000
      6 C6         114.5155 246.7489 325.2133 C.ar           1 RES1               0.0000
      7 C7         113.8436 244.5982 324.4302 C.ar           1 RES1               0.0000
      8 N8         111.7770 248.5116 326.0784 N.am           1 RES1               0.0000
      9 O9         112.4809 246.9821 327.5758 O.2            1 RES1               0.0000
     10 N10        110.9464 247.9129 323.9852 N.am           1 RES1               0.0000
     11 O11        111.2069 245.8550 323.1190 O.2            1 RES1               0.0000
     12 C12        109.8809 245.3284 326.4792 C.3            1 RES1               0.0000
     13 C13        115.8299 246.4558 324.8897 C.ar           1 RES1               0.0000
     14 C14        115.1587 244.3072 324.1071 C.ar           1 RES1               0.0000
     15 C15        111.1495 248.8919 324.9194 C.2            1 RES1               0.0000
     16 C16        116.1525 245.2348 324.3368 C.ar           1 RES1               0.0000
     17 O17        110.7918 250.0536 324.7479 O.2            1 RES1               0.0000
     18 H18        111.1082 244.2201 325.1173 H              1 RES1               0.0000
     19 H19        111.8346 244.4813 326.7130 H              1 RES1               0.0000
     20 H20        114.2804 247.7160 325.6453 H              1 RES1               0.0000
     21 H21        113.0782 243.8536 324.2396 H              1 RES1               0.0000
     22 H22        112.0197 249.2496 326.7317 H              1 RES1               0.0000
     23 H23        110.4361 248.1769 323.1484 H              1 RES1               0.0000
     24 H24        109.3659 244.4479 326.8578 H              1 RES1               0.0000
     25 H25        109.9805 246.0401 327.2961 H              1 RES1               0.0000
     26 H26        109.2584 245.7804 325.7098 H              1 RES1               0.0000
     27 H27        116.6081 247.1898 325.0712 H              1 RES1               0.0000
     28 H28        115.4079 243.3452 323.6716 H              1 RES1               0.0000
     29 H29        117.1822 245.0053 324.0837 H              1 RES1               0.0000
@<TRIPOS>BOND
    1    1    2 1     
    2    1    3 1     
    3    1    4 1     
    4    1    5 1     
    5    2    6 ar    
    6    2    7 ar    
    7    3    8 1     
    8    3    9 2     
    9    4   10 1     
   10    4   11 2     
   11    5   12 1     
   12    5   18 1     
   13    5   19 1     
   14    6   13 ar    
   15    6   20 1     
   16    7   14 ar    
   17    7   21 1     
   18    8   15 1     
   19    8   22 1     
   20   10   15 1     
   21   10   23 1     
   22   12   24 1     
   23   12   25 1     
   24   12   26 1     
   25   13   16 ar    
   26   13   27 1     
   27   14   16 ar    
   28   14   28 1     
   29   15   17 2     
   30   16   29 1     
@<TRIPOS>SUBSTRUCTURE
      1 RES1           1
@<TRIPOS>SET
DONOR_HYDROGENS      STATIC     ATOMS    <user>   **** ""
2 22 23
ATOM$RED        STATIC     ATOMS    COLORGROUP SYSTEM
2 22 23
@<TRIPOS>COMMENT
> <Gold.Version>
2022.3.0

> <Gold.Id.Protein>
unknown|5adg_clean|pdb

> <Gold.Protein.RotatedTorsions>
[ 5556 5551 5550 5547 ] final   -4.73 input   60.01 | X-H torsion
[ 8542 8534 8535 8536 ] final  -39.53 input   85.39 | X-H torsion
[ 12870 12858 12859 12860 ] final -109.11 input  110.07 | X-H torsion
[ 12878 12869 12868 12866 ] final   49.89 input   59.97 | X-H torsion
[ 12906 12897 12898 12899 ] final -164.82 input   35.92 | X-H torsion
[ 8434 8429 8430 8431 ] final  -44.85 input   45.97 | X-H torsion
[ 8458 8451 8452 8453 ] final  -21.94 input  104.20 | X-H torsion
[ 9002 8998 8999 9000 ] final   -1.26 input   46.10 | X-H torsion
[ 9036 9022 9023 9024 ] final  -67.34 input   36.28 | X-H torsion
[ 9080 9068 9069 9070 ] final  101.96 input   95.83 | X-H torsion
[ 9088 9079 9078 9076 ] final  129.43 input   59.97 | X-H torsion
[ 9114 9106 9107 9108 ] final   38.44 input   84.45 | X-H torsion
[ 9192 9183 9184 9185 ] final -157.62 input  123.29 | X-H torsion
[ 3596 3592 3593 3594 ] final  133.85 input   84.32 | X-H torsion
[ 8984 8978 8979 8980 ] final  128.31 input   29.51 | X-H torsion
[ 9140 9136 9137 9138 ] final  139.85 input  134.07 | X-H torsion
[ 11056 11049 11050 11051 ] final -105.32 input   56.26 | X-H torsion
[ 4893 4888 4887 4884 ] final   57.47 input   60.00 | X-H torsion
[ 8988 8983 8982 8979 ] final  -39.25 input   59.98 | X-H torsion
[ 3550 3542 3543 3544 ] final   -7.60 input   80.85 | X-H torsion
[ 8488 8482 8483 8484 ] final   22.71 input   54.31 | X-H torsion
[ 8954 8943 8944 8945 ] final  165.91 input   47.77 | X-H torsion
[ 8514 8506 8507 8508 ] final  131.40 input   67.56 | X-H torsion
[ 5580 5571 5572 5573 ] final -176.40 input   48.82 | X-H torsion
[ 3570 3563 3564 3565 ] final -169.23 input  103.62 | X-H torsion
[ 9229 9212 9213 9214 ] final  -51.48 input   91.82 | X-H torsion
[ 8576 8568 8569 8570 ] final  152.25 input   67.63 | X-H torsion
[ 13465 1235 1234 1233 ] final   28.86 input    0.00 | X-H torsion
[ 13468 5549 5548 5547 ] final  116.47 input   -0.00 | X-H torsion
[ 13472 8509 8508 8507 ] final -162.22 input    0.00 | X-H torsion
[ 13479 12900 12899 12898 ] final -110.02 input   -0.00 | X-H torsion
[ 13492 8406 8405 8404 ] final   35.15 input    0.00 | X-H torsion
[ 13496 8946 8945 8944 ] final  142.80 input   -0.00 | X-H torsion
[ 13499 9001 9000 8999 ] final  121.67 input    0.00 | X-H torsion
[ 13502 9025 9024 9023 ] final  104.67 input    0.00 | X-H torsion
[ 13505 9071 9070 9069 ] final   27.10 input    0.00 | X-H torsion
[ 13510 9109 9108 9107 ] final -119.11 input    0.00 | X-H torsion
[ 13521 8981 8980 8979 ] final   31.38 input   -0.00 | X-H torsion
[ 13523 8351 8350 8349 ] final -168.46 input   -0.00 | X-H torsion
[ 13531 8454 8453 8452 ] final   39.71 input    0.00 | X-H torsion
[ 13533 8432 8431 8430 ] final -128.29 input    0.00 | X-H torsion
[ 13535 3502 3501 3500 ] final  -19.98 input    0.00 | X-H torsion
[ 13543 12828 12827 12826 ] final  123.65 input   -0.00 | X-H torsion

> <Gold.Protein.ActiveResidues>
 TRP311  MET341  HIS342  TRP414  ALA417  ARG419  CYS420  VAL421  GLY422  LEU460 
 SER462  SER482  GLN483  ARG486  ALA502  TYR567  GLY568  LEU569  PRO570  ALA571 
 VAL572  SER573  ASN574  MET575  LEU576  PHE589  SER590  GLY591  TRP592  TYR593 
 MET594  GLY595  GLU597  ILE598  ARG601  ASP602  ARG608  ILE653  VAL654  TRP683 
 PHE709  GLU710  TYR711  GLN712  ASP714  HEM750  H4B760 

> <Gold.Protein.RotatedAtoms>
  120.5930  251.7760  330.2627 H   0  0  0  0  0  0  0  0  0  0  0  0  # atno 3550 bound_to 3542
  121.8085  249.2423  330.2881 H   0  0  0  0  0  0  0  0  0  0  0  0  # atno 3570 bound_to 3563
  123.4833  247.7059  327.9035 H   0  0  0  0  0  0  0  0  0  0  0  0  # atno 3596 bound_to 3592
  126.0907  245.9234  318.2128 H   0  0  0  0  0  0  0  0  0  0  0  0  # atno 4893 bound_to 4888
  107.3404  243.0672  320.2928 H   0  0  0  0  0  0  0  0  0  0  0  0  # atno 5556 bound_to 5551
  108.9752  244.2421  319.7407 H   0  0  0  0  0  0  0  0  0  0  0  0  # atno 5580 bound_to 5571
  115.4903  242.8717  319.6343 H   0  0  0  0  0  0  0  0  0  0  0  0  # atno 8434 bound_to 8429
  114.5313  245.5963  317.9264 H   0  0  0  0  0  0  0  0  0  0  0  0  # atno 8458 bound_to 8451
  110.9203  247.2654  318.9703 H   0  0  0  0  0  0  0  0  0  0  0  0  # atno 8488 bound_to 8482
  109.5592  248.2027  318.8197 H   0  0  0  0  0  0  0  0  0  0  0  0  # atno 8514 bound_to 8506
  109.2599  251.6801  318.9217 H   0  0  0  0  0  0  0  0  0  0  0  0  # atno 8542 bound_to 8534
  109.5709  255.0332  320.1297 H   0  0  0  0  0  0  0  0  0  0  0  0  # atno 8576 bound_to 8568
  115.4931  249.7806  315.7495 H   0  0  0  0  0  0  0  0  0  0  0  0  # atno 8954 bound_to 8943
  118.3824  247.0397  316.0072 H   0  0  0  0  0  0  0  0  0  0  0  0  # atno 8984 bound_to 8978
  119.8752  245.6387  315.0915 H   0  0  0  0  0  0  0  0  0  0  0  0  # atno 8988 bound_to 8983
  120.2444  244.0052  318.7480 H   0  0  0  0  0  0  0  0  0  0  0  0  # atno 9002 bound_to 8998
  121.8611  243.1514  320.6915 H   0  0  0  0  0  0  0  0  0  0  0  0  # atno 9036 bound_to 9022
  122.1239  239.0728  322.2654 H   0  0  0  0  0  0  0  0  0  0  0  0  # atno 9080 bound_to 9068
  115.0007  238.7690  321.9173 H   0  0  0  0  0  0  0  0  0  0  0  0  # atno 9088 bound_to 9079
  120.7848  239.9700  326.3993 H   0  0  0  0  0  0  0  0  0  0  0  0  # atno 9114 bound_to 9106
  123.2081  237.3986  328.6892 H   0  0  0  0  0  0  0  0  0  0  0  0  # atno 9140 bound_to 9136
  118.5237  239.0496  330.6040 H   0  0  0  0  0  0  0  0  0  0  0  0  # atno 9192 bound_to 9183
  116.2054  237.1941  329.2691 H   0  0  0  0  0  0  0  0  0  0  0  0  # atno 9229 bound_to 9212
  126.3083  237.1338  325.4183 H   0  0  0  0  0  0  0  0  0  0  0  0  # atno 11056 bound_to 11049
  110.3692  255.8308  324.1496 H   0  0  0  0  0  0  0  0  0  0  0  0  # atno 12870 bound_to 12858
  111.9848  251.4980  328.5186 H   0  0  0  0  0  0  0  0  0  0  0  0  # atno 12878 bound_to 12869
  107.2443  255.7551  323.2117 H   0  0  0  0  0  0  0  0  0  0  0  0  # atno 12906 bound_to 12897
  109.7260  253.2883  332.0941 LP  0  0  0  0  0  0  0  0  0  0  0  0  # atno 13465 bound_to 1235
  109.1569  254.9157  331.9277 LP  0  0  0  0  0  0  0  0  0  0  0  0  # atno 13466 bound_to 1235
  110.3199  245.5640  320.3622 LP  0  0  0  0  0  0  0  0  0  0  0  0  # atno 13468 bound_to 5549
  109.6949  246.6512  319.1675 LP  0  0  0  0  0  0  0  0  0  0  0  0  # atno 13469 bound_to 5549
  106.1414  243.0294  321.3927 LP  0  0  0  0  0  0  0  0  0  0  0  0  # atno 13470 bound_to 5551
  107.6808  243.2961  321.8677 LP  0  0  0  0  0  0  0  0  0  0  0  0  # atno 13471 bound_to 5551
  107.9947  252.9571  320.3995 LP  0  0  0  0  0  0  0  0  0  0  0  0  # atno 13472 bound_to 8509
  106.9546  251.5725  320.4313 LP  0  0  0  0  0  0  0  0  0  0  0  0  # atno 13473 bound_to 8509
  110.4344  250.8546  319.9122 LP  0  0  0  0  0  0  0  0  0  0  0  0  # atno 13474 bound_to 8534
  109.4704  256.9099  325.1884 LP  0  0  0  0  0  0  0  0  0  0  0  0  # atno 13475 bound_to 12858
  110.7616  251.1575  329.5367 LP  0  0  0  0  0  0  0  0  0  0  0  0  # atno 13476 bound_to 12869
  111.6885  252.4791  329.7828 LP  0  0  0  0  0  0  0  0  0  0  0  0  # atno 13477 bound_to 12869
  106.4341  254.2087  323.2918 LP  0  0  0  0  0  0  0  0  0  0  0  0  # atno 13478 bound_to 12897
  104.1891  252.8622  322.0913 LP  0  0  0  0  0  0  0  0  0  0  0  0  # atno 13479 bound_to 12900
  104.6611  253.3663  323.6797 LP  0  0  0  0  0  0  0  0  0  0  0  0  # atno 13480 bound_to 12900
  118.7095  242.8522  319.0418 LP  0  0  0  0  0  0  0  0  0  0  0  0  # atno 13492 bound_to 8406
  117.6619  244.2287  319.1299 LP  0  0  0  0  0  0  0  0  0  0  0  0  # atno 13493 bound_to 8406
  115.9037  241.8675  318.2667 LP  0  0  0  0  0  0  0  0  0  0  0  0  # atno 13494 bound_to 8429
  115.0790  245.2563  319.5539 LP  0  0  0  0  0  0  0  0  0  0  0  0  # atno 13495 bound_to 8451
  116.6613  245.8205  317.5842 LP  0  0  0  0  0  0  0  0  0  0  0  0  # atno 13496 bound_to 8946
  115.9833  247.3257  318.1083 LP  0  0  0  0  0  0  0  0  0  0  0  0  # atno 13497 bound_to 8946
  120.5316  245.7307  318.7656 LP  0  0  0  0  0  0  0  0  0  0  0  0  # atno 13498 bound_to 8998
  122.9547  241.6796  318.2972 LP  0  0  0  0  0  0  0  0  0  0  0  0  # atno 13499 bound_to 9001
  121.3294  242.2528  318.1247 LP  0  0  0  0  0  0  0  0  0  0  0  0  # atno 13500 bound_to 9001
  123.6007  243.1153  320.5737 LP  0  0  0  0  0  0  0  0  0  0  0  0  # atno 13501 bound_to 9022
  121.2498  242.4605  323.3572 LP  0  0  0  0  0  0  0  0  0  0  0  0  # atno 13502 bound_to 9025
  122.9723  242.5413  323.5200 LP  0  0  0  0  0  0  0  0  0  0  0  0  # atno 13503 bound_to 9025
  122.2714  240.7778  322.6271 LP  0  0  0  0  0  0  0  0  0  0  0  0  # atno 13504 bound_to 9068
  123.8816  239.2067  324.3258 LP  0  0  0  0  0  0  0  0  0  0  0  0  # atno 13505 bound_to 9071
  123.9099  238.7517  325.9967 LP  0  0  0  0  0  0  0  0  0  0  0  0  # atno 13506 bound_to 9071
  114.6155  239.0234  323.4780 LP  0  0  0  0  0  0  0  0  0  0  0  0  # atno 13507 bound_to 9079
  114.7406  237.5002  322.9029 LP  0  0  0  0  0  0  0  0  0  0  0  0  # atno 13508 bound_to 9079
  122.3758  240.3180  325.7596 LP  0  0  0  0  0  0  0  0  0  0  0  0  # atno 13509 bound_to 9106
  119.7565  238.4120  329.0096 LP  0  0  0  0  0  0  0  0  0  0  0  0  # atno 13510 bound_to 9109
  119.8598  238.6198  327.2932 LP  0  0  0  0  0  0  0  0  0  0  0  0  # atno 13511 bound_to 9109
  118.3001  237.4717  329.8915 LP  0  0  0  0  0  0  0  0  0  0  0  0  # atno 13512 bound_to 9183
  124.6757  248.8169  328.5233 LP  0  0  0  0  0  0  0  0  0  0  0  0  # atno 13519 bound_to 3592
  119.0154  247.7966  317.4472 LP  0  0  0  0  0  0  0  0  0  0  0  0  # atno 13520 bound_to 8978
  121.1840  247.2485  317.0212 LP  0  0  0  0  0  0  0  0  0  0  0  0  # atno 13521 bound_to 8981
  122.3905  246.0407  317.3137 LP  0  0  0  0  0  0  0  0  0  0  0  0  # atno 13522 bound_to 8981
  120.0305  238.2349  319.3603 LP  0  0  0  0  0  0  0  0  0  0  0  0  # atno 13523 bound_to 8351
  120.9006  236.7596  319.6181 LP  0  0  0  0  0  0  0  0  0  0  0  0  # atno 13524 bound_to 8351
  121.6649  238.1858  328.4385 LP  0  0  0  0  0  0  0  0  0  0  0  0  # atno 13525 bound_to 9136
  125.2040  238.4430  325.7559 LP  0  0  0  0  0  0  0  0  0  0  0  0  # atno 13526 bound_to 11049
  124.5894  246.0167  318.8335 LP  0  0  0  0  0  0  0  0  0  0  0  0  # atno 13527 bound_to 4888
  125.6916  247.1714  319.1776 LP  0  0  0  0  0  0  0  0  0  0  0  0  # atno 13528 bound_to 4888
  119.3569  244.1974  314.5419 LP  0  0  0  0  0  0  0  0  0  0  0  0  # atno 13529 bound_to 8983
  120.6376  244.2769  315.5520 LP  0  0  0  0  0  0  0  0  0  0  0  0  # atno 13530 bound_to 8983
  114.4841  247.9151  317.6045 LP  0  0  0  0  0  0  0  0  0  0  0  0  # atno 13531 bound_to 8454
  113.2699  249.1483  317.6740 LP  0  0  0  0  0  0  0  0  0  0  0  0  # atno 13532 bound_to 8454
  112.6617  245.1338  317.0813 LP  0  0  0  0  0  0  0  0  0  0  0  0  # atno 13533 bound_to 8432
  112.8500  243.4750  317.5427 LP  0  0  0  0  0  0  0  0  0  0  0  0  # atno 13534 bound_to 8432
  118.6249  249.7009  331.4543 LP  0  0  0  0  0  0  0  0  0  0  0  0  # atno 13535 bound_to 3502
  119.3879  249.1747  329.9911 LP  0  0  0  0  0  0  0  0  0  0  0  0  # atno 13536 bound_to 3502
  119.3470  251.7973  329.0394 LP  0  0  0  0  0  0  0  0  0  0  0  0  # atno 13537 bound_to 3542
  112.4188  246.9965  318.1154 LP  0  0  0  0  0  0  0  0  0  0  0  0  # atno 13538 bound_to 8482
  115.2689  248.0847  316.1031 LP  0  0  0  0  0  0  0  0  0  0  0  0  # atno 13539 bound_to 8943
  110.2786  249.6099  318.0789 LP  0  0  0  0  0  0  0  0  0  0  0  0  # atno 13541 bound_to 8506
  108.2057  243.5463  318.3311 LP  0  0  0  0  0  0  0  0  0  0  0  0  # atno 13542 bound_to 5571
  110.2872  254.7096  322.4936 LP  0  0  0  0  0  0  0  0  0  0  0  0  # atno 13543 bound_to 12828
  110.0773  256.2142  321.6618 LP  0  0  0  0  0  0  0  0  0  0  0  0  # atno 13544 bound_to 12828

> <Gold.Score>
     Fitness  S(hb_ext) S(vdw_ext)  S(hb_int)    S(int)      intcor
     41.32      11.66      22.29       0.00      -0.99      -0.76

> <Gold.Goldscore.Fitness>
41.3211

> <Gold.Goldscore.Internal.Vdw>
-1.2568

> <Gold.Goldscore.Internal.Torsion>
-0.4929

> <Gold.Goldscore.External.Vdw>
22.2907

> <Gold.Goldscore.Internal.HBond>
0.0000

> <Gold.Goldscore.External.HBond>
11.6626

> <Gold.Goldscore.Internal.Correction>
-0.7585

> <Gold.Goldscore.Hbonds>
donor molecule, donor type, donor heavy atom, donor atom, acceptor molecule, acceptor atom, score
      L1  H     8    22       P1 13316  0.98
      L1  H    10    23       P1  8513  0.96

> <Gold.Goldscore.Internal.Vdw.Weighted>
-1.2568

> <Gold.Goldscore.Internal.Torsion.Weighted>
-0.4929

> <Gold.Goldscore.External.Vdw.Weighted>
30.6497

> <Gold.Goldscore.Internal.HBond.Weighted>
0.0000

> <Gold.Goldscore.External.HBond.Weighted>
11.6626

> <Gold.Goldscore.Internal.Correction.Weighted>
-0.7585

> <Gold.Rescore>
     Score     S(PLP)   S(hbond)     S(cho)   S(metal)  DE(clash)   DE(tors)     intcor
     34.43     -31.50       1.70       0.00       0.00       0.34       0.92       ----

> <Gold.PLP.Fitness>
34.4350

> <Gold.PLP.PLP>
-31.4965

> <Gold.PLP.part.hbond>
-2.0360

> <Gold.PLP.part.metal>
0.0000

> <Gold.PLP.part.buried>
-5.3755

> <Gold.PLP.part.nonpolar>
-29.0119

> <Gold.PLP.part.repulsive>
4.5567

> <Gold.PLP.ligand.clash>
0.3380

> <Gold.PLP.ligand.torsion>
0.9190

> <Gold.PLP.Chemscore.Hbond>
1.7048

> <Gold.PLP.Chemscore.CHOScore>
0.0000

> <Gold.PLP.Chemscore.Metal>
0.0000

> <Gold.Chemscore.Hbonds>
donor molecule, donor type, donor heavy atom, donor atom, acceptor molecule, acceptor atom, score
      L1  H     8    22       P1 13316  0.46
      L1  H    10    23       P1  8513  0.60

> <Gold.PLP.Chemscore.Internal.Correction>
   9.000000E+99

#       Name:                CT1002167954
#       Creating user name   hitesit
#       Creation time:       Sun Apr 16 22:52:40 2023


#       File generated by GOLD software.
#

@<TRIPOS>MOLECULE
CT1002167954|ligand_prepared|mol2|1|dock6
    29    30     1
SMALL
NO_CHARGES


@<TRIPOS>ATOM
      1 C1         111.3754 246.2284 325.4276 C.3            1 RES1               0.0000
      2 C2         112.7757 245.6267 325.1916 C.ar           1 RES1               0.0000
      3 C3         111.5566 247.3480 326.4484 C.2            1 RES1               0.0000
      4 C4         110.8797 246.7023 324.0658 C.2            1 RES1               0.0000
      5 C5         110.3467 245.2172 325.9851 C.3            1 RES1               0.0000
      6 C6         112.9341 244.2594 324.9861 C.ar           1 RES1               0.0000
      7 C7         113.9163 246.4251 325.1741 C.ar           1 RES1               0.0000
      8 N8         111.4801 248.6328 325.9973 N.am           1 RES1               0.0000
      9 O9         111.8022 247.1073 327.6239 O.2            1 RES1               0.0000
     10 N10        110.7020 248.0483 323.8800 N.am           1 RES1               0.0000
     11 O11        110.6572 245.9237 323.1468 O.2            1 RES1               0.0000
     12 C12        109.0681 245.8621 326.4964 C.3            1 RES1               0.0000
     13 C13        114.1868 243.7105 324.7679 C.ar           1 RES1               0.0000
     14 C14        115.1682 245.8741 324.9559 C.ar           1 RES1               0.0000
     15 C15        111.0091 249.0375 324.7742 C.2            1 RES1               0.0000
     16 C16        115.3046 244.5174 324.7523 C.ar           1 RES1               0.0000
     17 O17        110.8724 250.2294 324.5140 O.2            1 RES1               0.0000
     18 H18        110.0896 244.5025 325.1936 H              1 RES1               0.0000
     19 H19        110.8116 244.6563 326.8052 H              1 RES1               0.0000
     20 H20        112.0663 243.6084 324.9974 H              1 RES1               0.0000
     21 H21        113.8331 247.4949 325.3330 H              1 RES1               0.0000
     22 H22        111.8030 249.3598 326.6277 H              1 RES1               0.0000
     23 H23        110.3039 248.3399 322.9930 H              1 RES1               0.0000
     24 H24        108.3812 245.1087 326.8762 H              1 RES1               0.0000
     25 H25        109.2840 246.5607 327.3021 H              1 RES1               0.0000
     26 H26        108.5662 246.4078 325.7001 H              1 RES1               0.0000
     27 H27        114.2889 242.6420 324.6096 H              1 RES1               0.0000
     28 H28        116.0452 246.5128 324.9451 H              1 RES1               0.0000
     29 H29        116.2858 244.0872 324.5810 H              1 RES1               0.0000
@<TRIPOS>BOND
    1    1    2 1     
    2    1    3 1     
    3    1    4 1     
    4    1    5 1     
    5    2    6 ar    
    6    2    7 ar    
    7    3    8 1     
    8    3    9 2     
    9    4   10 1     
   10    4   11 2     
   11    5   12 1     
   12    5   18 1     
   13    5   19 1     
   14    6   13 ar    
   15    6   20 1     
   16    7   14 ar    
   17    7   21 1     
   18    8   15 1     
   19    8   22 1     
   20   10   15 1     
   21   10   23 1     
   22   12   24 1     
   23   12   25 1     
   24   12   26 1     
   25   13   16 ar    
   26   13   27 1     
   27   14   16 ar    
   28   14   28 1     
   29   15   17 2     
   30   16   29 1     
@<TRIPOS>SUBSTRUCTURE
      1 RES1           1
@<TRIPOS>SET
DONOR_HYDROGENS      STATIC     ATOMS    <user>   **** ""
2 22 23
ATOM$RED        STATIC     ATOMS    COLORGROUP SYSTEM
2 22 23
@<TRIPOS>COMMENT
> <Gold.Version>
2022.3.0

> <Gold.Id.Protein>
unknown|5adg_clean|pdb

> <Gold.Protein.RotatedTorsions>
[ 5556 5551 5550 5547 ] final -137.09 input   60.01 | X-H torsion
[ 8542 8534 8535 8536 ] final  152.49 input   85.39 | X-H torsion
[ 12870 12858 12859 12860 ] final  -76.77 input  110.07 | X-H torsion
[ 12878 12869 12868 12866 ] final   63.52 input   59.97 | X-H torsion
[ 12906 12897 12898 12899 ] final  -37.36 input   35.92 | X-H torsion
[ 8434 8429 8430 8431 ] final  -46.15 input   45.97 | X-H torsion
[ 8458 8451 8452 8453 ] final  -20.45 input  104.20 | X-H torsion
[ 9002 8998 8999 9000 ] final -162.52 input   46.10 | X-H torsion
[ 9036 9022 9023 9024 ] final  -27.49 input   36.28 | X-H torsion
[ 9080 9068 9069 9070 ] final  109.66 input   95.83 | X-H torsion
[ 9088 9079 9078 9076 ] final   31.37 input   59.97 | X-H torsion
[ 9114 9106 9107 9108 ] final  176.88 input   84.45 | X-H torsion
[ 9192 9183 9184 9185 ] final    8.24 input  123.29 | X-H torsion
[ 3596 3592 3593 3594 ] final  -26.58 input   84.32 | X-H torsion
[ 8984 8978 8979 8980 ] final  -65.02 input   29.51 | X-H torsion
[ 9140 9136 9137 9138 ] final  170.63 input  134.07 | X-H torsion
[ 11056 11049 11050 11051 ] final   19.49 input   56.26 | X-H torsion
[ 4893 4888 4887 4884 ] final -104.52 input   60.00 | X-H torsion
[ 8988 8983 8982 8979 ] final -141.28 input   59.98 | X-H torsion
[ 3550 3542 3543 3544 ] final   39.95 input   80.85 | X-H torsion
[ 8488 8482 8483 8484 ] final -127.52 input   54.31 | X-H torsion
[ 8954 8943 8944 8945 ] final   62.83 input   47.77 | X-H torsion
[ 8514 8506 8507 8508 ] final   75.33 input   67.56 | X-H torsion
[ 5580 5571 5572 5573 ] final  175.25 input   48.82 | X-H torsion
[ 3570 3563 3564 3565 ] final   40.27 input  103.62 | X-H torsion
[ 9229 9212 9213 9214 ] final   71.55 input   91.82 | X-H torsion
[ 8576 8568 8569 8570 ] final   76.75 input   67.63 | X-H torsion
[ 13465 1235 1234 1233 ] final -174.39 input    0.00 | X-H torsion
[ 13468 5549 5548 5547 ] final -152.35 input   -0.00 | X-H torsion
[ 13472 8509 8508 8507 ] final  141.58 input    0.00 | X-H torsion
[ 13479 12900 12899 12898 ] final -111.94 input   -0.00 | X-H torsion
[ 13492 8406 8405 8404 ] final  103.29 input    0.00 | X-H torsion
[ 13496 8946 8945 8944 ] final    1.78 input   -0.00 | X-H torsion
[ 13499 9001 9000 8999 ] final   90.93 input    0.00 | X-H torsion
[ 13502 9025 9024 9023 ] final  120.02 input    0.00 | X-H torsion
[ 13505 9071 9070 9069 ] final  -64.93 input    0.00 | X-H torsion
[ 13510 9109 9108 9107 ] final -147.29 input    0.00 | X-H torsion
[ 13521 8981 8980 8979 ] final  162.01 input   -0.00 | X-H torsion
[ 13523 8351 8350 8349 ] final   60.79 input   -0.00 | X-H torsion
[ 13531 8454 8453 8452 ] final   82.00 input    0.00 | X-H torsion
[ 13533 8432 8431 8430 ] final  -72.46 input    0.00 | X-H torsion
[ 13535 3502 3501 3500 ] final -128.12 input    0.00 | X-H torsion
[ 13543 12828 12827 12826 ] final  -24.26 input   -0.00 | X-H torsion

> <Gold.Protein.ActiveResidues>
 TRP311  MET341  HIS342  TRP414  ALA417  ARG419  CYS420  VAL421  GLY422  LEU460 
 SER462  SER482  GLN483  ARG486  ALA502  TYR567  GLY568  LEU569  PRO570  ALA571 
 VAL572  SER573  ASN574  MET575  LEU576  PHE589  SER590  GLY591  TRP592  TYR593 
 MET594  GLY595  GLU597  ILE598  ARG601  ASP602  ARG608  ILE653  VAL654  TRP683 
 PHE709  GLU710  TYR711  GLN712  ASP714  HEM750  H4B760 

> <Gold.Protein.RotatedAtoms>
  120.7104  252.2455  329.7422 H   0  0  0  0  0  0  0  0  0  0  0  0  # atno 3550 bound_to 3542
  122.1611  248.4367  328.8061 H   0  0  0  0  0  0  0  0  0  0  0  0  # atno 3570 bound_to 3563
  124.5299  249.0064  328.3475 H   0  0  0  0  0  0  0  0  0  0  0  0  # atno 3596 bound_to 3592
  124.6618  246.5902  319.1786 H   0  0  0  0  0  0  0  0  0  0  0  0  # atno 4893 bound_to 4888
  106.2096  243.0636  321.5803 H   0  0  0  0  0  0  0  0  0  0  0  0  # atno 5556 bound_to 5551
  108.9642  244.1243  319.7932 H   0  0  0  0  0  0  0  0  0  0  0  0  # atno 5580 bound_to 5571
  115.5097  242.8759  319.6368 H   0  0  0  0  0  0  0  0  0  0  0  0  # atno 8434 bound_to 8429
  114.5443  245.6154  317.9263 H   0  0  0  0  0  0  0  0  0  0  0  0  # atno 8458 bound_to 8451
  112.4873  247.3930  318.3141 H   0  0  0  0  0  0  0  0  0  0  0  0  # atno 8488 bound_to 8482
  110.0466  248.6814  319.2862 H   0  0  0  0  0  0  0  0  0  0  0  0  # atno 8514 bound_to 8506
  110.2976  250.8216  320.0299 H   0  0  0  0  0  0  0  0  0  0  0  0  # atno 8542 bound_to 8534
  110.3393  255.4396  320.7823 H   0  0  0  0  0  0  0  0  0  0  0  0  # atno 8576 bound_to 8568
  115.2152  248.9204  316.7954 H   0  0  0  0  0  0  0  0  0  0  0  0  # atno 8954 bound_to 8943
  118.8271  247.7871  317.5232 H   0  0  0  0  0  0  0  0  0  0  0  0  # atno 8984 bound_to 8978
  119.2541  244.4675  314.4908 H   0  0  0  0  0  0  0  0  0  0  0  0  # atno 8988 bound_to 8983
  120.6313  245.6951  318.4996 H   0  0  0  0  0  0  0  0  0  0  0  0  # atno 9002 bound_to 8998
  122.1039  243.2605  321.2268 H   0  0  0  0  0  0  0  0  0  0  0  0  # atno 9036 bound_to 9022
  122.0183  239.1003  322.2176 H   0  0  0  0  0  0  0  0  0  0  0  0  # atno 9080 bound_to 9068
  114.6864  239.2492  323.2098 H   0  0  0  0  0  0  0  0  0  0  0  0  # atno 9088 bound_to 9079
  122.1559  240.8325  326.0302 H   0  0  0  0  0  0  0  0  0  0  0  0  # atno 9114 bound_to 9106
  123.1077  237.3348  328.2321 H   0  0  0  0  0  0  0  0  0  0  0  0  # atno 9140 bound_to 9136
  118.1780  237.4241  330.0624 H   0  0  0  0  0  0  0  0  0  0  0  0  # atno 9192 bound_to 9183
  117.5561  236.5875  328.7570 H   0  0  0  0  0  0  0  0  0  0  0  0  # atno 9229 bound_to 9212
  125.0541  237.7386  326.1241 H   0  0  0  0  0  0  0  0  0  0  0  0  # atno 11056 bound_to 11049
  110.1603  256.1633  323.8536 H   0  0  0  0  0  0  0  0  0  0  0  0  # atno 12870 bound_to 12858
  112.0958  251.6827  328.5732 H   0  0  0  0  0  0  0  0  0  0  0  0  # atno 12878 bound_to 12869
  106.2833  254.6858  323.8821 H   0  0  0  0  0  0  0  0  0  0  0  0  # atno 12906 bound_to 12897
  108.9974  254.7578  331.6605 LP  0  0  0  0  0  0  0  0  0  0  0  0  # atno 13465 bound_to 1235
  109.8855  253.4463  332.3613 LP  0  0  0  0  0  0  0  0  0  0  0  0  # atno 13466 bound_to 1235
  110.5196  245.7630  319.1575 LP  0  0  0  0  0  0  0  0  0  0  0  0  # atno 13468 bound_to 5549
  109.4952  246.4522  320.3722 LP  0  0  0  0  0  0  0  0  0  0  0  0  # atno 13469 bound_to 5549
  107.8147  243.2965  321.7153 LP  0  0  0  0  0  0  0  0  0  0  0  0  # atno 13470 bound_to 5551
  107.1456  243.0326  320.2492 LP  0  0  0  0  0  0  0  0  0  0  0  0  # atno 13471 bound_to 5551
  108.0247  252.4688  321.0524 LP  0  0  0  0  0  0  0  0  0  0  0  0  # atno 13472 bound_to 8509
  106.9245  252.0607  319.7784 LP  0  0  0  0  0  0  0  0  0  0  0  0  # atno 13473 bound_to 8509
  109.4082  251.7035  318.8163 LP  0  0  0  0  0  0  0  0  0  0  0  0  # atno 13474 bound_to 8534
  109.6747  256.5846  325.4779 LP  0  0  0  0  0  0  0  0  0  0  0  0  # atno 13475 bound_to 12858
  110.8228  251.0392  329.3569 LP  0  0  0  0  0  0  0  0  0  0  0  0  # atno 13476 bound_to 12869
  111.5155  252.4115  329.9077 LP  0  0  0  0  0  0  0  0  0  0  0  0  # atno 13477 bound_to 12869
  107.3719  255.2521  322.6377 LP  0  0  0  0  0  0  0  0  0  0  0  0  # atno 13478 bound_to 12897
  104.1618  252.8601  322.1006 LP  0  0  0  0  0  0  0  0  0  0  0  0  # atno 13479 bound_to 12900
  104.6885  253.3684  323.6704 LP  0  0  0  0  0  0  0  0  0  0  0  0  # atno 13480 bound_to 12900
  118.3097  243.2815  318.2688 LP  0  0  0  0  0  0  0  0  0  0  0  0  # atno 13492 bound_to 8406
  118.0617  243.7995  319.9029 LP  0  0  0  0  0  0  0  0  0  0  0  0  # atno 13493 bound_to 8406
  115.8847  241.8633  318.2643 LP  0  0  0  0  0  0  0  0  0  0  0  0  # atno 13494 bound_to 8429
  115.0664  245.2378  319.5540 LP  0  0  0  0  0  0  0  0  0  0  0  0  # atno 13495 bound_to 8451
  115.7489  247.1745  317.6022 LP  0  0  0  0  0  0  0  0  0  0  0  0  # atno 13496 bound_to 8946
  116.8957  245.9717  318.0903 LP  0  0  0  0  0  0  0  0  0  0  0  0  # atno 13497 bound_to 8946
  120.1559  244.0899  319.0068 LP  0  0  0  0  0  0  0  0  0  0  0  0  # atno 13498 bound_to 8998
  122.9800  242.0302  318.0018 LP  0  0  0  0  0  0  0  0  0  0  0  0  # atno 13499 bound_to 9001
  121.3041  241.9022  318.4200 LP  0  0  0  0  0  0  0  0  0  0  0  0  # atno 13500 bound_to 9001
  123.3608  243.0075  320.0446 LP  0  0  0  0  0  0  0  0  0  0  0  0  # atno 13501 bound_to 9022
  121.2689  242.3310  323.5481 LP  0  0  0  0  0  0  0  0  0  0  0  0  # atno 13502 bound_to 9025
  122.9532  242.6708  323.3291 LP  0  0  0  0  0  0  0  0  0  0  0  0  # atno 13503 bound_to 9025
  122.3741  240.7511  322.6736 LP  0  0  0  0  0  0  0  0  0  0  0  0  # atno 13504 bound_to 9068
  123.5773  238.1935  324.9845 LP  0  0  0  0  0  0  0  0  0  0  0  0  # atno 13505 bound_to 9071
  124.2142  239.7649  325.3380 LP  0  0  0  0  0  0  0  0  0  0  0  0  # atno 13506 bound_to 9071
  114.6609  237.6220  323.2308 LP  0  0  0  0  0  0  0  0  0  0  0  0  # atno 13507 bound_to 9079
  115.0117  238.4181  321.8488 LP  0  0  0  0  0  0  0  0  0  0  0  0  # atno 13508 bound_to 9079
  121.0468  239.4820  326.1173 LP  0  0  0  0  0  0  0  0  0  0  0  0  # atno 13509 bound_to 9106
  119.7492  238.0186  328.8579 LP  0  0  0  0  0  0  0  0  0  0  0  0  # atno 13510 bound_to 9109
  119.8671  239.0132  327.4448 LP  0  0  0  0  0  0  0  0  0  0  0  0  # atno 13511 bound_to 9109
  118.6396  239.0685  330.4235 LP  0  0  0  0  0  0  0  0  0  0  0  0  # atno 13512 bound_to 9183
  123.6401  247.5302  328.0839 LP  0  0  0  0  0  0  0  0  0  0  0  0  # atno 13519 bound_to 3592
  118.5777  247.0611  315.9554 LP  0  0  0  0  0  0  0  0  0  0  0  0  # atno 13520 bound_to 8978
  122.3129  246.5252  317.8452 LP  0  0  0  0  0  0  0  0  0  0  0  0  # atno 13521 bound_to 8981
  121.2615  246.7641  316.4897 LP  0  0  0  0  0  0  0  0  0  0  0  0  # atno 13522 bound_to 8981
  121.1213  237.1433  319.0480 LP  0  0  0  0  0  0  0  0  0  0  0  0  # atno 13523 bound_to 8351
  119.8097  237.8513  319.9304 LP  0  0  0  0  0  0  0  0  0  0  0  0  # atno 13524 bound_to 8351
  121.7620  238.2475  328.8803 LP  0  0  0  0  0  0  0  0  0  0  0  0  # atno 13525 bound_to 9136
  126.4357  237.8489  325.0627 LP  0  0  0  0  0  0  0  0  0  0  0  0  # atno 13526 bound_to 11049
  126.2138  246.9278  318.8247 LP  0  0  0  0  0  0  0  0  0  0  0  0  # atno 13527 bound_to 4888
  125.5066  245.5887  318.2135 LP  0  0  0  0  0  0  0  0  0  0  0  0  # atno 13528 bound_to 4888
  120.5120  244.0400  315.4305 LP  0  0  0  0  0  0  0  0  0  0  0  0  # atno 13529 bound_to 8983
  120.1080  245.6139  315.2684 LP  0  0  0  0  0  0  0  0  0  0  0  0  # atno 13530 bound_to 8983
  114.1270  247.9091  317.0917 LP  0  0  0  0  0  0  0  0  0  0  0  0  # atno 13531 bound_to 8454
  113.6270  249.1543  318.1868 LP  0  0  0  0  0  0  0  0  0  0  0  0  # atno 13532 bound_to 8454
  113.0472  244.6383  316.5679 LP  0  0  0  0  0  0  0  0  0  0  0  0  # atno 13533 bound_to 8432
  112.4645  243.9705  318.0561 LP  0  0  0  0  0  0  0  0  0  0  0  0  # atno 13534 bound_to 8432
  119.8517  249.3357  330.8810 LP  0  0  0  0  0  0  0  0  0  0  0  0  # atno 13535 bound_to 3502
  118.1611  249.5398  330.5644 LP  0  0  0  0  0  0  0  0  0  0  0  0  # atno 13536 bound_to 3502
  119.2317  251.3366  329.5501 LP  0  0  0  0  0  0  0  0  0  0  0  0  # atno 13537 bound_to 3542
  110.8816  246.8713  318.7592 LP  0  0  0  0  0  0  0  0  0  0  0  0  # atno 13538 bound_to 8482
  115.5410  248.9269  315.0792 LP  0  0  0  0  0  0  0  0  0  0  0  0  # atno 13539 bound_to 8943
  109.7993  249.1392  317.6202 LP  0  0  0  0  0  0  0  0  0  0  0  0  # atno 13541 bound_to 8506
  108.2163  243.6602  318.2803 LP  0  0  0  0  0  0  0  0  0  0  0  0  # atno 13542 bound_to 5571
  110.5488  256.1319  321.6694 LP  0  0  0  0  0  0  0  0  0  0  0  0  # atno 13543 bound_to 12828
  109.8157  254.7919  322.4859 LP  0  0  0  0  0  0  0  0  0  0  0  0  # atno 13544 bound_to 12828

> <Gold.Score>
     Fitness  S(hb_ext) S(vdw_ext)  S(hb_int)    S(int)      intcor
     39.50      12.05      20.44       0.00      -0.66      -0.76

> <Gold.Goldscore.Fitness>
39.4962

> <Gold.Goldscore.Internal.Vdw>
-0.8030

> <Gold.Goldscore.Internal.Torsion>
-0.6144

> <Gold.Goldscore.External.Vdw>
20.4403

> <Gold.Goldscore.Internal.HBond>
0.0000

> <Gold.Goldscore.External.HBond>
12.0496

> <Gold.Goldscore.Internal.Correction>
-0.7585

> <Gold.Goldscore.Hbonds>
donor molecule, donor type, donor heavy atom, donor atom, acceptor molecule, acceptor atom, score
      P1  H  5578  5587       L1    11  0.03
      L1  H     8    22       P1 13316  1.00
      L1  H    10    23       P1  8513  1.00

> <Gold.Goldscore.Internal.Vdw.Weighted>
-0.8030

> <Gold.Goldscore.Internal.Torsion.Weighted>
-0.6144

> <Gold.Goldscore.External.Vdw.Weighted>
28.1055

> <Gold.Goldscore.Internal.HBond.Weighted>
0.0000

> <Gold.Goldscore.External.HBond.Weighted>
12.0496

> <Gold.Goldscore.Internal.Correction.Weighted>
-0.7585

> <Gold.Rescore>
     Score     S(PLP)   S(hbond)     S(cho)   S(metal)  DE(clash)   DE(tors)     intcor
     35.58     -32.76       1.70       0.00       0.00       0.00       1.13       ----

> <Gold.PLP.Fitness>
35.5806

> <Gold.PLP.PLP>
-32.7585

> <Gold.PLP.part.hbond>
-2.0000

> <Gold.PLP.part.metal>
0.0000

> <Gold.PLP.part.buried>
-6.3390

> <Gold.PLP.part.nonpolar>
-26.7729

> <Gold.PLP.part.repulsive>
0.9553

> <Gold.PLP.ligand.clash>
0.0000

> <Gold.PLP.ligand.torsion>
1.1330

> <Gold.PLP.Chemscore.Hbond>
1.6960

> <Gold.PLP.Chemscore.CHOScore>
0.0000

> <Gold.PLP.Chemscore.Metal>
0.0000

> <Gold.Chemscore.Hbonds>
donor molecule, donor type, donor heavy atom, donor atom, acceptor molecule, acceptor atom, score
      L1  H     8    22       P1 13316  0.60
      L1  H    10    23       P1  8513  1.00

> <Gold.PLP.Chemscore.Internal.Correction>
   9.000000E+99

#       Name:                CT1002167954
#       Creating user name   hitesit
#       Creation time:       Sun Apr 16 22:52:37 2023


#       File generated by GOLD software.
#

@<TRIPOS>MOLECULE
CT1002167954|ligand_prepared|mol2|1|dock3
    29    30     1
SMALL
NO_CHARGES


@<TRIPOS>ATOM
      1 C1         111.6495 247.1632 325.2493 C.3            1 RES1               0.0000
      2 C2         113.1521 247.4299 325.0261 C.ar           1 RES1               0.0000
      3 C3         110.9018 248.1902 324.4040 C.2            1 RES1               0.0000
      4 C4         111.4061 245.7174 324.8310 C.2            1 RES1               0.0000
      5 C5         111.1995 247.3170 326.7208 C.3            1 RES1               0.0000
      6 C6         114.1107 246.5739 325.5600 C.ar           1 RES1               0.0000
      7 C7         113.5941 248.5243 324.2875 C.ar           1 RES1               0.0000
      8 N8         110.2958 247.7498 323.2644 N.am           1 RES1               0.0000
      9 O9         110.8779 249.3755 324.7118 O.2            1 RES1               0.0000
     10 N10        110.6089 245.4902 323.7398 N.am           1 RES1               0.0000
     11 O11        111.9109 244.7735 325.4264 O.2            1 RES1               0.0000
     12 C12        109.7354 246.9782 326.9529 C.3            1 RES1               0.0000
     13 C13        115.4622 246.8020 325.3604 C.ar           1 RES1               0.0000
     14 C14        114.9461 248.7507 324.0893 C.ar           1 RES1               0.0000
     15 C15        110.0677 246.4419 322.9192 C.2            1 RES1               0.0000
     16 C16        115.8808 247.8901 324.6247 C.ar           1 RES1               0.0000
     17 O17        109.4064 246.1584 321.9244 O.2            1 RES1               0.0000
     18 H18        111.8170 246.6633 327.3491 H              1 RES1               0.0000
     19 H19        111.3769 248.3521 327.0380 H              1 RES1               0.0000
     20 H20        113.8003 245.7138 326.1439 H              1 RES1               0.0000
     21 H21        112.8768 249.2152 323.8578 H              1 RES1               0.0000
     22 H22        109.9833 248.4583 322.6082 H              1 RES1               0.0000
     23 H23        110.3995 244.5218 323.5189 H              1 RES1               0.0000
     24 H24        109.4721 247.1028 328.0011 H              1 RES1               0.0000
     25 H25        109.0912 247.6264 326.3624 H              1 RES1               0.0000
     26 H26        109.5287 245.9477 326.6716 H              1 RES1               0.0000
     27 H27        116.1937 246.1225 325.7851 H              1 RES1               0.0000
     28 H28        115.2711 249.6087 323.5101 H              1 RES1               0.0000
     29 H29        116.9395 248.0683 324.4681 H              1 RES1               0.0000
@<TRIPOS>BOND
    1    1    2 1     
    2    1    3 1     
    3    1    4 1     
    4    1    5 1     
    5    2    6 ar    
    6    2    7 ar    
    7    3    8 1     
    8    3    9 2     
    9    4   10 1     
   10    4   11 2     
   11    5   12 1     
   12    5   18 1     
   13    5   19 1     
   14    6   13 ar    
   15    6   20 1     
   16    7   14 ar    
   17    7   21 1     
   18    8   15 1     
   19    8   22 1     
   20   10   15 1     
   21   10   23 1     
   22   12   24 1     
   23   12   25 1     
   24   12   26 1     
   25   13   16 ar    
   26   13   27 1     
   27   14   16 ar    
   28   14   28 1     
   29   15   17 2     
   30   16   29 1     
@<TRIPOS>SUBSTRUCTURE
      1 RES1           1
@<TRIPOS>SET
DONOR_HYDROGENS      STATIC     ATOMS    <user>   **** ""
2 22 23
ATOM$RED        STATIC     ATOMS    COLORGROUP SYSTEM
2 22 23
@<TRIPOS>COMMENT
> <Gold.Version>
2022.3.0

> <Gold.Id.Protein>
unknown|5adg_clean|pdb

> <Gold.Protein.RotatedTorsions>
[ 5556 5551 5550 5547 ] final   47.24 input   60.01 | X-H torsion
[ 8542 8534 8535 8536 ] final -124.51 input   85.39 | X-H torsion
[ 12870 12858 12859 12860 ] final   10.46 input  110.07 | X-H torsion
[ 12878 12869 12868 12866 ] final  101.61 input   59.97 | X-H torsion
[ 12906 12897 12898 12899 ] final -107.39 input   35.92 | X-H torsion
[ 8434 8429 8430 8431 ] final -104.41 input   45.97 | X-H torsion
[ 8458 8451 8452 8453 ] final  -87.43 input  104.20 | X-H torsion
[ 9002 8998 8999 9000 ] final -119.83 input   46.10 | X-H torsion
[ 9036 9022 9023 9024 ] final   36.21 input   36.28 | X-H torsion
[ 9080 9068 9069 9070 ] final  154.96 input   95.83 | X-H torsion
[ 9088 9079 9078 9076 ] final  -34.19 input   59.97 | X-H torsion
[ 9114 9106 9107 9108 ] final   11.41 input   84.45 | X-H torsion
[ 9192 9183 9184 9185 ] final -155.07 input  123.29 | X-H torsion
[ 3596 3592 3593 3594 ] final  165.62 input   84.32 | X-H torsion
[ 8984 8978 8979 8980 ] final  143.21 input   29.51 | X-H torsion
[ 9140 9136 9137 9138 ] final   85.99 input  134.07 | X-H torsion
[ 11056 11049 11050 11051 ] final  -98.53 input   56.26 | X-H torsion
[ 4893 4888 4887 4884 ] final   62.45 input   60.00 | X-H torsion
[ 8988 8983 8982 8979 ] final   60.95 input   59.98 | X-H torsion
[ 3550 3542 3543 3544 ] final  -63.07 input   80.85 | X-H torsion
[ 8488 8482 8483 8484 ] final   -2.16 input   54.31 | X-H torsion
[ 8954 8943 8944 8945 ] final  -90.45 input   47.77 | X-H torsion
[ 8514 8506 8507 8508 ] final   -7.03 input   67.56 | X-H torsion
[ 5580 5571 5572 5573 ] final -163.14 input   48.82 | X-H torsion
[ 3570 3563 3564 3565 ] final -149.95 input  103.62 | X-H torsion
[ 9229 9212 9213 9214 ] final -123.81 input   91.82 | X-H torsion
[ 8576 8568 8569 8570 ] final  -44.11 input   67.63 | X-H torsion
[ 13465 1235 1234 1233 ] final  -41.32 input    0.00 | X-H torsion
[ 13468 5549 5548 5547 ] final  -42.71 input   -0.00 | X-H torsion
[ 13472 8509 8508 8507 ] final  -97.74 input    0.00 | X-H torsion
[ 13479 12900 12899 12898 ] final   11.80 input   -0.00 | X-H torsion
[ 13492 8406 8405 8404 ] final  100.28 input    0.00 | X-H torsion
[ 13496 8946 8945 8944 ] final   90.64 input   -0.00 | X-H torsion
[ 13499 9001 9000 8999 ] final    6.09 input    0.00 | X-H torsion
[ 13502 9025 9024 9023 ] final  -22.07 input    0.00 | X-H torsion
[ 13505 9071 9070 9069 ] final -119.99 input    0.00 | X-H torsion
[ 13510 9109 9108 9107 ] final -162.64 input    0.00 | X-H torsion
[ 13521 8981 8980 8979 ] final  -51.76 input   -0.00 | X-H torsion
[ 13523 8351 8350 8349 ] final -149.62 input   -0.00 | X-H torsion
[ 13531 8454 8453 8452 ] final   15.76 input    0.00 | X-H torsion
[ 13533 8432 8431 8430 ] final  152.32 input    0.00 | X-H torsion
[ 13535 3502 3501 3500 ] final  171.75 input    0.00 | X-H torsion
[ 13543 12828 12827 12826 ] final  112.88 input   -0.00 | X-H torsion

> <Gold.Protein.ActiveResidues>
 TRP311  MET341  HIS342  TRP414  ALA417  ARG419  CYS420  VAL421  GLY422  LEU460 
 SER462  SER482  GLN483  ARG486  ALA502  TYR567  GLY568  LEU569  PRO570  ALA571 
 VAL572  SER573  ASN574  MET575  LEU576  PHE589  SER590  GLY591  TRP592  TYR593 
 MET594  GLY595  GLU597  ILE598  ARG601  ASP602  ARG608  ILE653  VAL654  TRP683 
 PHE709  GLU710  TYR711  GLN712  ASP714  HEM750  H4B760 

> <Gold.Protein.RotatedAtoms>
  119.9609  251.2608  330.3525 H   0  0  0  0  0  0  0  0  0  0  0  0  # atno 3550 bound_to 3542
  121.9350  249.5006  330.2087 H   0  0  0  0  0  0  0  0  0  0  0  0  # atno 3570 bound_to 3563
  123.7442  247.4559  328.2192 H   0  0  0  0  0  0  0  0  0  0  0  0  # atno 3596 bound_to 3592
  126.1432  245.9826  318.2319 H   0  0  0  0  0  0  0  0  0  0  0  0  # atno 4893 bound_to 4888
  107.9261  243.2128  320.8488 H   0  0  0  0  0  0  0  0  0  0  0  0  # atno 5556 bound_to 5551
  108.9760  244.4128  319.6265 H   0  0  0  0  0  0  0  0  0  0  0  0  # atno 5580 bound_to 5571
  116.3279  242.7874  319.3943 H   0  0  0  0  0  0  0  0  0  0  0  0  # atno 8434 bound_to 8429
  114.2362  244.8279  318.4251 H   0  0  0  0  0  0  0  0  0  0  0  0  # atno 8458 bound_to 8451
  111.1209  247.5757  319.0573 H   0  0  0  0  0  0  0  0  0  0  0  0  # atno 8488 bound_to 8482
  110.4571  249.5736  318.6710 H   0  0  0  0  0  0  0  0  0  0  0  0  # atno 8514 bound_to 8506
  109.1905  251.1723  319.9897 H   0  0  0  0  0  0  0  0  0  0  0  0  # atno 8542 bound_to 8534
  111.2618  254.6878  319.7986 H   0  0  0  0  0  0  0  0  0  0  0  0  # atno 8576 bound_to 8568
  115.4948  248.5310  315.1460 H   0  0  0  0  0  0  0  0  0  0  0  0  # atno 8954 bound_to 8943
  118.1887  247.0406  316.1278 H   0  0  0  0  0  0  0  0  0  0  0  0  # atno 8984 bound_to 8978
  120.6922  244.5863  315.6279 H   0  0  0  0  0  0  0  0  0  0  0  0  # atno 8988 bound_to 8983
  120.7146  245.2644  318.0254 H   0  0  0  0  0  0  0  0  0  0  0  0  # atno 9002 bound_to 8998
  123.0010  243.3061  321.4503 H   0  0  0  0  0  0  0  0  0  0  0  0  # atno 9036 bound_to 9022
  121.5193  239.5342  322.0455 H   0  0  0  0  0  0  0  0  0  0  0  0  # atno 9080 bound_to 9068
  114.5624  238.3542  323.6702 H   0  0  0  0  0  0  0  0  0  0  0  0  # atno 9088 bound_to 9079
  120.9061  239.6070  326.2380 H   0  0  0  0  0  0  0  0  0  0  0  0  # atno 9114 bound_to 9106
  122.8671  237.7463  329.3315 H   0  0  0  0  0  0  0  0  0  0  0  0  # atno 9140 bound_to 9136
  118.5008  239.0385  330.6338 H   0  0  0  0  0  0  0  0  0  0  0  0  # atno 9192 bound_to 9183
  116.1506  237.5449  328.2789 H   0  0  0  0  0  0  0  0  0  0  0  0  # atno 9229 bound_to 9212
  126.2500  237.0762  325.4827 H   0  0  0  0  0  0  0  0  0  0  0  0  # atno 11056 bound_to 11049
  109.4637  257.0472  324.3198 H   0  0  0  0  0  0  0  0  0  0  0  0  # atno 12870 bound_to 12858
  112.2094  252.1744  328.9179 H   0  0  0  0  0  0  0  0  0  0  0  0  # atno 12878 bound_to 12869
  106.7387  255.5930  323.8754 H   0  0  0  0  0  0  0  0  0  0  0  0  # atno 12906 bound_to 12897
  109.9731  254.0452  332.6921 LP  0  0  0  0  0  0  0  0  0  0  0  0  # atno 13465 bound_to 1235
  108.9098  254.1589  331.3297 LP  0  0  0  0  0  0  0  0  0  0  0  0  # atno 13466 bound_to 1235
  109.5310  246.7422  319.4179 LP  0  0  0  0  0  0  0  0  0  0  0  0  # atno 13468 bound_to 5549
  110.4838  245.4730  320.1118 LP  0  0  0  0  0  0  0  0  0  0  0  0  # atno 13469 bound_to 5549
  106.3384  242.9624  320.5932 LP  0  0  0  0  0  0  0  0  0  0  0  0  # atno 13470 bound_to 5551
  106.8943  243.2166  322.1075 LP  0  0  0  0  0  0  0  0  0  0  0  0  # atno 13471 bound_to 5551
  107.4155  252.7597  319.7072 LP  0  0  0  0  0  0  0  0  0  0  0  0  # atno 13472 bound_to 8509
  107.5338  251.7698  321.1236 LP  0  0  0  0  0  0  0  0  0  0  0  0  # atno 13473 bound_to 8509
  110.5030  251.3567  318.8561 LP  0  0  0  0  0  0  0  0  0  0  0  0  # atno 13474 bound_to 8534
  110.3563  255.7198  325.0218 LP  0  0  0  0  0  0  0  0  0  0  0  0  # atno 13475 bound_to 12858
  111.1715  250.9220  328.8637 LP  0  0  0  0  0  0  0  0  0  0  0  0  # atno 13476 bound_to 12869
  111.0525  252.0337  330.0539 LP  0  0  0  0  0  0  0  0  0  0  0  0  # atno 13477 bound_to 12869
  106.9274  254.3669  322.6442 LP  0  0  0  0  0  0  0  0  0  0  0  0  # atno 13478 bound_to 12897
  105.2477  253.3041  323.0787 LP  0  0  0  0  0  0  0  0  0  0  0  0  # atno 13479 bound_to 12900
  103.6026  252.9243  322.6923 LP  0  0  0  0  0  0  0  0  0  0  0  0  # atno 13480 bound_to 12900
  118.3365  243.2484  318.2846 LP  0  0  0  0  0  0  0  0  0  0  0  0  # atno 13492 bound_to 8406
  118.0349  243.8326  319.8870 LP  0  0  0  0  0  0  0  0  0  0  0  0  # atno 13493 bound_to 8406
  115.0816  241.9502  318.5024 LP  0  0  0  0  0  0  0  0  0  0  0  0  # atno 13494 bound_to 8429
  115.3646  245.9997  319.0714 LP  0  0  0  0  0  0  0  0  0  0  0  0  # atno 13495 bound_to 8451
  116.1413  246.1319  317.1233 LP  0  0  0  0  0  0  0  0  0  0  0  0  # atno 13496 bound_to 8946
  116.5033  247.0142  318.5692 LP  0  0  0  0  0  0  0  0  0  0  0  0  # atno 13497 bound_to 8946
  120.0750  244.5081  319.4672 LP  0  0  0  0  0  0  0  0  0  0  0  0  # atno 13498 bound_to 8998
  122.0374  242.6376  317.6740 LP  0  0  0  0  0  0  0  0  0  0  0  0  # atno 13499 bound_to 9001
  122.2467  241.2948  318.7478 LP  0  0  0  0  0  0  0  0  0  0  0  0  # atno 13500 bound_to 9001
  122.4741  242.9625  319.8237 LP  0  0  0  0  0  0  0  0  0  0  0  0  # atno 13501 bound_to 9022
  122.6614  242.9212  322.9185 LP  0  0  0  0  0  0  0  0  0  0  0  0  # atno 13502 bound_to 9025
  121.5607  242.0806  323.9587 LP  0  0  0  0  0  0  0  0  0  0  0  0  # atno 13503 bound_to 9025
  122.8590  240.3294  322.8408 LP  0  0  0  0  0  0  0  0  0  0  0  0  # atno 13504 bound_to 9068
  123.7343  238.3654  325.7505 LP  0  0  0  0  0  0  0  0  0  0  0  0  # atno 13505 bound_to 9071
  124.0572  239.5930  324.5720 LP  0  0  0  0  0  0  0  0  0  0  0  0  # atno 13506 bound_to 9071
  114.9063  237.6570  322.2403 LP  0  0  0  0  0  0  0  0  0  0  0  0  # atno 13507 bound_to 9079
  114.8912  239.2843  322.3756 LP  0  0  0  0  0  0  0  0  0  0  0  0  # atno 13508 bound_to 9079
  122.2582  240.6699  325.9159 LP  0  0  0  0  0  0  0  0  0  0  0  0  # atno 13509 bound_to 9106
  119.7511  237.8489  328.7008 LP  0  0  0  0  0  0  0  0  0  0  0  0  # atno 13510 bound_to 9109
  119.8652  239.1829  327.6020 LP  0  0  0  0  0  0  0  0  0  0  0  0  # atno 13511 bound_to 9109
  118.3226  237.4827  329.8622 LP  0  0  0  0  0  0  0  0  0  0  0  0  # atno 13512 bound_to 9183
  124.4175  249.0643  328.2109 LP  0  0  0  0  0  0  0  0  0  0  0  0  # atno 13519 bound_to 3592
  119.2060  247.7957  317.3285 LP  0  0  0  0  0  0  0  0  0  0  0  0  # atno 13520 bound_to 8978
  121.5413  246.3586  316.3879 LP  0  0  0  0  0  0  0  0  0  0  0  0  # atno 13521 bound_to 8981
  122.0331  246.9306  317.9470 LP  0  0  0  0  0  0  0  0  0  0  0  0  # atno 13522 bound_to 8981
  119.8953  238.1410  319.5912 LP  0  0  0  0  0  0  0  0  0  0  0  0  # atno 13523 bound_to 8351
  121.0358  236.8536  319.3871 LP  0  0  0  0  0  0  0  0  0  0  0  0  # atno 13524 bound_to 8351
  121.9946  237.8497  327.8175 LP  0  0  0  0  0  0  0  0  0  0  0  0  # atno 13525 bound_to 9136
  125.2613  238.4995  325.6927 LP  0  0  0  0  0  0  0  0  0  0  0  0  # atno 13526 bound_to 11049
  124.6130  245.9553  318.7846 LP  0  0  0  0  0  0  0  0  0  0  0  0  # atno 13527 bound_to 4888
  125.6151  247.1733  319.2072 LP  0  0  0  0  0  0  0  0  0  0  0  0  # atno 13528 bound_to 4888
  119.6302  245.5744  314.8907 LP  0  0  0  0  0  0  0  0  0  0  0  0  # atno 13529 bound_to 8983
  119.5414  243.9598  314.6630 LP  0  0  0  0  0  0  0  0  0  0  0  0  # atno 13530 bound_to 8983
  114.5519  248.0687  317.9222 LP  0  0  0  0  0  0  0  0  0  0  0  0  # atno 13531 bound_to 8454
  113.2021  248.9947  317.3563 LP  0  0  0  0  0  0  0  0  0  0  0  0  # atno 13532 bound_to 8454
  112.3296  244.6138  317.9994 LP  0  0  0  0  0  0  0  0  0  0  0  0  # atno 13533 bound_to 8432
  113.1821  243.9950  316.6245 LP  0  0  0  0  0  0  0  0  0  0  0  0  # atno 13534 bound_to 8432
  119.5354  249.1759  330.0890 LP  0  0  0  0  0  0  0  0  0  0  0  0  # atno 13535 bound_to 3502
  118.4774  249.6997  331.3564 LP  0  0  0  0  0  0  0  0  0  0  0  0  # atno 13536 bound_to 3502
  119.9672  252.3029  328.9513 LP  0  0  0  0  0  0  0  0  0  0  0  0  # atno 13537 bound_to 3542
  112.2220  246.6921  318.0300 LP  0  0  0  0  0  0  0  0  0  0  0  0  # atno 13538 bound_to 8482
  115.2673  249.3081  316.6939 LP  0  0  0  0  0  0  0  0  0  0  0  0  # atno 13539 bound_to 8943
  109.3956  248.2618  318.2252 LP  0  0  0  0  0  0  0  0  0  0  0  0  # atno 13541 bound_to 8506
  108.2048  243.3811  318.4415 LP  0  0  0  0  0  0  0  0  0  0  0  0  # atno 13542 bound_to 5571
  110.4456  254.7343  322.4666 LP  0  0  0  0  0  0  0  0  0  0  0  0  # atno 13543 bound_to 12828
  109.9189  256.1895  321.6888 LP  0  0  0  0  0  0  0  0  0  0  0  0  # atno 13544 bound_to 12828

> <Gold.Score>
     Fitness  S(hb_ext) S(vdw_ext)  S(hb_int)    S(int)      intcor
     38.13       4.99      27.89       0.00      -5.21      -0.76

> <Gold.Goldscore.Fitness>
38.1263

> <Gold.Goldscore.Internal.Vdw>
-5.5866

> <Gold.Goldscore.Internal.Torsion>
-0.3823

> <Gold.Goldscore.External.Vdw>
27.8891

> <Gold.Goldscore.Internal.HBond>
0.0000

> <Gold.Goldscore.External.HBond>
4.9892

> <Gold.Goldscore.Internal.Correction>
-0.7585

> <Gold.Goldscore.Hbonds>
donor molecule, donor type, donor heavy atom, donor atom, acceptor molecule, acceptor atom, score
      P1  H  5571  5580       L1    17  0.25
      L1  H     8    22       P1  8513  0.75

> <Gold.Goldscore.Internal.Vdw.Weighted>
-5.5866

> <Gold.Goldscore.Internal.Torsion.Weighted>
-0.3823

> <Gold.Goldscore.External.Vdw.Weighted>
38.3475

> <Gold.Goldscore.Internal.HBond.Weighted>
0.0000

> <Gold.Goldscore.External.HBond.Weighted>
4.9892

> <Gold.Goldscore.Internal.Correction.Weighted>
-0.7585

> <Gold.Rescore>
     Score     S(PLP)   S(hbond)     S(cho)   S(metal)  DE(clash)   DE(tors)     intcor
     39.41     -38.29       1.00       0.00       0.00       0.03       0.93       ----

> <Gold.PLP.Fitness>
39.4126

> <Gold.PLP.PLP>
-38.2896

> <Gold.PLP.part.hbond>
-1.0000

> <Gold.PLP.part.metal>
0.0000

> <Gold.PLP.part.buried>
-1.1123

> <Gold.PLP.part.nonpolar>
-39.7312

> <Gold.PLP.part.repulsive>
2.2319

> <Gold.PLP.ligand.clash>
0.0265

> <Gold.PLP.ligand.torsion>
0.9252

> <Gold.PLP.Chemscore.Hbond>
1.0000

> <Gold.PLP.Chemscore.CHOScore>
0.0000

> <Gold.PLP.Chemscore.Metal>
0.0000

> <Gold.Chemscore.Hbonds>
donor molecule, donor type, donor heavy atom, donor atom, acceptor molecule, acceptor atom, score
      L1  H     8    22       P1  8513  0.75

> <Gold.PLP.Chemscore.Internal.Correction>
   9.000000E+99

#       Name:                CT1002167954
#       Creating user name   hitesit
#       Creation time:       Sun Apr 16 22:52:37 2023


#       File generated by GOLD software.
#

@<TRIPOS>MOLECULE
CT1002167954|ligand_prepared|mol2|1|dock2
    29    30     1
SMALL
NO_CHARGES


@<TRIPOS>ATOM
      1 C1         109.9708 246.4525 326.1841 C.3            1 RES1               0.0000
      2 C2         111.0798 245.3970 325.9979 C.ar           1 RES1               0.0000
      3 C3         110.6058 247.6110 326.9476 C.2            1 RES1               0.0000
      4 C4         109.4911 246.8189 324.7840 C.2            1 RES1               0.0000
      5 C5         108.7522 245.9433 326.9886 C.3            1 RES1               0.0000
      6 C6         112.3775 245.7821 325.6747 C.ar           1 RES1               0.0000
      7 C7         110.8215 244.0371 326.1484 C.ar           1 RES1               0.0000
      8 N8         110.8777 248.7524 326.2524 N.am           1 RES1               0.0000
      9 O9         110.8998 247.5106 328.1324 O.2            1 RES1               0.0000
     10 N10        109.7172 248.0959 324.3414 N.am           1 RES1               0.0000
     11 O11        108.9342 246.0084 324.0537 O.2            1 RES1               0.0000
     12 C12        107.7834 247.0424 327.3955 C.3            1 RES1               0.0000
     13 C13        113.3814 244.8420 325.5108 C.ar           1 RES1               0.0000
     14 C14        111.8269 243.0987 325.9838 C.ar           1 RES1               0.0000
     15 C15        110.4160 249.0703 325.0004 C.2            1 RES1               0.0000
     16 C16        113.1069 243.4999 325.6656 C.ar           1 RES1               0.0000
     17 O17        110.6247 250.1779 324.5138 O.2            1 RES1               0.0000
     18 H18        108.2134 245.2040 326.3832 H              1 RES1               0.0000
     19 H19        109.1125 245.4376 327.8930 H              1 RES1               0.0000
     20 H20        112.6118 246.8336 325.5464 H              1 RES1               0.0000
     21 H21        109.8216 243.6984 326.3975 H              1 RES1               0.0000
     22 H22        111.4801 249.4324 326.7053 H              1 RES1               0.0000
     23 H23        109.3284 248.3430 323.4369 H              1 RES1               0.0000
     24 H24        106.9473 246.6311 327.9571 H              1 RES1               0.0000
     25 H25        108.2798 247.7823 328.0199 H              1 RES1               0.0000
     26 H26        107.3860 247.5501 326.5191 H              1 RES1               0.0000
     27 H27        114.3868 245.1628 325.2591 H              1 RES1               0.0000
     28 H28        111.6062 242.0434 326.1060 H              1 RES1               0.0000
     29 H29        113.8936 242.7637 325.5376 H              1 RES1               0.0000
@<TRIPOS>BOND
    1    1    2 1     
    2    1    3 1     
    3    1    4 1     
    4    1    5 1     
    5    2    6 ar    
    6    2    7 ar    
    7    3    8 1     
    8    3    9 2     
    9    4   10 1     
   10    4   11 2     
   11    5   12 1     
   12    5   18 1     
   13    5   19 1     
   14    6   13 ar    
   15    6   20 1     
   16    7   14 ar    
   17    7   21 1     
   18    8   15 1     
   19    8   22 1     
   20   10   15 1     
   21   10   23 1     
   22   12   24 1     
   23   12   25 1     
   24   12   26 1     
   25   13   16 ar    
   26   13   27 1     
   27   14   16 ar    
   28   14   28 1     
   29   15   17 2     
   30   16   29 1     
@<TRIPOS>SUBSTRUCTURE
      1 RES1           1
@<TRIPOS>SET
DONOR_HYDROGENS      STATIC     ATOMS    <user>   **** ""
2 22 23
ATOM$RED        STATIC     ATOMS    COLORGROUP SYSTEM
2 22 23
@<TRIPOS>COMMENT
> <Gold.Version>
2022.3.0

> <Gold.Id.Protein>
unknown|5adg_clean|pdb

> <Gold.Protein.RotatedTorsions>
[ 5556 5551 5550 5547 ] final  154.70 input   60.01 | X-H torsion
[ 8542 8534 8535 8536 ] final -169.45 input   85.39 | X-H torsion
[ 12870 12858 12859 12860 ] final   78.63 input  110.07 | X-H torsion
[ 12878 12869 12868 12866 ] final   45.72 input   59.97 | X-H torsion
[ 12906 12897 12898 12899 ] final   17.12 input   35.92 | X-H torsion
[ 8434 8429 8430 8431 ] final -173.78 input   45.97 | X-H torsion
[ 8458 8451 8452 8453 ] final  -56.41 input  104.20 | X-H torsion
[ 9002 8998 8999 9000 ] final  -77.56 input   46.10 | X-H torsion
[ 9036 9022 9023 9024 ] final   -2.24 input   36.28 | X-H torsion
[ 9080 9068 9069 9070 ] final  -21.20 input   95.83 | X-H torsion
[ 9088 9079 9078 9076 ] final   79.99 input   59.97 | X-H torsion
[ 9114 9106 9107 9108 ] final  -58.13 input   84.45 | X-H torsion
[ 9192 9183 9184 9185 ] final  -73.84 input  123.29 | X-H torsion
[ 3596 3592 3593 3594 ] final  147.19 input   84.32 | X-H torsion
[ 8984 8978 8979 8980 ] final -151.67 input   29.51 | X-H torsion
[ 9140 9136 9137 9138 ] final   30.99 input  134.07 | X-H torsion
[ 11056 11049 11050 11051 ] final   15.64 input   56.26 | X-H torsion
[ 4893 4888 4887 4884 ] final   72.65 input   60.00 | X-H torsion
[ 8988 8983 8982 8979 ] final   -5.34 input   59.98 | X-H torsion
[ 3550 3542 3543 3544 ] final  169.27 input   80.85 | X-H torsion
[ 8488 8482 8483 8484 ] final   43.16 input   54.31 | X-H torsion
[ 8954 8943 8944 8945 ] final   56.69 input   47.77 | X-H torsion
[ 8514 8506 8507 8508 ] final  118.47 input   67.56 | X-H torsion
[ 5580 5571 5572 5573 ] final -162.26 input   48.82 | X-H torsion
[ 3570 3563 3564 3565 ] final -154.84 input  103.62 | X-H torsion
[ 9229 9212 9213 9214 ] final  -51.44 input   91.82 | X-H torsion
[ 8576 8568 8569 8570 ] final   58.65 input   67.63 | X-H torsion
[ 13465 1235 1234 1233 ] final -119.57 input    0.00 | X-H torsion
[ 13468 5549 5548 5547 ] final  -47.22 input   -0.00 | X-H torsion
[ 13472 8509 8508 8507 ] final  -30.43 input    0.00 | X-H torsion
[ 13479 12900 12899 12898 ] final    3.20 input   -0.00 | X-H torsion
[ 13492 8406 8405 8404 ] final  111.47 input    0.00 | X-H torsion
[ 13496 8946 8945 8944 ] final -146.19 input   -0.00 | X-H torsion
[ 13499 9001 9000 8999 ] final  127.21 input    0.00 | X-H torsion
[ 13502 9025 9024 9023 ] final  -74.65 input    0.00 | X-H torsion
[ 13505 9071 9070 9069 ] final   42.67 input    0.00 | X-H torsion
[ 13510 9109 9108 9107 ] final  155.46 input    0.00 | X-H torsion
[ 13521 8981 8980 8979 ] final   35.32 input   -0.00 | X-H torsion
[ 13523 8351 8350 8349 ] final -144.64 input   -0.00 | X-H torsion
[ 13531 8454 8453 8452 ] final   74.40 input    0.00 | X-H torsion
[ 13533 8432 8431 8430 ] final   62.83 input    0.00 | X-H torsion
[ 13535 3502 3501 3500 ] final  -84.58 input    0.00 | X-H torsion
[ 13543 12828 12827 12826 ] final -139.85 input   -0.00 | X-H torsion

> <Gold.Protein.ActiveResidues>
 TRP311  MET341  HIS342  TRP414  ALA417  ARG419  CYS420  VAL421  GLY422  LEU460 
 SER462  SER482  GLN483  ARG486  ALA502  TYR567  GLY568  LEU569  PRO570  ALA571 
 VAL572  SER573  ASN574  MET575  LEU576  PHE589  SER590  GLY591  TRP592  TYR593 
 MET594  GLY595  GLU597  ILE598  ARG601  ASP602  ARG608  ILE653  VAL654  TRP683 
 PHE709  GLU710  TYR711  GLN712  ASP714  HEM750  H4B760 

> <Gold.Protein.RotatedAtoms>
  119.3593  251.8330  329.0058 H   0  0  0  0  0  0  0  0  0  0  0  0  # atno 3550 bound_to 3542
  121.9008  249.4392  330.2372 H   0  0  0  0  0  0  0  0  0  0  0  0  # atno 3570 bound_to 3563
  123.5746  247.5747  328.0295 H   0  0  0  0  0  0  0  0  0  0  0  0  # atno 3596 bound_to 3592
  126.2342  246.1124  318.2828 H   0  0  0  0  0  0  0  0  0  0  0  0  # atno 4893 bound_to 4888
  107.0973  243.2475  322.1107 H   0  0  0  0  0  0  0  0  0  0  0  0  # atno 5556 bound_to 5551
  108.9754  244.4233  319.6177 H   0  0  0  0  0  0  0  0  0  0  0  0  # atno 5580 bound_to 5571
  116.4930  242.1949  318.6019 H   0  0  0  0  0  0  0  0  0  0  0  0  # atno 8434 bound_to 8429
  114.2967  245.1498  318.0801 H   0  0  0  0  0  0  0  0  0  0  0  0  # atno 8458 bound_to 8451
  110.8597  246.9886  318.8376 H   0  0  0  0  0  0  0  0  0  0  0  0  # atno 8488 bound_to 8482
  109.6565  248.2654  318.9807 H   0  0  0  0  0  0  0  0  0  0  0  0  # atno 8514 bound_to 8506
  109.7594  250.8938  320.2090 H   0  0  0  0  0  0  0  0  0  0  0  0  # atno 8542 bound_to 8534
  110.6179  255.4219  320.7836 H   0  0  0  0  0  0  0  0  0  0  0  0  # atno 8576 bound_to 8568
  115.2080  248.8264  316.7885 H   0  0  0  0  0  0  0  0  0  0  0  0  # atno 8954 bound_to 8943
  117.8627  247.3113  316.9747 H   0  0  0  0  0  0  0  0  0  0  0  0  # atno 8984 bound_to 8978
  120.2983  245.5056  315.4096 H   0  0  0  0  0  0  0  0  0  0  0  0  # atno 8988 bound_to 8983
  120.6313  244.6357  317.9387 H   0  0  0  0  0  0  0  0  0  0  0  0  # atno 9002 bound_to 8998
  122.4236  243.3028  321.4341 H   0  0  0  0  0  0  0  0  0  0  0  0  # atno 9036 bound_to 9022
  122.8990  240.2857  322.8677 H   0  0  0  0  0  0  0  0  0  0  0  0  # atno 9080 bound_to 9068
  114.8715  239.3147  322.4642 H   0  0  0  0  0  0  0  0  0  0  0  0  # atno 9088 bound_to 9079
  121.7605  239.3293  325.7692 H   0  0  0  0  0  0  0  0  0  0  0  0  # atno 9114 bound_to 9106
  122.1431  238.1351  329.3365 H   0  0  0  0  0  0  0  0  0  0  0  0  # atno 9140 bound_to 9136
  117.9145  238.1077  330.9572 H   0  0  0  0  0  0  0  0  0  0  0  0  # atno 9192 bound_to 9183
  116.2058  237.1938  329.2695 H   0  0  0  0  0  0  0  0  0  0  0  0  # atno 9229 bound_to 9212
  125.0688  237.6822  326.1340 H   0  0  0  0  0  0  0  0  0  0  0  0  # atno 11056 bound_to 11049
  109.4963  256.8520  325.2896 H   0  0  0  0  0  0  0  0  0  0  0  0  # atno 12870 bound_to 12858
  111.9448  251.4435  328.5103 H   0  0  0  0  0  0  0  0  0  0  0  0  # atno 12878 bound_to 12869
  106.4309  254.1852  323.2628 H   0  0  0  0  0  0  0  0  0  0  0  0  # atno 12906 bound_to 12897
  109.4412  254.9171  332.3034 LP  0  0  0  0  0  0  0  0  0  0  0  0  # atno 13465 bound_to 1235
  109.4417  253.2869  331.7183 LP  0  0  0  0  0  0  0  0  0  0  0  0  # atno 13466 bound_to 1235
  109.5618  246.7292  319.3587 LP  0  0  0  0  0  0  0  0  0  0  0  0  # atno 13468 bound_to 5549
  110.4530  245.4859  320.1711 LP  0  0  0  0  0  0  0  0  0  0  0  0  # atno 13469 bound_to 5549
  107.8416  243.1768  320.6651 LP  0  0  0  0  0  0  0  0  0  0  0  0  # atno 13470 bound_to 5551
  106.2253  242.9672  320.7655 LP  0  0  0  0  0  0  0  0  0  0  0  0  # atno 13471 bound_to 5551
  106.8941  251.9660  319.8465 LP  0  0  0  0  0  0  0  0  0  0  0  0  # atno 13472 bound_to 8509
  108.0552  252.5636  320.9843 LP  0  0  0  0  0  0  0  0  0  0  0  0  # atno 13473 bound_to 8509
  109.9404  251.6321  318.6393 LP  0  0  0  0  0  0  0  0  0  0  0  0  # atno 13474 bound_to 8534
  110.3244  255.9108  324.0730 LP  0  0  0  0  0  0  0  0  0  0  0  0  # atno 13475 bound_to 12858
  110.7508  251.2002  329.5892 LP  0  0  0  0  0  0  0  0  0  0  0  0  # atno 13476 bound_to 12869
  111.7395  252.4913  329.7387 LP  0  0  0  0  0  0  0  0  0  0  0  0  # atno 13477 bound_to 12869
  107.2279  255.7405  323.2419 LP  0  0  0  0  0  0  0  0  0  0  0  0  # atno 13478 bound_to 12897
  105.2732  253.2753  322.9547 LP  0  0  0  0  0  0  0  0  0  0  0  0  # atno 13479 bound_to 12900
  103.5770  252.9532  322.8163 LP  0  0  0  0  0  0  0  0  0  0  0  0  # atno 13480 bound_to 12900
  118.2352  243.3748  318.2373 LP  0  0  0  0  0  0  0  0  0  0  0  0  # atno 13492 bound_to 8406
  118.1362  243.7062  319.9344 LP  0  0  0  0  0  0  0  0  0  0  0  0  # atno 13493 bound_to 8406
  114.9195  242.5318  319.2801 LP  0  0  0  0  0  0  0  0  0  0  0  0  # atno 13494 bound_to 8429
  115.3060  245.6883  319.4052 LP  0  0  0  0  0  0  0  0  0  0  0  0  # atno 13495 bound_to 8451
  116.8984  246.3036  318.4341 LP  0  0  0  0  0  0  0  0  0  0  0  0  # atno 13496 bound_to 8946
  115.7462  246.8426  317.2585 LP  0  0  0  0  0  0  0  0  0  0  0  0  # atno 13497 bound_to 8946
  120.1559  245.1185  319.5514 LP  0  0  0  0  0  0  0  0  0  0  0  0  # atno 13498 bound_to 8998
  122.9246  241.6223  318.3502 LP  0  0  0  0  0  0  0  0  0  0  0  0  # atno 13499 bound_to 9001
  121.3595  242.3101  318.0716 LP  0  0  0  0  0  0  0  0  0  0  0  0  # atno 13500 bound_to 9001
  123.0448  242.9657  319.8397 LP  0  0  0  0  0  0  0  0  0  0  0  0  # atno 13501 bound_to 9022
  122.9728  242.5472  323.5116 LP  0  0  0  0  0  0  0  0  0  0  0  0  # atno 13502 bound_to 9025
  121.2493  242.4546  323.3657 LP  0  0  0  0  0  0  0  0  0  0  0  0  # atno 13503 bound_to 9025
  121.5183  239.5991  322.0418 LP  0  0  0  0  0  0  0  0  0  0  0  0  # atno 13504 bound_to 9068
  123.9677  239.4072  324.4118 LP  0  0  0  0  0  0  0  0  0  0  0  0  # atno 13505 bound_to 9071
  123.8237  238.5512  325.9107 LP  0  0  0  0  0  0  0  0  0  0  0  0  # atno 13506 bound_to 9071
  114.5611  238.2589  323.6633 LP  0  0  0  0  0  0  0  0  0  0  0  0  # atno 13507 bound_to 9079
  114.9251  237.7153  322.1670 LP  0  0  0  0  0  0  0  0  0  0  0  0  # atno 13508 bound_to 9079
  121.4301  240.9390  326.3703 LP  0  0  0  0  0  0  0  0  0  0  0  0  # atno 13509 bound_to 9106
  119.7757  237.6513  328.1144 LP  0  0  0  0  0  0  0  0  0  0  0  0  # atno 13510 bound_to 9109
  119.8406  239.3805  328.1884 LP  0  0  0  0  0  0  0  0  0  0  0  0  # atno 13511 bound_to 9109
  118.8984  238.3970  329.5446 LP  0  0  0  0  0  0  0  0  0  0  0  0  # atno 13512 bound_to 9183
  124.5853  248.9467  328.3986 LP  0  0  0  0  0  0  0  0  0  0  0  0  # atno 13519 bound_to 3592
  119.5268  247.5293  316.4951 LP  0  0  0  0  0  0  0  0  0  0  0  0  # atno 13520 bound_to 8978
  121.1974  247.2719  317.0743 LP  0  0  0  0  0  0  0  0  0  0  0  0  # atno 13521 bound_to 8981
  122.3770  246.0173  317.2605 LP  0  0  0  0  0  0  0  0  0  0  0  0  # atno 13522 bound_to 8981
  119.8693  238.1041  319.6513 LP  0  0  0  0  0  0  0  0  0  0  0  0  # atno 13523 bound_to 8351
  121.0617  236.8904  319.3270 LP  0  0  0  0  0  0  0  0  0  0  0  0  # atno 13524 bound_to 8351
  122.6946  237.4738  327.8126 LP  0  0  0  0  0  0  0  0  0  0  0  0  # atno 13525 bound_to 9136
  126.4213  237.9043  325.0530 LP  0  0  0  0  0  0  0  0  0  0  0  0  # atno 13526 bound_to 11049
  124.6809  245.8396  318.6839 LP  0  0  0  0  0  0  0  0  0  0  0  0  # atno 13527 bound_to 4888
  125.4556  247.1582  319.2566 LP  0  0  0  0  0  0  0  0  0  0  0  0  # atno 13528 bound_to 4888
  119.2136  244.7248  314.4814 LP  0  0  0  0  0  0  0  0  0  0  0  0  # atno 13529 bound_to 8983
  120.3547  243.8836  315.2920 LP  0  0  0  0  0  0  0  0  0  0  0  0  # atno 13530 bound_to 8983
  114.2078  247.8839  317.1693 LP  0  0  0  0  0  0  0  0  0  0  0  0  # atno 13531 bound_to 8454
  113.5462  249.1796  318.1092 LP  0  0  0  0  0  0  0  0  0  0  0  0  # atno 13532 bound_to 8454
  112.7680  243.5213  317.6817 LP  0  0  0  0  0  0  0  0  0  0  0  0  # atno 13533 bound_to 8432
  112.7437  245.0874  316.9423 LP  0  0  0  0  0  0  0  0  0  0  0  0  # atno 13534 bound_to 8432
  119.5334  249.5315  331.4035 LP  0  0  0  0  0  0  0  0  0  0  0  0  # atno 13535 bound_to 3502
  118.4794  249.3441  330.0419 LP  0  0  0  0  0  0  0  0  0  0  0  0  # atno 13536 bound_to 3502
  120.5576  251.7414  330.2727 LP  0  0  0  0  0  0  0  0  0  0  0  0  # atno 13537 bound_to 3542
  112.4783  247.2680  318.2456 LP  0  0  0  0  0  0  0  0  0  0  0  0  # atno 13538 bound_to 8482
  115.5481  249.0189  315.0860 LP  0  0  0  0  0  0  0  0  0  0  0  0  # atno 13539 bound_to 8943
  110.1829  249.5483  317.9206 LP  0  0  0  0  0  0  0  0  0  0  0  0  # atno 13541 bound_to 8506
  108.2055  243.3710  318.4501 LP  0  0  0  0  0  0  0  0  0  0  0  0  # atno 13542 bound_to 5571
  109.3185  255.4861  322.1351 LP  0  0  0  0  0  0  0  0  0  0  0  0  # atno 13543 bound_to 12828
  111.0460  255.4377  322.0202 LP  0  0  0  0  0  0  0  0  0  0  0  0  # atno 13544 bound_to 12828

> <Gold.Score>
     Fitness  S(hb_ext) S(vdw_ext)  S(hb_int)    S(int)      intcor
     31.94      10.80      15.50       0.00      -0.16      -0.79

> <Gold.Goldscore.Fitness>
31.9379

> <Gold.Goldscore.Internal.Vdw>
-0.3952

> <Gold.Goldscore.Internal.Torsion>
-0.5548

> <Gold.Goldscore.External.Vdw>
15.4960

> <Gold.Goldscore.Internal.HBond>
0.0000

> <Gold.Goldscore.External.HBond>
10.7960

> <Gold.Goldscore.Internal.Correction>
-0.7850

> <Gold.Goldscore.Hbonds>
donor molecule, donor type, donor heavy atom, donor atom, acceptor molecule, acceptor atom, score
      L1  H     8    22       P1 13316  0.80
      L1  H    10    23       P1  8513  1.00

> <Gold.Goldscore.Internal.Vdw.Weighted>
-0.3952

> <Gold.Goldscore.Internal.Torsion.Weighted>
-0.5548

> <Gold.Goldscore.External.Vdw.Weighted>
21.3069

> <Gold.Goldscore.Internal.HBond.Weighted>
0.0000

> <Gold.Goldscore.External.HBond.Weighted>
10.7960

> <Gold.Goldscore.Internal.Correction.Weighted>
-0.7850

> <Gold.Rescore>
     Score     S(PLP)   S(hbond)     S(cho)   S(metal)  DE(clash)   DE(tors)     intcor
     25.64     -25.76       0.70       0.00       0.00       0.00       1.11       ----

> <Gold.PLP.Fitness>
25.6406

> <Gold.PLP.PLP>
-25.7638

> <Gold.PLP.part.hbond>
-1.0000

> <Gold.PLP.part.metal>
0.0000

> <Gold.PLP.part.buried>
-5.4463

> <Gold.PLP.part.nonpolar>
-20.6363

> <Gold.PLP.part.repulsive>
1.1847

> <Gold.PLP.ligand.clash>
0.0000

> <Gold.PLP.ligand.torsion>
1.1116

> <Gold.PLP.Chemscore.Hbond>
0.7000

> <Gold.PLP.Chemscore.CHOScore>
0.0000

> <Gold.PLP.Chemscore.Metal>
0.0000

> <Gold.Chemscore.Hbonds>
donor molecule, donor type, donor heavy atom, donor atom, acceptor molecule, acceptor atom, score
      L1  H     8    22       P1 13316  0.78
      L1  H    10    23       P1  8513  1.00

> <Gold.PLP.Chemscore.Internal.Correction>
   9.000000E+99

#       Name:                CT1002167954
#       Creating user name   hitesit
#       Creation time:       Sun Apr 16 22:52:42 2023


#       File generated by GOLD software.
#

@<TRIPOS>MOLECULE
CT1002167954|ligand_prepared|mol2|1|dock9
    29    30     1
SMALL
NO_CHARGES


@<TRIPOS>ATOM
      1 C1         111.9113 242.3948 328.3615 C.3            1 RES1               0.0000
      2 C2         112.4909 242.8528 327.0076 C.ar           1 RES1               0.0000
      3 C3         112.8782 241.3496 328.9100 C.2            1 RES1               0.0000
      4 C4         111.7960 243.6480 329.2222 C.2            1 RES1               0.0000
      5 C5         110.5065 241.7569 328.2560 C.3            1 RES1               0.0000
      6 C6         111.7827 243.7330 326.1949 C.ar           1 RES1               0.0000
      7 C7         113.7316 242.4067 326.5599 C.ar           1 RES1               0.0000
      8 N8         113.6816 241.7158 329.9494 N.am           1 RES1               0.0000
      9 O9         112.9625 240.2336 328.4123 O.2            1 RES1               0.0000
     10 N10        112.5853 243.7348 330.3390 N.am           1 RES1               0.0000
     11 O11        111.0410 244.5685 328.9342 O.2            1 RES1               0.0000
     12 C12        109.9495 241.2768 329.5869 C.3            1 RES1               0.0000
     13 C13        112.2974 244.1543 324.9801 C.ar           1 RES1               0.0000
     14 C14        114.2443 242.8291 325.3445 C.ar           1 RES1               0.0000
     15 C15        113.5450 242.8391 330.7248 C.2            1 RES1               0.0000
     16 C16        113.5285 243.7031 324.5543 C.ar           1 RES1               0.0000
     17 O17        114.2529 243.0134 331.7126 O.2            1 RES1               0.0000
     18 H18        109.8151 242.4939 327.8291 H              1 RES1               0.0000
     19 H19        110.5563 240.9052 327.5663 H              1 RES1               0.0000
     20 H20        110.8112 244.0969 326.5123 H              1 RES1               0.0000
     21 H21        114.3118 241.7180 327.1646 H              1 RES1               0.0000
     22 H22        114.4555 241.0974 330.1705 H              1 RES1               0.0000
     23 H23        112.4441 244.5417 330.9384 H              1 RES1               0.0000
     24 H24        108.9626 240.8380 329.4563 H              1 RES1               0.0000
     25 H25        110.5994 240.5240 330.0281 H              1 RES1               0.0000
     26 H26        109.8627 242.1032 330.2893 H              1 RES1               0.0000
     27 H27        111.7295 244.8412 324.3612 H              1 RES1               0.0000
     28 H28        115.2133 242.4709 325.0131 H              1 RES1               0.0000
     29 H29        113.9316 244.0336 323.6027 H              1 RES1               0.0000
@<TRIPOS>BOND
    1    1    2 1     
    2    1    3 1     
    3    1    4 1     
    4    1    5 1     
    5    2    6 ar    
    6    2    7 ar    
    7    3    8 1     
    8    3    9 2     
    9    4   10 1     
   10    4   11 2     
   11    5   12 1     
   12    5   18 1     
   13    5   19 1     
   14    6   13 ar    
   15    6   20 1     
   16    7   14 ar    
   17    7   21 1     
   18    8   15 1     
   19    8   22 1     
   20   10   15 1     
   21   10   23 1     
   22   12   24 1     
   23   12   25 1     
   24   12   26 1     
   25   13   16 ar    
   26   13   27 1     
   27   14   16 ar    
   28   14   28 1     
   29   15   17 2     
   30   16   29 1     
@<TRIPOS>SUBSTRUCTURE
      1 RES1           1
@<TRIPOS>SET
DONOR_HYDROGENS      STATIC     ATOMS    <user>   **** ""
2 22 23
ATOM$RED        STATIC     ATOMS    COLORGROUP SYSTEM
2 22 23
@<TRIPOS>COMMENT
> <Gold.Version>
2022.3.0

> <Gold.Id.Protein>
unknown|5adg_clean|pdb

> <Gold.Protein.RotatedTorsions>
[ 5556 5551 5550 5547 ] final  -41.08 input   60.01 | X-H torsion
[ 8542 8534 8535 8536 ] final  158.22 input   85.39 | X-H torsion
[ 12870 12858 12859 12860 ] final  -87.03 input  110.07 | X-H torsion
[ 12878 12869 12868 12866 ] final -172.32 input   59.97 | X-H torsion
[ 12906 12897 12898 12899 ] final   94.85 input   35.92 | X-H torsion
[ 8434 8429 8430 8431 ] final   72.60 input   45.97 | X-H torsion
[ 8458 8451 8452 8453 ] final    0.17 input  104.20 | X-H torsion
[ 9002 8998 8999 9000 ] final  -44.03 input   46.10 | X-H torsion
[ 9036 9022 9023 9024 ] final -100.13 input   36.28 | X-H torsion
[ 9080 9068 9069 9070 ] final   35.40 input   95.83 | X-H torsion
[ 9088 9079 9078 9076 ] final   30.81 input   59.97 | X-H torsion
[ 9114 9106 9107 9108 ] final   36.79 input   84.45 | X-H torsion
[ 9192 9183 9184 9185 ] final   59.00 input  123.29 | X-H torsion
[ 3596 3592 3593 3594 ] final  -57.75 input   84.32 | X-H torsion
[ 8984 8978 8979 8980 ] final  117.77 input   29.51 | X-H torsion
[ 9140 9136 9137 9138 ] final  108.84 input  134.07 | X-H torsion
[ 11056 11049 11050 11051 ] final   53.48 input   56.26 | X-H torsion
[ 4893 4888 4887 4884 ] final -124.11 input   60.00 | X-H torsion
[ 8988 8983 8982 8979 ] final -138.39 input   59.98 | X-H torsion
[ 3550 3542 3543 3544 ] final -156.93 input   80.85 | X-H torsion
[ 8488 8482 8483 8484 ] final  178.31 input   54.31 | X-H torsion
[ 8954 8943 8944 8945 ] final  117.21 input   47.77 | X-H torsion
[ 8514 8506 8507 8508 ] final  -36.71 input   67.56 | X-H torsion
[ 5580 5571 5572 5573 ] final  155.12 input   48.82 | X-H torsion
[ 3570 3563 3564 3565 ] final -152.67 input  103.62 | X-H torsion
[ 9229 9212 9213 9214 ] final   39.36 input   91.82 | X-H torsion
[ 8576 8568 8569 8570 ] final  174.15 input   67.63 | X-H torsion
[ 13465 1235 1234 1233 ] final  -76.39 input    0.00 | X-H torsion
[ 13468 5549 5548 5547 ] final -135.47 input   -0.00 | X-H torsion
[ 13472 8509 8508 8507 ] final  121.91 input    0.00 | X-H torsion
[ 13479 12900 12899 12898 ] final   37.39 input   -0.00 | X-H torsion
[ 13492 8406 8405 8404 ] final -112.61 input    0.00 | X-H torsion
[ 13496 8946 8945 8944 ] final  134.37 input   -0.00 | X-H torsion
[ 13499 9001 9000 8999 ] final   59.91 input    0.00 | X-H torsion
[ 13502 9025 9024 9023 ] final  -73.48 input    0.00 | X-H torsion
[ 13505 9071 9070 9069 ] final -156.36 input    0.00 | X-H torsion
[ 13510 9109 9108 9107 ] final -139.95 input    0.00 | X-H torsion
[ 13521 8981 8980 8979 ] final    3.95 input   -0.00 | X-H torsion
[ 13523 8351 8350 8349 ] final -144.15 input   -0.00 | X-H torsion
[ 13531 8454 8453 8452 ] final   24.38 input    0.00 | X-H torsion
[ 13533 8432 8431 8430 ] final  -41.86 input    0.00 | X-H torsion
[ 13535 3502 3501 3500 ] final -113.05 input    0.00 | X-H torsion
[ 13543 12828 12827 12826 ] final  -15.63 input   -0.00 | X-H torsion

> <Gold.Protein.ActiveResidues>
 TRP311  MET341  HIS342  TRP414  ALA417  ARG419  CYS420  VAL421  GLY422  LEU460 
 SER462  SER482  GLN483  ARG486  ALA502  TYR567  GLY568  LEU569  PRO570  ALA571 
 VAL572  SER573  ASN574  MET575  LEU576  PHE589  SER590  GLY591  TRP592  TYR593 
 MET594  GLY595  GLU597  ILE598  ARG601  ASP602  ARG608  ILE653  VAL654  TRP683 
 PHE709  GLU710  TYR711  GLN712  ASP714  HEM750  H4B760 

> <Gold.Protein.RotatedAtoms>
  119.1999  251.4749  329.3360 H   0  0  0  0  0  0  0  0  0  0  0  0  # atno 3550 bound_to 3542
  121.9158  249.4668  330.2252 H   0  0  0  0  0  0  0  0  0  0  0  0  # atno 3570 bound_to 3563
  124.7269  248.6874  328.6324 H   0  0  0  0  0  0  0  0  0  0  0  0  # atno 3596 bound_to 3592
  124.8437  246.8348  319.2706 H   0  0  0  0  0  0  0  0  0  0  0  0  # atno 4893 bound_to 4888
  106.7614  242.9893  320.3044 H   0  0  0  0  0  0  0  0  0  0  0  0  # atno 5556 bound_to 5551
  108.9061  243.8243  319.8510 H   0  0  0  0  0  0  0  0  0  0  0  0  # atno 5580 bound_to 5571
  115.0391  241.9589  318.5241 H   0  0  0  0  0  0  0  0  0  0  0  0  # atno 8434 bound_to 8429
  114.7388  245.8612  317.9823 H   0  0  0  0  0  0  0  0  0  0  0  0  # atno 8458 bound_to 8451
  112.2375  246.6890  318.0209 H   0  0  0  0  0  0  0  0  0  0  0  0  # atno 8488 bound_to 8482
  110.3611  249.6454  318.2365 H   0  0  0  0  0  0  0  0  0  0  0  0  # atno 8514 bound_to 8506
  110.2238  250.8204  320.0769 H   0  0  0  0  0  0  0  0  0  0  0  0  # atno 8542 bound_to 8534
  109.5923  254.8390  319.8549 H   0  0  0  0  0  0  0  0  0  0  0  0  # atno 8576 bound_to 8568
  115.3467  249.6364  316.4479 H   0  0  0  0  0  0  0  0  0  0  0  0  # atno 8954 bound_to 8943
  118.5331  247.0547  315.9510 H   0  0  0  0  0  0  0  0  0  0  0  0  # atno 8984 bound_to 8978
  119.2434  244.5133  314.4869 H   0  0  0  0  0  0  0  0  0  0  0  0  # atno 8988 bound_to 8983
  120.4739  244.2121  318.1793 H   0  0  0  0  0  0  0  0  0  0  0  0  # atno 9002 bound_to 8998
  121.9671  243.0548  320.2176 H   0  0  0  0  0  0  0  0  0  0  0  0  # atno 9036 bound_to 9022
  122.8947  239.4580  322.7186 H   0  0  0  0  0  0  0  0  0  0  0  0  # atno 9080 bound_to 9068
  114.6844  239.2447  323.2175 H   0  0  0  0  0  0  0  0  0  0  0  0  # atno 9088 bound_to 9079
  120.7872  239.9457  326.3910 H   0  0  0  0  0  0  0  0  0  0  0  0  # atno 9114 bound_to 9106
  123.0844  237.5741  329.1138 H   0  0  0  0  0  0  0  0  0  0  0  0  # atno 9140 bound_to 9136
  118.6275  237.7533  329.5530 H   0  0  0  0  0  0  0  0  0  0  0  0  # atno 9192 bound_to 9183
  117.3165  236.5850  329.1892 H   0  0  0  0  0  0  0  0  0  0  0  0  # atno 9229 bound_to 9212
  125.0642  238.2192  325.9396 H   0  0  0  0  0  0  0  0  0  0  0  0  # atno 11056 bound_to 11049
  110.2386  256.0451  323.9229 H   0  0  0  0  0  0  0  0  0  0  0  0  # atno 12870 bound_to 12858
  111.4604  252.3797  329.9331 H   0  0  0  0  0  0  0  0  0  0  0  0  # atno 12878 bound_to 12869
  107.1246  254.6022  322.5032 H   0  0  0  0  0  0  0  0  0  0  0  0  # atno 12906 bound_to 12897
  109.8129  254.5406  332.6587 LP  0  0  0  0  0  0  0  0  0  0  0  0  # atno 13465 bound_to 1235
  109.0700  253.6634  331.3631 LP  0  0  0  0  0  0  0  0  0  0  0  0  # atno 13466 bound_to 1235
  110.4038  245.9377  319.0138 LP  0  0  0  0  0  0  0  0  0  0  0  0  # atno 13468 bound_to 5549
  109.6110  246.2775  320.5159 LP  0  0  0  0  0  0  0  0  0  0  0  0  # atno 13469 bound_to 5549
  106.4349  243.1284  321.8927 LP  0  0  0  0  0  0  0  0  0  0  0  0  # atno 13470 bound_to 5551
  107.9701  243.2756  321.3560 LP  0  0  0  0  0  0  0  0  0  0  0  0  # atno 13471 bound_to 5551
  107.9059  252.2225  321.1652 LP  0  0  0  0  0  0  0  0  0  0  0  0  # atno 13472 bound_to 8509
  107.0433  252.3071  319.6656 LP  0  0  0  0  0  0  0  0  0  0  0  0  # atno 13473 bound_to 8509
  109.4812  251.7047  318.7699 LP  0  0  0  0  0  0  0  0  0  0  0  0  # atno 13474 bound_to 8534
  109.5981  256.7002  325.4101 LP  0  0  0  0  0  0  0  0  0  0  0  0  # atno 13475 bound_to 12858
  112.1290  251.7387  328.5949 LP  0  0  0  0  0  0  0  0  0  0  0  0  # atno 13476 bound_to 12869
  110.8491  251.0104  329.3007 LP  0  0  0  0  0  0  0  0  0  0  0  0  # atno 13477 bound_to 12869
  106.5509  255.3337  323.9831 LP  0  0  0  0  0  0  0  0  0  0  0  0  # atno 13478 bound_to 12897
  105.0664  253.3627  323.4118 LP  0  0  0  0  0  0  0  0  0  0  0  0  # atno 13479 bound_to 12900
  103.7838  252.8657  322.3592 LP  0  0  0  0  0  0  0  0  0  0  0  0  # atno 13480 bound_to 12900
  117.7835  244.1242  319.5833 LP  0  0  0  0  0  0  0  0  0  0  0  0  # atno 13492 bound_to 8406
  118.5880  242.9567  318.5884 LP  0  0  0  0  0  0  0  0  0  0  0  0  # atno 13493 bound_to 8406
  116.3465  242.7635  319.3565 LP  0  0  0  0  0  0  0  0  0  0  0  0  # atno 13494 bound_to 8429
  114.8783  244.9999  319.4998 LP  0  0  0  0  0  0  0  0  0  0  0  0  # atno 13495 bound_to 8451
  116.5854  245.8324  317.4826 LP  0  0  0  0  0  0  0  0  0  0  0  0  # atno 13496 bound_to 8946
  116.0592  247.3137  318.2099 LP  0  0  0  0  0  0  0  0  0  0  0  0  # atno 13497 bound_to 8946
  120.3087  245.5299  319.3178 LP  0  0  0  0  0  0  0  0  0  0  0  0  # atno 13498 bound_to 8998
  122.7670  242.3654  317.7637 LP  0  0  0  0  0  0  0  0  0  0  0  0  # atno 13499 bound_to 9001
  121.5171  241.5669  318.6581 LP  0  0  0  0  0  0  0  0  0  0  0  0  # atno 13500 bound_to 9001
  123.4960  243.2108  321.0421 LP  0  0  0  0  0  0  0  0  0  0  0  0  # atno 13501 bound_to 9022
  122.9733  242.5573  323.4970 LP  0  0  0  0  0  0  0  0  0  0  0  0  # atno 13502 bound_to 9025
  121.2488  242.4445  323.3803 LP  0  0  0  0  0  0  0  0  0  0  0  0  # atno 13503 bound_to 9025
  121.5224  240.4035  322.1867 LP  0  0  0  0  0  0  0  0  0  0  0  0  # atno 13504 bound_to 9068
  123.9291  238.7991  326.0077 LP  0  0  0  0  0  0  0  0  0  0  0  0  # atno 13505 bound_to 9071
  123.8623  239.1593  324.3148 LP  0  0  0  0  0  0  0  0  0  0  0  0  # atno 13506 bound_to 9071
  114.6628  237.6173  323.2231 LP  0  0  0  0  0  0  0  0  0  0  0  0  # atno 13507 bound_to 9079
  115.0119  238.4272  321.8487 LP  0  0  0  0  0  0  0  0  0  0  0  0  # atno 13508 bound_to 9079
  122.3734  240.3416  325.7675 LP  0  0  0  0  0  0  0  0  0  0  0  0  # atno 13509 bound_to 9106
  119.7498  238.1131  328.9158 LP  0  0  0  0  0  0  0  0  0  0  0  0  # atno 13510 bound_to 9109
  119.8666  238.9187  327.3869 LP  0  0  0  0  0  0  0  0  0  0  0  0  # atno 13511 bound_to 9109
  118.1981  238.7451  330.9239 LP  0  0  0  0  0  0  0  0  0  0  0  0  # atno 13512 bound_to 9183
  123.4452  247.8458  327.8021 LP  0  0  0  0  0  0  0  0  0  0  0  0  # atno 13519 bound_to 3592
  118.8671  247.7818  317.5024 LP  0  0  0  0  0  0  0  0  0  0  0  0  # atno 13520 bound_to 8978
  121.1711  247.0145  316.6841 LP  0  0  0  0  0  0  0  0  0  0  0  0  # atno 13521 bound_to 8981
  122.4033  246.2748  317.6508 LP  0  0  0  0  0  0  0  0  0  0  0  0  # atno 13522 bound_to 8981
  119.8670  238.1002  319.6572 LP  0  0  0  0  0  0  0  0  0  0  0  0  # atno 13523 bound_to 8351
  121.0640  236.8943  319.3212 LP  0  0  0  0  0  0  0  0  0  0  0  0  # atno 13524 bound_to 8351
  121.7846  238.0162  328.0279 LP  0  0  0  0  0  0  0  0  0  0  0  0  # atno 13525 bound_to 9136
  126.4259  237.3770  325.2439 LP  0  0  0  0  0  0  0  0  0  0  0  0  # atno 13526 bound_to 11049
  126.3346  246.7015  318.6322 LP  0  0  0  0  0  0  0  0  0  0  0  0  # atno 13527 bound_to 4888
  125.2025  245.5686  318.3134 LP  0  0  0  0  0  0  0  0  0  0  0  0  # atno 13528 bound_to 4888
  120.4863  244.0075  315.4072 LP  0  0  0  0  0  0  0  0  0  0  0  0  # atno 13529 bound_to 8983
  120.1445  245.6004  315.2957 LP  0  0  0  0  0  0  0  0  0  0  0  0  # atno 13530 bound_to 8983
  114.5407  248.0025  317.8107 LP  0  0  0  0  0  0  0  0  0  0  0  0  # atno 13531 bound_to 8454
  113.2133  249.0609  317.4678 LP  0  0  0  0  0  0  0  0  0  0  0  0  # atno 13532 bound_to 8454
  113.1652  244.1969  316.5564 LP  0  0  0  0  0  0  0  0  0  0  0  0  # atno 13533 bound_to 8432
  112.3465  244.4119  318.0676 LP  0  0  0  0  0  0  0  0  0  0  0  0  # atno 13534 bound_to 8432
  119.7903  249.4025  331.0891 LP  0  0  0  0  0  0  0  0  0  0  0  0  # atno 13535 bound_to 3502
  118.2225  249.4731  330.3562 LP  0  0  0  0  0  0  0  0  0  0  0  0  # atno 13536 bound_to 3502
  120.7139  252.0928  329.9487 LP  0  0  0  0  0  0  0  0  0  0  0  0  # atno 13537 bound_to 3542
  111.1266  247.5620  319.0468 LP  0  0  0  0  0  0  0  0  0  0  0  0  # atno 13538 bound_to 8482
  115.4123  248.2259  315.4195 LP  0  0  0  0  0  0  0  0  0  0  0  0  # atno 13539 bound_to 8943
  109.4901  248.1912  318.6525 LP  0  0  0  0  0  0  0  0  0  0  0  0  # atno 13541 bound_to 8506
  108.2725  243.9505  318.2244 LP  0  0  0  0  0  0  0  0  0  0  0  0  # atno 13542 bound_to 5571
  110.6620  256.0722  321.6938 LP  0  0  0  0  0  0  0  0  0  0  0  0  # atno 13543 bound_to 12828
  109.7025  254.8516  322.4616 LP  0  0  0  0  0  0  0  0  0  0  0  0  # atno 13544 bound_to 12828

> <Gold.Score>
     Fitness  S(hb_ext) S(vdw_ext)  S(hb_int)    S(int)      intcor
     31.60       4.42      21.33       0.00      -2.15      -0.76

> <Gold.Goldscore.Fitness>
31.5971

> <Gold.Goldscore.Internal.Vdw>
-2.5352

> <Gold.Goldscore.Internal.Torsion>
-0.3709

> <Gold.Goldscore.External.Vdw>
21.3267

> <Gold.Goldscore.Internal.HBond>
0.0000

> <Gold.Goldscore.External.HBond>
4.4204

> <Gold.Goldscore.Internal.Correction>
-0.7585

> <Gold.Goldscore.Hbonds>
donor molecule, donor type, donor heavy atom, donor atom, acceptor molecule, acceptor atom, score
      L1  H    10    23       P1 13424  0.74

> <Gold.Goldscore.Internal.Vdw.Weighted>
-2.5352

> <Gold.Goldscore.Internal.Torsion.Weighted>
-0.3709

> <Gold.Goldscore.External.Vdw.Weighted>
29.3243

> <Gold.Goldscore.Internal.HBond.Weighted>
0.0000

> <Gold.Goldscore.External.HBond.Weighted>
4.4204

> <Gold.Goldscore.Internal.Correction.Weighted>
-0.7585

> <Gold.Rescore>
     Score     S(PLP)   S(hbond)     S(cho)   S(metal)  DE(clash)   DE(tors)     intcor
     -9.74      11.92       1.21       0.00       0.00       1.37       0.03       ----

> <Gold.PLP.Fitness>
-9.7362

> <Gold.PLP.PLP>
11.9234

> <Gold.PLP.part.hbond>
-3.3953

> <Gold.PLP.part.metal>
0.0000

> <Gold.PLP.part.buried>
19.4941

> <Gold.PLP.part.nonpolar>
-18.5383

> <Gold.PLP.part.repulsive>
11.8810

> <Gold.PLP.ligand.clash>
1.3709

> <Gold.PLP.ligand.torsion>
0.0329

> <Gold.PLP.Chemscore.Hbond>
1.2080

> <Gold.PLP.Chemscore.CHOScore>
0.0000

> <Gold.PLP.Chemscore.Metal>
0.0000

> <Gold.Chemscore.Hbonds>
donor molecule, donor type, donor heavy atom, donor atom, acceptor molecule, acceptor atom, score
      L1  H    10    23       P1 13424  1.00
      P1  H  9308  9333       L1    17  0.27

> <Gold.PLP.Chemscore.Internal.Correction>
   9.000000E+99

#       Name:                CT1002167954
#       Creating user name   hitesit
#       Creation time:       Sun Apr 16 22:52:41 2023


#       File generated by GOLD software.
#

@<TRIPOS>MOLECULE
CT1002167954|ligand_prepared|mol2|1|dock7
    29    30     1
SMALL
NO_CHARGES


@<TRIPOS>ATOM
      1 C1         112.2464 242.3346 327.2833 C.3            1 RES1               0.0000
      2 C2         112.6433 243.6635 326.6085 C.ar           1 RES1               0.0000
      3 C3         111.0012 241.8389 326.5539 C.2            1 RES1               0.0000
      4 C4         113.4532 241.4121 327.1514 C.2            1 RES1               0.0000
      5 C5         111.9126 242.4726 328.7870 C.3            1 RES1               0.0000
      6 C6         112.0210 244.8549 326.9692 C.ar           1 RES1               0.0000
      7 C7         113.6300 243.7142 325.6275 C.ar           1 RES1               0.0000
      8 N8         111.1454 240.7821 325.7040 N.am           1 RES1               0.0000
      9 O9         109.9171 242.3919 326.6921 O.2            1 RES1               0.0000
     10 N10        113.3231 240.2920 326.3728 N.am           1 RES1               0.0000
     11 O11        114.5207 241.6539 327.7013 O.2            1 RES1               0.0000
     12 C12        111.7983 241.1422 329.5143 C.3            1 RES1               0.0000
     13 C13        112.3743 246.0540 326.3729 C.ar           1 RES1               0.0000
     14 C14        113.9816 244.9145 325.0323 C.ar           1 RES1               0.0000
     15 C15        112.2336 239.9513 325.6185 C.2            1 RES1               0.0000
     16 C16        113.3550 246.0848 325.4045 C.ar           1 RES1               0.0000
     17 O17        112.2120 238.9557 324.9005 O.2            1 RES1               0.0000
     18 H18        112.6947 243.0724 329.2687 H              1 RES1               0.0000
     19 H19        110.9639 243.0138 328.8898 H              1 RES1               0.0000
     20 H20        111.2452 244.8500 327.7277 H              1 RES1               0.0000
     21 H21        114.1356 242.8059 325.3181 H              1 RES1               0.0000
     22 H22        110.3728 240.5920 325.0738 H              1 RES1               0.0000
     23 H23        114.1115 239.6529 326.3540 H              1 RES1               0.0000
     24 H24        111.5631 241.2961 330.5653 H              1 RES1               0.0000
     25 H25        111.0123 240.5299 329.0772 H              1 RES1               0.0000
     26 H26        112.7328 240.5881 329.4538 H              1 RES1               0.0000
     27 H27        111.8772 246.9721 326.6685 H              1 RES1               0.0000
     28 H28        114.7536 244.9339 324.2701 H              1 RES1               0.0000
     29 H29        113.6319 247.0243 324.9378 H              1 RES1               0.0000
@<TRIPOS>BOND
    1    1    2 1     
    2    1    3 1     
    3    1    4 1     
    4    1    5 1     
    5    2    6 ar    
    6    2    7 ar    
    7    3    8 1     
    8    3    9 2     
    9    4   10 1     
   10    4   11 2     
   11    5   12 1     
   12    5   18 1     
   13    5   19 1     
   14    6   13 ar    
   15    6   20 1     
   16    7   14 ar    
   17    7   21 1     
   18    8   15 1     
   19    8   22 1     
   20   10   15 1     
   21   10   23 1     
   22   12   24 1     
   23   12   25 1     
   24   12   26 1     
   25   13   16 ar    
   26   13   27 1     
   27   14   16 ar    
   28   14   28 1     
   29   15   17 2     
   30   16   29 1     
@<TRIPOS>SUBSTRUCTURE
      1 RES1           1
@<TRIPOS>SET
DONOR_HYDROGENS      STATIC     ATOMS    <user>   **** ""
2 22 23
ATOM$RED        STATIC     ATOMS    COLORGROUP SYSTEM
2 22 23
@<TRIPOS>COMMENT
> <Gold.Version>
2022.3.0

> <Gold.Id.Protein>
unknown|5adg_clean|pdb

> <Gold.Protein.RotatedTorsions>
[ 5556 5551 5550 5547 ] final   83.09 input   60.01 | X-H torsion
[ 8542 8534 8535 8536 ] final  123.73 input   85.39 | X-H torsion
[ 12870 12858 12859 12860 ] final -170.82 input  110.07 | X-H torsion
[ 12878 12869 12868 12866 ] final  -32.43 input   59.97 | X-H torsion
[ 12906 12897 12898 12899 ] final    2.53 input   35.92 | X-H torsion
[ 8434 8429 8430 8431 ] final   30.65 input   45.97 | X-H torsion
[ 8458 8451 8452 8453 ] final  164.71 input  104.20 | X-H torsion
[ 9002 8998 8999 9000 ] final -166.44 input   46.10 | X-H torsion
[ 9036 9022 9023 9024 ] final -116.38 input   36.28 | X-H torsion
[ 9080 9068 9069 9070 ] final -162.89 input   95.83 | X-H torsion
[ 9088 9079 9078 9076 ] final  -62.69 input   59.97 | X-H torsion
[ 9114 9106 9107 9108 ] final  110.75 input   84.45 | X-H torsion
[ 9192 9183 9184 9185 ] final  178.95 input  123.29 | X-H torsion
[ 3596 3592 3593 3594 ] final   61.60 input   84.32 | X-H torsion
[ 8984 8978 8979 8980 ] final  152.70 input   29.51 | X-H torsion
[ 9140 9136 9137 9138 ] final -154.49 input  134.07 | X-H torsion
[ 11056 11049 11050 11051 ] final  -24.08 input   56.26 | X-H torsion
[ 4893 4888 4887 4884 ] final  120.35 input   60.00 | X-H torsion
[ 8988 8983 8982 8979 ] final  146.93 input   59.98 | X-H torsion
[ 3550 3542 3543 3544 ] final    7.53 input   80.85 | X-H torsion
[ 8488 8482 8483 8484 ] final  137.14 input   54.31 | X-H torsion
[ 8954 8943 8944 8945 ] final -177.32 input   47.77 | X-H torsion
[ 8514 8506 8507 8508 ] final  -76.29 input   67.56 | X-H torsion
[ 5580 5571 5572 5573 ] final  -79.62 input   48.82 | X-H torsion
[ 3570 3563 3564 3565 ] final  178.96 input  103.62 | X-H torsion
[ 9229 9212 9213 9214 ] final -128.95 input   91.82 | X-H torsion
[ 8576 8568 8569 8570 ] final   38.90 input   67.63 | X-H torsion
[ 13465 1235 1234 1233 ] final -176.45 input    0.00 | X-H torsion
[ 13468 5549 5548 5547 ] final  -49.58 input   -0.00 | X-H torsion
[ 13472 8509 8508 8507 ] final   45.48 input    0.00 | X-H torsion
[ 13479 12900 12899 12898 ] final    8.04 input   -0.00 | X-H torsion
[ 13492 8406 8405 8404 ] final  155.20 input    0.00 | X-H torsion
[ 13496 8946 8945 8944 ] final  121.89 input   -0.00 | X-H torsion
[ 13499 9001 9000 8999 ] final   49.12 input    0.00 | X-H torsion
[ 13502 9025 9024 9023 ] final -108.57 input    0.00 | X-H torsion
[ 13505 9071 9070 9069 ] final   72.12 input    0.00 | X-H torsion
[ 13510 9109 9108 9107 ] final -151.66 input    0.00 | X-H torsion
[ 13521 8981 8980 8979 ] final  160.56 input   -0.00 | X-H torsion
[ 13523 8351 8350 8349 ] final  -70.44 input   -0.00 | X-H torsion
[ 13531 8454 8453 8452 ] final -151.82 input    0.00 | X-H torsion
[ 13533 8432 8431 8430 ] final  162.29 input    0.00 | X-H torsion
[ 13535 3502 3501 3500 ] final  162.84 input    0.00 | X-H torsion
[ 13543 12828 12827 12826 ] final   83.15 input   -0.00 | X-H torsion

> <Gold.Protein.ActiveResidues>
 TRP311  MET341  HIS342  TRP414  ALA417  ARG419  CYS420  VAL421  GLY422  LEU460 
 SER462  SER482  GLN483  ARG486  ALA502  TYR567  GLY568  LEU569  PRO570  ALA571 
 VAL572  SER573  ASN574  MET575  LEU576  PHE589  SER590  GLY591  TRP592  TYR593 
 MET594  GLY595  GLU597  ILE598  ARG601  ASP602  ARG608  ILE653  VAL654  TRP683 
 PHE709  GLU710  TYR711  GLN712  ASP714  HEM750  H4B760 

> <Gold.Protein.RotatedAtoms>
  120.6851  251.9411  330.1282 H   0  0  0  0  0  0  0  0  0  0  0  0  # atno 3550 bound_to 3542
  121.7455  249.0702  330.2915 H   0  0  0  0  0  0  0  0  0  0  0  0  # atno 3570 bound_to 3563
  123.5863  248.6993  327.6383 H   0  0  0  0  0  0  0  0  0  0  0  0  # atno 3596 bound_to 3592
  126.3090  246.7556  318.6748 H   0  0  0  0  0  0  0  0  0  0  0  0  # atno 4893 bound_to 4888
  107.9477  243.2829  321.4206 H   0  0  0  0  0  0  0  0  0  0  0  0  # atno 5556 bound_to 5551
  108.5964  244.6240  318.5240 H   0  0  0  0  0  0  0  0  0  0  0  0  # atno 5580 bound_to 5571
  114.8218  242.3045  319.0052 H   0  0  0  0  0  0  0  0  0  0  0  0  # atno 8434 bound_to 8429
  115.0130  245.1771  319.5839 H   0  0  0  0  0  0  0  0  0  0  0  0  # atno 8458 bound_to 8451
  111.7071  246.3746  318.0852 H   0  0  0  0  0  0  0  0  0  0  0  0  # atno 8488 bound_to 8482
  110.0633  249.4455  317.7606 H   0  0  0  0  0  0  0  0  0  0  0  0  # atno 8514 bound_to 8506
  110.5879  250.8918  319.7127 H   0  0  0  0  0  0  0  0  0  0  0  0  # atno 8542 bound_to 8534
  110.9021  255.3471  320.7041 H   0  0  0  0  0  0  0  0  0  0  0  0  # atno 8576 bound_to 8568
  115.5300  249.6877  315.5123 H   0  0  0  0  0  0  0  0  0  0  0  0  # atno 8954 bound_to 8943
  118.0826  247.0547  316.2263 H   0  0  0  0  0  0  0  0  0  0  0  0  # atno 8984 bound_to 8978
  119.9562  243.7747  314.9724 H   0  0  0  0  0  0  0  0  0  0  0  0  # atno 8988 bound_to 8983
  120.6161  245.7148  318.5550 H   0  0  0  0  0  0  0  0  0  0  0  0  # atno 9002 bound_to 8998
  122.1159  243.0152  320.0233 H   0  0  0  0  0  0  0  0  0  0  0  0  # atno 9036 bound_to 9022
  121.4126  240.1605  322.1034 H   0  0  0  0  0  0  0  0  0  0  0  0  # atno 9080 bound_to 9068
  114.5938  237.9184  323.5234 H   0  0  0  0  0  0  0  0  0  0  0  0  # atno 9088 bound_to 9079
  121.2813  240.8922  326.4442 H   0  0  0  0  0  0  0  0  0  0  0  0  # atno 9114 bound_to 9106
  122.7631  237.4166  327.8333 H   0  0  0  0  0  0  0  0  0  0  0  0  # atno 9140 bound_to 9136
  118.7181  239.0767  330.3052 H   0  0  0  0  0  0  0  0  0  0  0  0  # atno 9192 bound_to 9183
  116.1913  237.5439  328.2100 H   0  0  0  0  0  0  0  0  0  0  0  0  # atno 9229 bound_to 9212
  125.3804  237.1730  326.0909 H   0  0  0  0  0  0  0  0  0  0  0  0  # atno 11056 bound_to 11049
  110.3568  255.7086  325.0469 H   0  0  0  0  0  0  0  0  0  0  0  0  # atno 12870 bound_to 12858
  111.0193  250.9323  329.0354 H   0  0  0  0  0  0  0  0  0  0  0  0  # atno 12878 bound_to 12869
  106.3462  254.2633  323.4557 H   0  0  0  0  0  0  0  0  0  0  0  0  # atno 12906 bound_to 12897
  108.9864  254.7381  331.6389 LP  0  0  0  0  0  0  0  0  0  0  0  0  # atno 13465 bound_to 1235
  109.8965  253.4660  332.3829 LP  0  0  0  0  0  0  0  0  0  0  0  0  # atno 13466 bound_to 1235
  109.5791  246.7209  319.3286 LP  0  0  0  0  0  0  0  0  0  0  0  0  # atno 13468 bound_to 5549
  110.4357  245.4942  320.2011 LP  0  0  0  0  0  0  0  0  0  0  0  0  # atno 13469 bound_to 5549
  106.8252  242.9922  320.2787 LP  0  0  0  0  0  0  0  0  0  0  0  0  # atno 13470 bound_to 5551
  106.3858  243.1162  321.8465 LP  0  0  0  0  0  0  0  0  0  0  0  0  # atno 13471 bound_to 5551
  107.1600  251.5505  320.7907 LP  0  0  0  0  0  0  0  0  0  0  0  0  # atno 13472 bound_to 8509
  107.7892  252.9790  320.0401 LP  0  0  0  0  0  0  0  0  0  0  0  0  # atno 13473 bound_to 8509
  109.1211  251.6341  319.1300 LP  0  0  0  0  0  0  0  0  0  0  0  0  # atno 13474 bound_to 8534
  109.4825  257.0295  324.3104 LP  0  0  0  0  0  0  0  0  0  0  0  0  # atno 13475 bound_to 12858
  111.2115  252.1996  330.0382 LP  0  0  0  0  0  0  0  0  0  0  0  0  # atno 13476 bound_to 12869
  112.2106  252.0066  328.7610 LP  0  0  0  0  0  0  0  0  0  0  0  0  # atno 13477 bound_to 12869
  107.3105  255.6643  323.0537 LP  0  0  0  0  0  0  0  0  0  0  0  0  # atno 13478 bound_to 12897
  105.2612  253.2920  323.0249 LP  0  0  0  0  0  0  0  0  0  0  0  0  # atno 13479 bound_to 12900
  103.5891  252.9364  322.7461 LP  0  0  0  0  0  0  0  0  0  0  0  0  # atno 13480 bound_to 12900
  117.8572  243.8826  318.3612 LP  0  0  0  0  0  0  0  0  0  0  0  0  # atno 13492 bound_to 8406
  118.5143  243.1984  319.8104 LP  0  0  0  0  0  0  0  0  0  0  0  0  # atno 13493 bound_to 8406
  116.5598  242.4242  318.8843 LP  0  0  0  0  0  0  0  0  0  0  0  0  # atno 13494 bound_to 8429
  114.6129  245.6618  317.9501 LP  0  0  0  0  0  0  0  0  0  0  0  0  # atno 13495 bound_to 8451
  116.4632  245.8793  317.3474 LP  0  0  0  0  0  0  0  0  0  0  0  0  # atno 13496 bound_to 8946
  116.1814  247.2668  318.3451 LP  0  0  0  0  0  0  0  0  0  0  0  0  # atno 13497 bound_to 8946
  120.1707  244.0707  318.9530 LP  0  0  0  0  0  0  0  0  0  0  0  0  # atno 13498 bound_to 8998
  122.6461  242.4594  317.7083 LP  0  0  0  0  0  0  0  0  0  0  0  0  # atno 13499 bound_to 9001
  121.6380  241.4729  318.7135 LP  0  0  0  0  0  0  0  0  0  0  0  0  # atno 13500 bound_to 9001
  123.3489  243.2499  321.2342 LP  0  0  0  0  0  0  0  0  0  0  0  0  # atno 13501 bound_to 9022
  122.8073  242.2638  323.8957 LP  0  0  0  0  0  0  0  0  0  0  0  0  # atno 13502 bound_to 9025
  121.4148  242.7380  322.9815 LP  0  0  0  0  0  0  0  0  0  0  0  0  # atno 13503 bound_to 9025
  122.9627  239.7208  322.7845 LP  0  0  0  0  0  0  0  0  0  0  0  0  # atno 13504 bound_to 9068
  124.1114  239.6904  324.7167 LP  0  0  0  0  0  0  0  0  0  0  0  0  # atno 13505 bound_to 9071
  123.6800  238.2680  325.6058 LP  0  0  0  0  0  0  0  0  0  0  0  0  # atno 13506 bound_to 9071
  114.9831  238.0072  321.9456 LP  0  0  0  0  0  0  0  0  0  0  0  0  # atno 13507 bound_to 9079
  114.7827  239.3729  322.8181 LP  0  0  0  0  0  0  0  0  0  0  0  0  # atno 13508 bound_to 9079
  121.8945  239.4242  325.7160 LP  0  0  0  0  0  0  0  0  0  0  0  0  # atno 13509 bound_to 9106
  119.7493  237.9661  328.8179 LP  0  0  0  0  0  0  0  0  0  0  0  0  # atno 13510 bound_to 9109
  119.8670  239.0657  327.4848 LP  0  0  0  0  0  0  0  0  0  0  0  0  # atno 13511 bound_to 9109
  118.1091  237.4451  330.1850 LP  0  0  0  0  0  0  0  0  0  0  0  0  # atno 13512 bound_to 9183
  124.5738  247.8340  328.7857 LP  0  0  0  0  0  0  0  0  0  0  0  0  # atno 13519 bound_to 3592
  119.3104  247.7818  317.2316 LP  0  0  0  0  0  0  0  0  0  0  0  0  # atno 13520 bound_to 8978
  122.3040  246.5428  317.8548 LP  0  0  0  0  0  0  0  0  0  0  0  0  # atno 13521 bound_to 8981
  121.2704  246.7465  316.4800 LP  0  0  0  0  0  0  0  0  0  0  0  0  # atno 13522 bound_to 8981
  120.0403  237.2277  320.1938 LP  0  0  0  0  0  0  0  0  0  0  0  0  # atno 13523 bound_to 8351
  120.8908  237.7669  318.7846 LP  0  0  0  0  0  0  0  0  0  0  0  0  # atno 13524 bound_to 8351
  122.0952  238.1684  329.2659 LP  0  0  0  0  0  0  0  0  0  0  0  0  # atno 13525 bound_to 9136
  126.1153  238.4044  325.0953 LP  0  0  0  0  0  0  0  0  0  0  0  0  # atno 13526 bound_to 11049
  125.2703  245.5650  318.2858 LP  0  0  0  0  0  0  0  0  0  0  0  0  # atno 13527 bound_to 4888
  124.7908  246.7848  319.2599 LP  0  0  0  0  0  0  0  0  0  0  0  0  # atno 13528 bound_to 4888
  120.6006  245.1278  315.6063 LP  0  0  0  0  0  0  0  0  0  0  0  0  # atno 13529 bound_to 8983
  119.3122  245.2239  314.6075 LP  0  0  0  0  0  0  0  0  0  0  0  0  # atno 13530 bound_to 8983
  113.2230  249.0864  317.5183 LP  0  0  0  0  0  0  0  0  0  0  0  0  # atno 13531 bound_to 8454
  114.5310  247.9770  317.7601 LP  0  0  0  0  0  0  0  0  0  0  0  0  # atno 13532 bound_to 8454
  112.3333  244.7451  317.9262 LP  0  0  0  0  0  0  0  0  0  0  0  0  # atno 13533 bound_to 8432
  113.1784  243.8637  316.6978 LP  0  0  0  0  0  0  0  0  0  0  0  0  # atno 13534 bound_to 8432
  119.4251  249.1740  330.0120 LP  0  0  0  0  0  0  0  0  0  0  0  0  # atno 13535 bound_to 3502
  118.5877  249.7016  331.4334 LP  0  0  0  0  0  0  0  0  0  0  0  0  # atno 13536 bound_to 3502
  119.2566  251.6353  329.1714 LP  0  0  0  0  0  0  0  0  0  0  0  0  # atno 13537 bound_to 3542
  111.6469  247.8704  318.9837 LP  0  0  0  0  0  0  0  0  0  0  0  0  # atno 13538 bound_to 8482
  115.2328  248.1757  316.3353 LP  0  0  0  0  0  0  0  0  0  0  0  0  # atno 13539 bound_to 8943
  109.7829  248.3878  319.1205 LP  0  0  0  0  0  0  0  0  0  0  0  0  # atno 13541 bound_to 8506
  108.5721  243.1768  319.5081 LP  0  0  0  0  0  0  0  0  0  0  0  0  # atno 13542 bound_to 5571
  110.8189  254.9298  322.3255 LP  0  0  0  0  0  0  0  0  0  0  0  0  # atno 13543 bound_to 12828
  109.5456  255.9941  321.8298 LP  0  0  0  0  0  0  0  0  0  0  0  0  # atno 13544 bound_to 12828

> <Gold.Score>
     Fitness  S(hb_ext) S(vdw_ext)  S(hb_int)    S(int)      intcor
     30.71       1.01      22.20       0.00      -0.82      -0.76

> <Gold.Goldscore.Fitness>
30.7076

> <Gold.Goldscore.Internal.Vdw>
-1.0036

> <Gold.Goldscore.Internal.Torsion>
-0.5771

> <Gold.Goldscore.External.Vdw>
22.1976

> <Gold.Goldscore.Internal.HBond>
0.0000

> <Gold.Goldscore.External.HBond>
1.0081

> <Gold.Goldscore.Internal.Correction>
-0.7585

> <Gold.Goldscore.Hbonds>
donor molecule, donor type, donor heavy atom, donor atom, acceptor molecule, acceptor atom, score
      P1  H  5578  5586       L1    17  0.07
      P1  H  9519  9531       L1    17  0.15

> <Gold.Goldscore.Internal.Vdw.Weighted>
-1.0036

> <Gold.Goldscore.Internal.Torsion.Weighted>
-0.5771

> <Gold.Goldscore.External.Vdw.Weighted>
30.5217

> <Gold.Goldscore.Internal.HBond.Weighted>
0.0000

> <Gold.Goldscore.External.HBond.Weighted>
1.0081

> <Gold.Goldscore.Internal.Correction.Weighted>
-0.7585

> <Gold.Rescore>
     Score     S(PLP)   S(hbond)     S(cho)   S(metal)  DE(clash)   DE(tors)     intcor
     15.91     -18.83       0.13       0.00       0.00       0.54       1.39       ----

> <Gold.PLP.Fitness>
15.9098

> <Gold.PLP.PLP>
-18.8302

> <Gold.PLP.part.hbond>
-3.3804

> <Gold.PLP.part.metal>
0.0000

> <Gold.PLP.part.buried>
-4.6694

> <Gold.PLP.part.nonpolar>
-15.8926

> <Gold.PLP.part.repulsive>
4.6421

> <Gold.PLP.ligand.clash>
0.5362

> <Gold.PLP.ligand.torsion>
1.3910

> <Gold.PLP.Chemscore.Hbond>
0.1326

> <Gold.PLP.Chemscore.CHOScore>
0.0000

> <Gold.PLP.Chemscore.Metal>
0.0000

> <Gold.PLP.Chemscore.Internal.Correction>
   9.000000E+99

#       Name:                CT1002167954
#       Creating user name   hitesit
#       Creation time:       Sun Apr 16 22:52:41 2023


#       File generated by GOLD software.
#

@<TRIPOS>MOLECULE
CT1002167954|ligand_prepared|mol2|1|dock8
    29    30     1
SMALL
NO_CHARGES


@<TRIPOS>ATOM
      1 C1         110.6099 246.8476 326.2409 C.3            1 RES1               0.0000
      2 C2         110.3976 246.3185 327.6740 C.ar           1 RES1               0.0000
      3 C3         111.7043 245.9826 325.6225 C.2            1 RES1               0.0000
      4 C4         109.2598 246.7372 325.5410 C.2            1 RES1               0.0000
      5 C5         111.0596 248.3260 326.1809 C.3            1 RES1               0.0000
      6 C6         109.5568 246.9869 328.5588 C.ar           1 RES1               0.0000
      7 C7         111.0326 245.1640 328.1240 C.ar           1 RES1               0.0000
      8 N8         111.3302 245.0629 324.6877 N.am           1 RES1               0.0000
      9 O9         112.8723 246.0788 325.9785 O.2            1 RES1               0.0000
     10 N10        109.1496 245.8611 324.4931 N.am           1 RES1               0.0000
     11 O11        108.2861 247.3887 325.8982 O.2            1 RES1               0.0000
     12 C12        111.2605 248.8489 324.7672 C.3            1 RES1               0.0000
     13 C13        109.3555 246.5166 329.8459 C.ar           1 RES1               0.0000
     14 C14        110.8302 244.6955 329.4116 C.ar           1 RES1               0.0000
     15 C15        110.1151 244.9965 324.0544 C.2            1 RES1               0.0000
     16 C16        109.9916 245.3705 330.2730 C.ar           1 RES1               0.0000
     17 O17        109.9230 244.1996 323.1406 O.2            1 RES1               0.0000
     18 H18        110.3056 248.9451 326.6825 H              1 RES1               0.0000
     19 H19        112.0015 248.4313 326.7334 H              1 RES1               0.0000
     20 H20        109.0495 247.8918 328.2413 H              1 RES1               0.0000
     21 H21        111.6975 244.6172 327.4640 H              1 RES1               0.0000
     22 H22        112.0173 244.3594 324.4362 H              1 RES1               0.0000
     23 H23        108.2659 245.8528 323.9938 H              1 RES1               0.0000
     24 H24        111.5755 249.8902 324.7822 H              1 RES1               0.0000
     25 H25        112.0222 248.2719 324.2471 H              1 RES1               0.0000
     26 H26        110.3365 248.7826 324.1966 H              1 RES1               0.0000
     27 H27        108.6957 247.0522 330.5204 H              1 RES1               0.0000
     28 H28        111.3333 243.7934 329.7437 H              1 RES1               0.0000
     29 H29        109.8335 245.0020 331.2812 H              1 RES1               0.0000
@<TRIPOS>BOND
    1    1    2 1     
    2    1    3 1     
    3    1    4 1     
    4    1    5 1     
    5    2    6 ar    
    6    2    7 ar    
    7    3    8 1     
    8    3    9 2     
    9    4   10 1     
   10    4   11 2     
   11    5   12 1     
   12    5   18 1     
   13    5   19 1     
   14    6   13 ar    
   15    6   20 1     
   16    7   14 ar    
   17    7   21 1     
   18    8   15 1     
   19    8   22 1     
   20   10   15 1     
   21   10   23 1     
   22   12   24 1     
   23   12   25 1     
   24   12   26 1     
   25   13   16 ar    
   26   13   27 1     
   27   14   16 ar    
   28   14   28 1     
   29   15   17 2     
   30   16   29 1     
@<TRIPOS>SUBSTRUCTURE
      1 RES1           1
@<TRIPOS>SET
DONOR_HYDROGENS      STATIC     ATOMS    <user>   **** ""
2 22 23
ATOM$RED        STATIC     ATOMS    COLORGROUP SYSTEM
2 22 23
@<TRIPOS>COMMENT
> <Gold.Version>
2022.3.0

> <Gold.Id.Protein>
unknown|5adg_clean|pdb

> <Gold.Protein.RotatedTorsions>
[ 5556 5551 5550 5547 ] final    6.30 input   60.01 | X-H torsion
[ 8542 8534 8535 8536 ] final  -42.03 input   85.39 | X-H torsion
[ 12870 12858 12859 12860 ] final  165.92 input  110.07 | X-H torsion
[ 12878 12869 12868 12866 ] final -130.59 input   59.97 | X-H torsion
[ 12906 12897 12898 12899 ] final  -37.60 input   35.92 | X-H torsion
[ 8434 8429 8430 8431 ] final -133.76 input   45.97 | X-H torsion
[ 8458 8451 8452 8453 ] final   67.21 input  104.20 | X-H torsion
[ 9002 8998 8999 9000 ] final  147.93 input   46.10 | X-H torsion
[ 9036 9022 9023 9024 ] final -112.24 input   36.28 | X-H torsion
[ 9080 9068 9069 9070 ] final  -72.34 input   95.83 | X-H torsion
[ 9088 9079 9078 9076 ] final   53.34 input   59.97 | X-H torsion
[ 9114 9106 9107 9108 ] final  -36.21 input   84.45 | X-H torsion
[ 9192 9183 9184 9185 ] final   50.48 input  123.29 | X-H torsion
[ 3596 3592 3593 3594 ] final   29.02 input   84.32 | X-H torsion
[ 8984 8978 8979 8980 ] final -109.72 input   29.51 | X-H torsion
[ 9140 9136 9137 9138 ] final  125.41 input  134.07 | X-H torsion
[ 11056 11049 11050 11051 ] final   40.67 input   56.26 | X-H torsion
[ 4893 4888 4887 4884 ] final -106.09 input   60.00 | X-H torsion
[ 8988 8983 8982 8979 ] final -161.97 input   59.98 | X-H torsion
[ 3550 3542 3543 3544 ] final -110.52 input   80.85 | X-H torsion
[ 8488 8482 8483 8484 ] final  127.26 input   54.31 | X-H torsion
[ 8954 8943 8944 8945 ] final -160.68 input   47.77 | X-H torsion
[ 8514 8506 8507 8508 ] final  -46.71 input   67.56 | X-H torsion
[ 5580 5571 5572 5573 ] final   92.15 input   48.82 | X-H torsion
[ 3570 3563 3564 3565 ] final  -21.81 input  103.62 | X-H torsion
[ 9229 9212 9213 9214 ] final    9.74 input   91.82 | X-H torsion
[ 8576 8568 8569 8570 ] final  -94.45 input   67.63 | X-H torsion
[ 13465 1235 1234 1233 ] final   24.91 input    0.00 | X-H torsion
[ 13468 5549 5548 5547 ] final  108.97 input   -0.00 | X-H torsion
[ 13472 8509 8508 8507 ] final   33.09 input    0.00 | X-H torsion
[ 13479 12900 12899 12898 ] final -172.63 input   -0.00 | X-H torsion
[ 13492 8406 8405 8404 ] final   34.12 input    0.00 | X-H torsion
[ 13496 8946 8945 8944 ] final   10.30 input   -0.00 | X-H torsion
[ 13499 9001 9000 8999 ] final  145.45 input    0.00 | X-H torsion
[ 13502 9025 9024 9023 ] final  115.49 input    0.00 | X-H torsion
[ 13505 9071 9070 9069 ] final   53.83 input    0.00 | X-H torsion
[ 13510 9109 9108 9107 ] final   65.47 input    0.00 | X-H torsion
[ 13521 8981 8980 8979 ] final  175.87 input   -0.00 | X-H torsion
[ 13523 8351 8350 8349 ] final   93.50 input   -0.00 | X-H torsion
[ 13531 8454 8453 8452 ] final  -14.22 input    0.00 | X-H torsion
[ 13533 8432 8431 8430 ] final -112.23 input    0.00 | X-H torsion
[ 13535 3502 3501 3500 ] final   95.70 input    0.00 | X-H torsion
[ 13543 12828 12827 12826 ] final  177.54 input   -0.00 | X-H torsion

> <Gold.Protein.ActiveResidues>
 TRP311  MET341  HIS342  TRP414  ALA417  ARG419  CYS420  VAL421  GLY422  LEU460 
 SER462  SER482  GLN483  ARG486  ALA502  TYR567  GLY568  LEU569  PRO570  ALA571 
 VAL572  SER573  ASN574  MET575  LEU576  PHE589  SER590  GLY591  TRP592  TYR593 
 MET594  GLY595  GLU597  ILE598  ARG601  ASP602  ARG608  ILE653  VAL654  TRP683 
 PHE709  GLU710  TYR711  GLN712  ASP714  HEM750  H4B760 

> <Gold.Protein.RotatedAtoms>
  119.3977  251.1744  329.9302 H   0  0  0  0  0  0  0  0  0  0  0  0  # atno 3550 bound_to 3542
  122.5000  249.2869  328.7243 H   0  0  0  0  0  0  0  0  0  0  0  0  # atno 3570 bound_to 3563
  123.9154  249.0226  327.8085 H   0  0  0  0  0  0  0  0  0  0  0  0  # atno 3596 bound_to 3592
  124.6731  246.6111  319.1880 H   0  0  0  0  0  0  0  0  0  0  0  0  # atno 4893 bound_to 4888
  107.5039  243.0976  320.3613 H   0  0  0  0  0  0  0  0  0  0  0  0  # atno 5556 bound_to 5551
  108.5361  243.0912  319.4162 H   0  0  0  0  0  0  0  0  0  0  0  0  # atno 5580 bound_to 5571
  116.5470  242.5663  319.0740 H   0  0  0  0  0  0  0  0  0  0  0  0  # atno 8434 bound_to 8429
  115.2962  246.1680  318.7311 H   0  0  0  0  0  0  0  0  0  0  0  0  # atno 8458 bound_to 8451
  111.5665  246.3525  318.1379 H   0  0  0  0  0  0  0  0  0  0  0  0  # atno 8488 bound_to 8482
  110.3006  249.6256  318.0969 H   0  0  0  0  0  0  0  0  0  0  0  0  # atno 8514 bound_to 8506
  109.2340  251.6743  318.9492 H   0  0  0  0  0  0  0  0  0  0  0  0  # atno 8542 bound_to 8534
  110.6941  254.4279  319.3739 H   0  0  0  0  0  0  0  0  0  0  0  0  # atno 8576 bound_to 8568
  115.5540  249.5311  315.3119 H   0  0  0  0  0  0  0  0  0  0  0  0  # atno 8954 bound_to 8943
  118.1950  247.5877  317.4328 H   0  0  0  0  0  0  0  0  0  0  0  0  # atno 8984 bound_to 8978
  119.3811  244.1642  314.5605 H   0  0  0  0  0  0  0  0  0  0  0  0  # atno 8988 bound_to 8983
  120.3859  245.6495  319.2003 H   0  0  0  0  0  0  0  0  0  0  0  0  # atno 9002 bound_to 8998
  122.0727  243.0245  320.0688 H   0  0  0  0  0  0  0  0  0  0  0  0  # atno 9036 bound_to 9022
  122.3463  240.7812  322.6797 H   0  0  0  0  0  0  0  0  0  0  0  0  # atno 9080 bound_to 9068
  114.7690  239.3607  322.8809 H   0  0  0  0  0  0  0  0  0  0  0  0  # atno 9088 bound_to 9079
  121.4508  239.2877  325.8974 H   0  0  0  0  0  0  0  0  0  0  0  0  # atno 9114 bound_to 9106
  123.1779  237.4689  328.8994 H   0  0  0  0  0  0  0  0  0  0  0  0  # atno 9140 bound_to 9136
  118.5543  237.6607  329.6094 H   0  0  0  0  0  0  0  0  0  0  0  0  # atno 9192 bound_to 9183
  116.9554  236.7114  329.4368 H   0  0  0  0  0  0  0  0  0  0  0  0  # atno 9229 bound_to 9212
  125.0308  238.0468  326.0278 H   0  0  0  0  0  0  0  0  0  0  0  0  # atno 11056 bound_to 11049
  110.2105  255.8653  325.3313 H   0  0  0  0  0  0  0  0  0  0  0  0  # atno 12870 bound_to 12858
  110.9764  251.9323  330.0360 H   0  0  0  0  0  0  0  0  0  0  0  0  # atno 12878 bound_to 12869
  106.2837  254.6889  323.8839 H   0  0  0  0  0  0  0  0  0  0  0  0  # atno 12906 bound_to 12897
  109.7572  253.3063  332.1417 LP  0  0  0  0  0  0  0  0  0  0  0  0  # atno 13465 bound_to 1235
  109.1257  254.8977  331.8800 LP  0  0  0  0  0  0  0  0  0  0  0  0  # atno 13466 bound_to 1235
  110.2495  245.6151  320.4348 LP  0  0  0  0  0  0  0  0  0  0  0  0  # atno 13468 bound_to 5549
  109.7653  246.6001  319.0949 LP  0  0  0  0  0  0  0  0  0  0  0  0  # atno 13469 bound_to 5549
  106.1209  243.0057  321.2143 LP  0  0  0  0  0  0  0  0  0  0  0  0  # atno 13470 bound_to 5551
  107.5367  243.2892  321.9772 LP  0  0  0  0  0  0  0  0  0  0  0  0  # atno 13471 bound_to 5551
  107.0559  251.5395  320.6359 LP  0  0  0  0  0  0  0  0  0  0  0  0  # atno 13472 bound_to 8509
  107.8933  252.9901  320.1949 LP  0  0  0  0  0  0  0  0  0  0  0  0  # atno 13473 bound_to 8509
  110.4600  250.8603  319.8851 LP  0  0  0  0  0  0  0  0  0  0  0  0  # atno 13474 bound_to 8534
  109.6256  256.8762  324.0322 LP  0  0  0  0  0  0  0  0  0  0  0  0  # atno 13475 bound_to 12858
  112.1998  252.2590  329.0136 LP  0  0  0  0  0  0  0  0  0  0  0  0  # atno 13476 bound_to 12869
  111.2655  250.9405  328.7784 LP  0  0  0  0  0  0  0  0  0  0  0  0  # atno 13477 bound_to 12869
  107.3715  255.2490  322.6359 LP  0  0  0  0  0  0  0  0  0  0  0  0  # atno 13478 bound_to 12897
  103.5871  252.9386  322.7557 LP  0  0  0  0  0  0  0  0  0  0  0  0  # atno 13479 bound_to 12900
  105.2632  253.2898  323.0153 LP  0  0  0  0  0  0  0  0  0  0  0  0  # atno 13480 bound_to 12900
  118.7108  242.8524  319.0573 LP  0  0  0  0  0  0  0  0  0  0  0  0  # atno 13492 bound_to 8406
  117.6606  244.2286  319.1144 LP  0  0  0  0  0  0  0  0  0  0  0  0  # atno 13493 bound_to 8406
  114.8665  242.1672  318.8168 LP  0  0  0  0  0  0  0  0  0  0  0  0  # atno 13494 bound_to 8429
  114.3389  244.7031  318.7753 LP  0  0  0  0  0  0  0  0  0  0  0  0  # atno 13495 bound_to 8451
  115.7301  247.1007  317.4985 LP  0  0  0  0  0  0  0  0  0  0  0  0  # atno 13496 bound_to 8946
  116.9145  246.0454  318.1940 LP  0  0  0  0  0  0  0  0  0  0  0  0  # atno 13497 bound_to 8946
  120.3941  244.1342  318.3265 LP  0  0  0  0  0  0  0  0  0  0  0  0  # atno 13498 bound_to 8998
  122.7757  241.4591  318.5132 LP  0  0  0  0  0  0  0  0  0  0  0  0  # atno 13499 bound_to 9001
  121.5084  242.4733  317.9087 LP  0  0  0  0  0  0  0  0  0  0  0  0  # atno 13500 bound_to 9001
  123.3916  243.2407  321.1892 LP  0  0  0  0  0  0  0  0  0  0  0  0  # atno 13501 bound_to 9022
  121.2569  242.3684  323.4919 LP  0  0  0  0  0  0  0  0  0  0  0  0  # atno 13502 bound_to 9025
  122.9652  242.6334  323.3853 LP  0  0  0  0  0  0  0  0  0  0  0  0  # atno 13503 bound_to 9025
  122.0554  239.1175  322.2245 LP  0  0  0  0  0  0  0  0  0  0  0  0  # atno 13504 bound_to 9068
  124.0266  239.5324  324.5079 LP  0  0  0  0  0  0  0  0  0  0  0  0  # atno 13505 bound_to 9071
  123.7649  238.4260  325.8146 LP  0  0  0  0  0  0  0  0  0  0  0  0  # atno 13506 bound_to 9071
  114.5991  237.8615  323.4914 LP  0  0  0  0  0  0  0  0  0  0  0  0  # atno 13507 bound_to 9079
  114.9903  238.0663  321.9193 LP  0  0  0  0  0  0  0  0  0  0  0  0  # atno 13508 bound_to 9079
  121.7302  240.9794  326.2460 LP  0  0  0  0  0  0  0  0  0  0  0  0  # atno 13509 bound_to 9106
  119.8574  238.5509  327.2875 LP  0  0  0  0  0  0  0  0  0  0  0  0  # atno 13510 bound_to 9109
  119.7589  238.4810  329.0153 LP  0  0  0  0  0  0  0  0  0  0  0  0  # atno 13511 bound_to 9109
  118.2700  238.8361  330.8684 LP  0  0  0  0  0  0  0  0  0  0  0  0  # atno 13512 bound_to 9183
  124.2481  247.5141  328.6173 LP  0  0  0  0  0  0  0  0  0  0  0  0  # atno 13519 bound_to 3592
  119.1998  247.2573  316.0443 LP  0  0  0  0  0  0  0  0  0  0  0  0  # atno 13520 bound_to 8978
  122.3800  246.3626  317.7323 LP  0  0  0  0  0  0  0  0  0  0  0  0  # atno 13521 bound_to 8981
  121.1945  246.9266  316.6025 LP  0  0  0  0  0  0  0  0  0  0  0  0  # atno 13522 bound_to 8981
  121.0123  237.5608  318.8206 LP  0  0  0  0  0  0  0  0  0  0  0  0  # atno 13523 bound_to 8351
  119.9187  237.4338  320.1577 LP  0  0  0  0  0  0  0  0  0  0  0  0  # atno 13524 bound_to 8351
  121.6941  238.1179  328.2353 LP  0  0  0  0  0  0  0  0  0  0  0  0  # atno 13525 bound_to 9136
  126.4587  237.5462  325.1573 LP  0  0  0  0  0  0  0  0  0  0  0  0  # atno 13526 bound_to 11049
  126.2269  246.9117  318.8093 LP  0  0  0  0  0  0  0  0  0  0  0  0  # atno 13527 bound_to 4888
  125.4820  245.5837  318.2194 LP  0  0  0  0  0  0  0  0  0  0  0  0  # atno 13528 bound_to 4888
  120.6511  244.3171  315.5664 LP  0  0  0  0  0  0  0  0  0  0  0  0  # atno 13529 bound_to 8983
  119.8410  245.6423  315.0623 LP  0  0  0  0  0  0  0  0  0  0  0  0  # atno 13530 bound_to 8983
  114.4735  248.3687  318.2455 LP  0  0  0  0  0  0  0  0  0  0  0  0  # atno 13531 bound_to 8454
  113.2804  248.6947  317.0330 LP  0  0  0  0  0  0  0  0  0  0  0  0  # atno 13532 bound_to 8454
  112.7804  245.0573  316.8848 LP  0  0  0  0  0  0  0  0  0  0  0  0  # atno 13533 bound_to 8432
  112.7312  243.5515  317.7392 LP  0  0  0  0  0  0  0  0  0  0  0  0  # atno 13534 bound_to 8432
  118.4827  249.3429  330.0395 LP  0  0  0  0  0  0  0  0  0  0  0  0  # atno 13535 bound_to 3502
  119.5301  249.5327  331.4059 LP  0  0  0  0  0  0  0  0  0  0  0  0  # atno 13536 bound_to 3502
  120.5198  252.3876  329.3657 LP  0  0  0  0  0  0  0  0  0  0  0  0  # atno 13537 bound_to 3542
  111.7849  247.8921  318.9320 LP  0  0  0  0  0  0  0  0  0  0  0  0  # atno 13538 bound_to 8482
  115.2093  248.3290  316.5316 LP  0  0  0  0  0  0  0  0  0  0  0  0  # atno 13539 bound_to 8943
  109.5495  248.2106  318.7898 LP  0  0  0  0  0  0  0  0  0  0  0  0  # atno 13541 bound_to 8506
  108.6304  244.6596  318.6450 LP  0  0  0  0  0  0  0  0  0  0  0  0  # atno 13542 bound_to 5571
  109.5514  254.9689  322.4078 LP  0  0  0  0  0  0  0  0  0  0  0  0  # atno 13543 bound_to 12828
  110.8131  255.9549  321.7475 LP  0  0  0  0  0  0  0  0  0  0  0  0  # atno 13544 bound_to 12828

> <Gold.Score>
     Fitness  S(hb_ext) S(vdw_ext)  S(hb_int)    S(int)      intcor
     24.24       2.34      17.40       0.00      -2.01      -0.76

> <Gold.Goldscore.Fitness>
24.2417

> <Gold.Goldscore.Internal.Vdw>
-2.4040

> <Gold.Goldscore.Internal.Torsion>
-0.3676

> <Gold.Goldscore.External.Vdw>
17.3957

> <Gold.Goldscore.Internal.HBond>
0.0000

> <Gold.Goldscore.External.HBond>
2.3357

> <Gold.Goldscore.Internal.Correction>
-0.7585

> <Gold.Goldscore.Hbonds>
donor molecule, donor type, donor heavy atom, donor atom, acceptor molecule, acceptor atom, score
      P1  H  8512  8518       L1    11  0.17
      P1  H  5578  5587       L1    17  1.00

> <Gold.Goldscore.Internal.Vdw.Weighted>
-2.4040

> <Gold.Goldscore.Internal.Torsion.Weighted>
-0.3676

> <Gold.Goldscore.External.Vdw.Weighted>
23.9190

> <Gold.Goldscore.Internal.HBond.Weighted>
0.0000

> <Gold.Goldscore.External.HBond.Weighted>
2.3357

> <Gold.Goldscore.Internal.Correction.Weighted>
-0.7585

> <Gold.Rescore>
     Score     S(PLP)   S(hbond)     S(cho)   S(metal)  DE(clash)   DE(tors)     intcor
     28.85     -24.56       2.00       0.00       0.00       0.71       0.50       ----

> <Gold.PLP.Fitness>
28.8515

> <Gold.PLP.PLP>
-24.5573

> <Gold.PLP.part.hbond>
-2.0000

> <Gold.PLP.part.metal>
0.0000

> <Gold.PLP.part.buried>
-1.7142

> <Gold.PLP.part.nonpolar>
-22.0250

> <Gold.PLP.part.repulsive>
0.4403

> <Gold.PLP.ligand.clash>
0.7076

> <Gold.PLP.ligand.torsion>
0.4992

> <Gold.PLP.Chemscore.Hbond>
2.0000

> <Gold.PLP.Chemscore.CHOScore>
0.0000

> <Gold.PLP.Chemscore.Metal>
0.0000

> <Gold.Chemscore.Hbonds>
donor molecule, donor type, donor heavy atom, donor atom, acceptor molecule, acceptor atom, score
      P1  H  5578  5587       L1    17  1.00

> <Gold.PLP.Chemscore.Internal.Correction>
   9.000000E+99

