#       Name:                CT1002167954
#       Creating user name   hitesit
#       Creation time:       Sun Apr 16 22:52:38 2023


#       File generated by GOLD software.
#

@<TRIPOS>MOLECULE
CT1002167954|ligand_prepared|mol2|1|dock4
    29    30     1
SMALL
NO_CHARGES


@<TRIPOS>ATOM
      1 C1         112.0392 246.1595 325.3606 C.3            1 RES1               0.0000
      2 C2         113.4987 245.8251 324.9909 C.ar           1 RES1               0.0000
      3 C3         112.1064 247.2380 326.4380 C.2            1 RES1               0.0000
      4 C4         111.3648 246.6108 324.0698 C.2            1 RES1               0.0000
      5 C5         111.2447 244.9560 325.9193 C.3            1 RES1               0.0000
      6 C6         114.5155 246.7489 325.2133 C.ar           1 RES1               0.0000
      7 C7         113.8436 244.5982 324.4302 C.ar           1 RES1               0.0000
      8 N8         111.7770 248.5116 326.0784 N.am           1 RES1               0.0000
      9 O9         112.4809 246.9821 327.5758 O.2            1 RES1               0.0000
     10 N10        110.9464 247.9129 323.9852 N.am           1 RES1               0.0000
     11 O11        111.2069 245.8550 323.1190 O.2            1 RES1               0.0000
     12 C12        109.8809 245.3284 326.4792 C.3            1 RES1               0.0000
     13 C13        115.8299 246.4558 324.8897 C.ar           1 RES1               0.0000
     14 C14        115.1587 244.3072 324.1071 C.ar           1 RES1               0.0000
     15 C15        111.1495 248.8919 324.9194 C.2            1 RES1               0.0000
     16 C16        116.1525 245.2348 324.3368 C.ar           1 RES1               0.0000
     17 O17        110.7918 250.0536 324.7479 O.2            1 RES1               0.0000
     18 H18        111.1082 244.2201 325.1173 H              1 RES1               0.0000
     19 H19        111.8346 244.4813 326.7130 H              1 RES1               0.0000
     20 H20        114.2804 247.7160 325.6453 H              1 RES1               0.0000
     21 H21        113.0782 243.8536 324.2396 H              1 RES1               0.0000
     22 H22        112.0197 249.2496 326.7317 H              1 RES1               0.0000
     23 H23        110.4361 248.1769 323.1484 H              1 RES1               0.0000
     24 H24        109.3659 244.4479 326.8578 H              1 RES1               0.0000
     25 H25        109.9805 246.0401 327.2961 H              1 RES1               0.0000
     26 H26        109.2584 245.7804 325.7098 H              1 RES1               0.0000
     27 H27        116.6081 247.1898 325.0712 H              1 RES1               0.0000
     28 H28        115.4079 243.3452 323.6716 H              1 RES1               0.0000
     29 H29        117.1822 245.0053 324.0837 H              1 RES1               0.0000
@<TRIPOS>BOND
    1    1    2 1     
    2    1    3 1     
    3    1    4 1     
    4    1    5 1     
    5    2    6 ar    
    6    2    7 ar    
    7    3    8 1     
    8    3    9 2     
    9    4   10 1     
   10    4   11 2     
   11    5   12 1     
   12    5   18 1     
   13    5   19 1     
   14    6   13 ar    
   15    6   20 1     
   16    7   14 ar    
   17    7   21 1     
   18    8   15 1     
   19    8   22 1     
   20   10   15 1     
   21   10   23 1     
   22   12   24 1     
   23   12   25 1     
   24   12   26 1     
   25   13   16 ar    
   26   13   27 1     
   27   14   16 ar    
   28   14   28 1     
   29   15   17 2     
   30   16   29 1     
@<TRIPOS>SUBSTRUCTURE
      1 RES1           1
@<TRIPOS>SET
DONOR_HYDROGENS      STATIC     ATOMS    <user>   **** ""
2 22 23
ATOM$RED        STATIC     ATOMS    COLORGROUP SYSTEM
2 22 23
@<TRIPOS>COMMENT
> <Gold.Version>
2022.3.0

> <Gold.Id.Protein>
unknown|5adg_clean|pdb

> <Gold.Protein.RotatedTorsions>
[ 5556 5551 5550 5547 ] final   -4.73 input   60.01 | X-H torsion
[ 8542 8534 8535 8536 ] final  -39.53 input   85.39 | X-H torsion
[ 12870 12858 12859 12860 ] final -109.11 input  110.07 | X-H torsion
[ 12878 12869 12868 12866 ] final   49.89 input   59.97 | X-H torsion
[ 12906 12897 12898 12899 ] final -164.82 input   35.92 | X-H torsion
[ 8434 8429 8430 8431 ] final  -44.85 input   45.97 | X-H torsion
[ 8458 8451 8452 8453 ] final  -21.94 input  104.20 | X-H torsion
[ 9002 8998 8999 9000 ] final   -1.26 input   46.10 | X-H torsion
[ 9036 9022 9023 9024 ] final  -67.34 input   36.28 | X-H torsion
[ 9080 9068 9069 9070 ] final  101.96 input   95.83 | X-H torsion
[ 9088 9079 9078 9076 ] final  129.43 input   59.97 | X-H torsion
[ 9114 9106 9107 9108 ] final   38.44 input   84.45 | X-H torsion
[ 9192 9183 9184 9185 ] final -157.62 input  123.29 | X-H torsion
[ 3596 3592 3593 3594 ] final  133.85 input   84.32 | X-H torsion
[ 8984 8978 8979 8980 ] final  128.31 input   29.51 | X-H torsion
[ 9140 9136 9137 9138 ] final  139.85 input  134.07 | X-H torsion
[ 11056 11049 11050 11051 ] final -105.32 input   56.26 | X-H torsion
[ 4893 4888 4887 4884 ] final   57.47 input   60.00 | X-H torsion
[ 8988 8983 8982 8979 ] final  -39.25 input   59.98 | X-H torsion
[ 3550 3542 3543 3544 ] final   -7.60 input   80.85 | X-H torsion
[ 8488 8482 8483 8484 ] final   22.71 input   54.31 | X-H torsion
[ 8954 8943 8944 8945 ] final  165.91 input   47.77 | X-H torsion
[ 8514 8506 8507 8508 ] final  131.40 input   67.56 | X-H torsion
[ 5580 5571 5572 5573 ] final -176.40 input   48.82 | X-H torsion
[ 3570 3563 3564 3565 ] final -169.23 input  103.62 | X-H torsion
[ 9229 9212 9213 9214 ] final  -51.48 input   91.82 | X-H torsion
[ 8576 8568 8569 8570 ] final  152.25 input   67.63 | X-H torsion
[ 13465 1235 1234 1233 ] final   28.86 input    0.00 | X-H torsion
[ 13468 5549 5548 5547 ] final  116.47 input   -0.00 | X-H torsion
[ 13472 8509 8508 8507 ] final -162.22 input    0.00 | X-H torsion
[ 13479 12900 12899 12898 ] final -110.02 input   -0.00 | X-H torsion
[ 13492 8406 8405 8404 ] final   35.15 input    0.00 | X-H torsion
[ 13496 8946 8945 8944 ] final  142.80 input   -0.00 | X-H torsion
[ 13499 9001 9000 8999 ] final  121.67 input    0.00 | X-H torsion
[ 13502 9025 9024 9023 ] final  104.67 input    0.00 | X-H torsion
[ 13505 9071 9070 9069 ] final   27.10 input    0.00 | X-H torsion
[ 13510 9109 9108 9107 ] final -119.11 input    0.00 | X-H torsion
[ 13521 8981 8980 8979 ] final   31.38 input   -0.00 | X-H torsion
[ 13523 8351 8350 8349 ] final -168.46 input   -0.00 | X-H torsion
[ 13531 8454 8453 8452 ] final   39.71 input    0.00 | X-H torsion
[ 13533 8432 8431 8430 ] final -128.29 input    0.00 | X-H torsion
[ 13535 3502 3501 3500 ] final  -19.98 input    0.00 | X-H torsion
[ 13543 12828 12827 12826 ] final  123.65 input   -0.00 | X-H torsion

> <Gold.Protein.ActiveResidues>
 TRP311  MET341  HIS342  TRP414  ALA417  ARG419  CYS420  VAL421  GLY422  LEU460 
 SER462  SER482  GLN483  ARG486  ALA502  TYR567  GLY568  LEU569  PRO570  ALA571 
 VAL572  SER573  ASN574  MET575  LEU576  PHE589  SER590  GLY591  TRP592  TYR593 
 MET594  GLY595  GLU597  ILE598  ARG601  ASP602  ARG608  ILE653  VAL654  TRP683 
 PHE709  GLU710  TYR711  GLN712  ASP714  HEM750  H4B760 

> <Gold.Protein.RotatedAtoms>
  120.5930  251.7760  330.2627 H   0  0  0  0  0  0  0  0  0  0  0  0  # atno 3550 bound_to 3542
  121.8085  249.2423  330.2881 H   0  0  0  0  0  0  0  0  0  0  0  0  # atno 3570 bound_to 3563
  123.4833  247.7059  327.9035 H   0  0  0  0  0  0  0  0  0  0  0  0  # atno 3596 bound_to 3592
  126.0907  245.9234  318.2128 H   0  0  0  0  0  0  0  0  0  0  0  0  # atno 4893 bound_to 4888
  107.3404  243.0672  320.2928 H   0  0  0  0  0  0  0  0  0  0  0  0  # atno 5556 bound_to 5551
  108.9752  244.2421  319.7407 H   0  0  0  0  0  0  0  0  0  0  0  0  # atno 5580 bound_to 5571
  115.4903  242.8717  319.6343 H   0  0  0  0  0  0  0  0  0  0  0  0  # atno 8434 bound_to 8429
  114.5313  245.5963  317.9264 H   0  0  0  0  0  0  0  0  0  0  0  0  # atno 8458 bound_to 8451
  110.9203  247.2654  318.9703 H   0  0  0  0  0  0  0  0  0  0  0  0  # atno 8488 bound_to 8482
  109.5592  248.2027  318.8197 H   0  0  0  0  0  0  0  0  0  0  0  0  # atno 8514 bound_to 8506
  109.2599  251.6801  318.9217 H   0  0  0  0  0  0  0  0  0  0  0  0  # atno 8542 bound_to 8534
  109.5709  255.0332  320.1297 H   0  0  0  0  0  0  0  0  0  0  0  0  # atno 8576 bound_to 8568
  115.4931  249.7806  315.7495 H   0  0  0  0  0  0  0  0  0  0  0  0  # atno 8954 bound_to 8943
  118.3824  247.0397  316.0072 H   0  0  0  0  0  0  0  0  0  0  0  0  # atno 8984 bound_to 8978
  119.8752  245.6387  315.0915 H   0  0  0  0  0  0  0  0  0  0  0  0  # atno 8988 bound_to 8983
  120.2444  244.0052  318.7480 H   0  0  0  0  0  0  0  0  0  0  0  0  # atno 9002 bound_to 8998
  121.8611  243.1514  320.6915 H   0  0  0  0  0  0  0  0  0  0  0  0  # atno 9036 bound_to 9022
  122.1239  239.0728  322.2654 H   0  0  0  0  0  0  0  0  0  0  0  0  # atno 9080 bound_to 9068
  115.0007  238.7690  321.9173 H   0  0  0  0  0  0  0  0  0  0  0  0  # atno 9088 bound_to 9079
  120.7848  239.9700  326.3993 H   0  0  0  0  0  0  0  0  0  0  0  0  # atno 9114 bound_to 9106
  123.2081  237.3986  328.6892 H   0  0  0  0  0  0  0  0  0  0  0  0  # atno 9140 bound_to 9136
  118.5237  239.0496  330.6040 H   0  0  0  0  0  0  0  0  0  0  0  0  # atno 9192 bound_to 9183
  116.2054  237.1941  329.2691 H   0  0  0  0  0  0  0  0  0  0  0  0  # atno 9229 bound_to 9212
  126.3083  237.1338  325.4183 H   0  0  0  0  0  0  0  0  0  0  0  0  # atno 11056 bound_to 11049
  110.3692  255.8308  324.1496 H   0  0  0  0  0  0  0  0  0  0  0  0  # atno 12870 bound_to 12858
  111.9848  251.4980  328.5186 H   0  0  0  0  0  0  0  0  0  0  0  0  # atno 12878 bound_to 12869
  107.2443  255.7551  323.2117 H   0  0  0  0  0  0  0  0  0  0  0  0  # atno 12906 bound_to 12897
  109.7260  253.2883  332.0941 LP  0  0  0  0  0  0  0  0  0  0  0  0  # atno 13465 bound_to 1235
  109.1569  254.9157  331.9277 LP  0  0  0  0  0  0  0  0  0  0  0  0  # atno 13466 bound_to 1235
  110.3199  245.5640  320.3622 LP  0  0  0  0  0  0  0  0  0  0  0  0  # atno 13468 bound_to 5549
  109.6949  246.6512  319.1675 LP  0  0  0  0  0  0  0  0  0  0  0  0  # atno 13469 bound_to 5549
  106.1414  243.0294  321.3927 LP  0  0  0  0  0  0  0  0  0  0  0  0  # atno 13470 bound_to 5551
  107.6808  243.2961  321.8677 LP  0  0  0  0  0  0  0  0  0  0  0  0  # atno 13471 bound_to 5551
  107.9947  252.9571  320.3995 LP  0  0  0  0  0  0  0  0  0  0  0  0  # atno 13472 bound_to 8509
  106.9546  251.5725  320.4313 LP  0  0  0  0  0  0  0  0  0  0  0  0  # atno 13473 bound_to 8509
  110.4344  250.8546  319.9122 LP  0  0  0  0  0  0  0  0  0  0  0  0  # atno 13474 bound_to 8534
  109.4704  256.9099  325.1884 LP  0  0  0  0  0  0  0  0  0  0  0  0  # atno 13475 bound_to 12858
  110.7616  251.1575  329.5367 LP  0  0  0  0  0  0  0  0  0  0  0  0  # atno 13476 bound_to 12869
  111.6885  252.4791  329.7828 LP  0  0  0  0  0  0  0  0  0  0  0  0  # atno 13477 bound_to 12869
  106.4341  254.2087  323.2918 LP  0  0  0  0  0  0  0  0  0  0  0  0  # atno 13478 bound_to 12897
  104.1891  252.8622  322.0913 LP  0  0  0  0  0  0  0  0  0  0  0  0  # atno 13479 bound_to 12900
  104.6611  253.3663  323.6797 LP  0  0  0  0  0  0  0  0  0  0  0  0  # atno 13480 bound_to 12900
  118.7095  242.8522  319.0418 LP  0  0  0  0  0  0  0  0  0  0  0  0  # atno 13492 bound_to 8406
  117.6619  244.2287  319.1299 LP  0  0  0  0  0  0  0  0  0  0  0  0  # atno 13493 bound_to 8406
  115.9037  241.8675  318.2667 LP  0  0  0  0  0  0  0  0  0  0  0  0  # atno 13494 bound_to 8429
  115.0790  245.2563  319.5539 LP  0  0  0  0  0  0  0  0  0  0  0  0  # atno 13495 bound_to 8451
  116.6613  245.8205  317.5842 LP  0  0  0  0  0  0  0  0  0  0  0  0  # atno 13496 bound_to 8946
  115.9833  247.3257  318.1083 LP  0  0  0  0  0  0  0  0  0  0  0  0  # atno 13497 bound_to 8946
  120.5316  245.7307  318.7656 LP  0  0  0  0  0  0  0  0  0  0  0  0  # atno 13498 bound_to 8998
  122.9547  241.6796  318.2972 LP  0  0  0  0  0  0  0  0  0  0  0  0  # atno 13499 bound_to 9001
  121.3294  242.2528  318.1247 LP  0  0  0  0  0  0  0  0  0  0  0  0  # atno 13500 bound_to 9001
  123.6007  243.1153  320.5737 LP  0  0  0  0  0  0  0  0  0  0  0  0  # atno 13501 bound_to 9022
  121.2498  242.4605  323.3572 LP  0  0  0  0  0  0  0  0  0  0  0  0  # atno 13502 bound_to 9025
  122.9723  242.5413  323.5200 LP  0  0  0  0  0  0  0  0  0  0  0  0  # atno 13503 bound_to 9025
  122.2714  240.7778  322.6271 LP  0  0  0  0  0  0  0  0  0  0  0  0  # atno 13504 bound_to 9068
  123.8816  239.2067  324.3258 LP  0  0  0  0  0  0  0  0  0  0  0  0  # atno 13505 bound_to 9071
  123.9099  238.7517  325.9967 LP  0  0  0  0  0  0  0  0  0  0  0  0  # atno 13506 bound_to 9071
  114.6155  239.0234  323.4780 LP  0  0  0  0  0  0  0  0  0  0  0  0  # atno 13507 bound_to 9079
  114.7406  237.5002  322.9029 LP  0  0  0  0  0  0  0  0  0  0  0  0  # atno 13508 bound_to 9079
  122.3758  240.3180  325.7596 LP  0  0  0  0  0  0  0  0  0  0  0  0  # atno 13509 bound_to 9106
  119.7565  238.4120  329.0096 LP  0  0  0  0  0  0  0  0  0  0  0  0  # atno 13510 bound_to 9109
  119.8598  238.6198  327.2932 LP  0  0  0  0  0  0  0  0  0  0  0  0  # atno 13511 bound_to 9109
  118.3001  237.4717  329.8915 LP  0  0  0  0  0  0  0  0  0  0  0  0  # atno 13512 bound_to 9183
  124.6757  248.8169  328.5233 LP  0  0  0  0  0  0  0  0  0  0  0  0  # atno 13519 bound_to 3592
  119.0154  247.7966  317.4472 LP  0  0  0  0  0  0  0  0  0  0  0  0  # atno 13520 bound_to 8978
  121.1840  247.2485  317.0212 LP  0  0  0  0  0  0  0  0  0  0  0  0  # atno 13521 bound_to 8981
  122.3905  246.0407  317.3137 LP  0  0  0  0  0  0  0  0  0  0  0  0  # atno 13522 bound_to 8981
  120.0305  238.2349  319.3603 LP  0  0  0  0  0  0  0  0  0  0  0  0  # atno 13523 bound_to 8351
  120.9006  236.7596  319.6181 LP  0  0  0  0  0  0  0  0  0  0  0  0  # atno 13524 bound_to 8351
  121.6649  238.1858  328.4385 LP  0  0  0  0  0  0  0  0  0  0  0  0  # atno 13525 bound_to 9136
  125.2040  238.4430  325.7559 LP  0  0  0  0  0  0  0  0  0  0  0  0  # atno 13526 bound_to 11049
  124.5894  246.0167  318.8335 LP  0  0  0  0  0  0  0  0  0  0  0  0  # atno 13527 bound_to 4888
  125.6916  247.1714  319.1776 LP  0  0  0  0  0  0  0  0  0  0  0  0  # atno 13528 bound_to 4888
  119.3569  244.1974  314.5419 LP  0  0  0  0  0  0  0  0  0  0  0  0  # atno 13529 bound_to 8983
  120.6376  244.2769  315.5520 LP  0  0  0  0  0  0  0  0  0  0  0  0  # atno 13530 bound_to 8983
  114.4841  247.9151  317.6045 LP  0  0  0  0  0  0  0  0  0  0  0  0  # atno 13531 bound_to 8454
  113.2699  249.1483  317.6740 LP  0  0  0  0  0  0  0  0  0  0  0  0  # atno 13532 bound_to 8454
  112.6617  245.1338  317.0813 LP  0  0  0  0  0  0  0  0  0  0  0  0  # atno 13533 bound_to 8432
  112.8500  243.4750  317.5427 LP  0  0  0  0  0  0  0  0  0  0  0  0  # atno 13534 bound_to 8432
  118.6249  249.7009  331.4543 LP  0  0  0  0  0  0  0  0  0  0  0  0  # atno 13535 bound_to 3502
  119.3879  249.1747  329.9911 LP  0  0  0  0  0  0  0  0  0  0  0  0  # atno 13536 bound_to 3502
  119.3470  251.7973  329.0394 LP  0  0  0  0  0  0  0  0  0  0  0  0  # atno 13537 bound_to 3542
  112.4188  246.9965  318.1154 LP  0  0  0  0  0  0  0  0  0  0  0  0  # atno 13538 bound_to 8482
  115.2689  248.0847  316.1031 LP  0  0  0  0  0  0  0  0  0  0  0  0  # atno 13539 bound_to 8943
  110.2786  249.6099  318.0789 LP  0  0  0  0  0  0  0  0  0  0  0  0  # atno 13541 bound_to 8506
  108.2057  243.5463  318.3311 LP  0  0  0  0  0  0  0  0  0  0  0  0  # atno 13542 bound_to 5571
  110.2872  254.7096  322.4936 LP  0  0  0  0  0  0  0  0  0  0  0  0  # atno 13543 bound_to 12828
  110.0773  256.2142  321.6618 LP  0  0  0  0  0  0  0  0  0  0  0  0  # atno 13544 bound_to 12828

> <Gold.Score>
     Fitness  S(hb_ext) S(vdw_ext)  S(hb_int)    S(int)      intcor
     41.32      11.66      22.29       0.00      -0.99      -0.76

> <Gold.Goldscore.Fitness>
41.3211

> <Gold.Goldscore.Internal.Vdw>
-1.2568

> <Gold.Goldscore.Internal.Torsion>
-0.4929

> <Gold.Goldscore.External.Vdw>
22.2907

> <Gold.Goldscore.Internal.HBond>
0.0000

> <Gold.Goldscore.External.HBond>
11.6626

> <Gold.Goldscore.Internal.Correction>
-0.7585

> <Gold.Goldscore.Hbonds>
donor molecule, donor type, donor heavy atom, donor atom, acceptor molecule, acceptor atom, score
      L1  H     8    22       P1 13316  0.98
      L1  H    10    23       P1  8513  0.96

> <Gold.Goldscore.Internal.Vdw.Weighted>
-1.2568

> <Gold.Goldscore.Internal.Torsion.Weighted>
-0.4929

> <Gold.Goldscore.External.Vdw.Weighted>
30.6497

> <Gold.Goldscore.Internal.HBond.Weighted>
0.0000

> <Gold.Goldscore.External.HBond.Weighted>
11.6626

> <Gold.Goldscore.Internal.Correction.Weighted>
-0.7585

> <Gold.Rescore>
     Score     S(PLP)   S(hbond)     S(cho)   S(metal)  DE(clash)   DE(tors)     intcor
     34.43     -31.50       1.70       0.00       0.00       0.34       0.92       ----

> <Gold.PLP.Fitness>
34.4350

> <Gold.PLP.PLP>
-31.4965

> <Gold.PLP.part.hbond>
-2.0360

> <Gold.PLP.part.metal>
0.0000

> <Gold.PLP.part.buried>
-5.3755

> <Gold.PLP.part.nonpolar>
-29.0119

> <Gold.PLP.part.repulsive>
4.5567

> <Gold.PLP.ligand.clash>
0.3380

> <Gold.PLP.ligand.torsion>
0.9190

> <Gold.PLP.Chemscore.Hbond>
1.7048

> <Gold.PLP.Chemscore.CHOScore>
0.0000

> <Gold.PLP.Chemscore.Metal>
0.0000

> <Gold.Chemscore.Hbonds>
donor molecule, donor type, donor heavy atom, donor atom, acceptor molecule, acceptor atom, score
      L1  H     8    22       P1 13316  0.46
      L1  H    10    23       P1  8513  0.60

> <Gold.PLP.Chemscore.Internal.Correction>
   9.000000E+99

