#       Name:                CT1002167954
#       Creating user name   hitesit
#       Creation time:       Sun Apr 16 22:52:40 2023


#       File generated by GOLD software.
#

@<TRIPOS>MOLECULE
CT1002167954|ligand_prepared|mol2|1|dock6
    29    30     1
SMALL
NO_CHARGES


@<TRIPOS>ATOM
      1 C1         111.3754 246.2284 325.4276 C.3            1 RES1               0.0000
      2 C2         112.7757 245.6267 325.1916 C.ar           1 RES1               0.0000
      3 C3         111.5566 247.3480 326.4484 C.2            1 RES1               0.0000
      4 C4         110.8797 246.7023 324.0658 C.2            1 RES1               0.0000
      5 C5         110.3467 245.2172 325.9851 C.3            1 RES1               0.0000
      6 C6         112.9341 244.2594 324.9861 C.ar           1 RES1               0.0000
      7 C7         113.9163 246.4251 325.1741 C.ar           1 RES1               0.0000
      8 N8         111.4801 248.6328 325.9973 N.am           1 RES1               0.0000
      9 O9         111.8022 247.1073 327.6239 O.2            1 RES1               0.0000
     10 N10        110.7020 248.0483 323.8800 N.am           1 RES1               0.0000
     11 O11        110.6572 245.9237 323.1468 O.2            1 RES1               0.0000
     12 C12        109.0681 245.8621 326.4964 C.3            1 RES1               0.0000
     13 C13        114.1868 243.7105 324.7679 C.ar           1 RES1               0.0000
     14 C14        115.1682 245.8741 324.9559 C.ar           1 RES1               0.0000
     15 C15        111.0091 249.0375 324.7742 C.2            1 RES1               0.0000
     16 C16        115.3046 244.5174 324.7523 C.ar           1 RES1               0.0000
     17 O17        110.8724 250.2294 324.5140 O.2            1 RES1               0.0000
     18 H18        110.0896 244.5025 325.1936 H              1 RES1               0.0000
     19 H19        110.8116 244.6563 326.8052 H              1 RES1               0.0000
     20 H20        112.0663 243.6084 324.9974 H              1 RES1               0.0000
     21 H21        113.8331 247.4949 325.3330 H              1 RES1               0.0000
     22 H22        111.8030 249.3598 326.6277 H              1 RES1               0.0000
     23 H23        110.3039 248.3399 322.9930 H              1 RES1               0.0000
     24 H24        108.3812 245.1087 326.8762 H              1 RES1               0.0000
     25 H25        109.2840 246.5607 327.3021 H              1 RES1               0.0000
     26 H26        108.5662 246.4078 325.7001 H              1 RES1               0.0000
     27 H27        114.2889 242.6420 324.6096 H              1 RES1               0.0000
     28 H28        116.0452 246.5128 324.9451 H              1 RES1               0.0000
     29 H29        116.2858 244.0872 324.5810 H              1 RES1               0.0000
@<TRIPOS>BOND
    1    1    2 1     
    2    1    3 1     
    3    1    4 1     
    4    1    5 1     
    5    2    6 ar    
    6    2    7 ar    
    7    3    8 1     
    8    3    9 2     
    9    4   10 1     
   10    4   11 2     
   11    5   12 1     
   12    5   18 1     
   13    5   19 1     
   14    6   13 ar    
   15    6   20 1     
   16    7   14 ar    
   17    7   21 1     
   18    8   15 1     
   19    8   22 1     
   20   10   15 1     
   21   10   23 1     
   22   12   24 1     
   23   12   25 1     
   24   12   26 1     
   25   13   16 ar    
   26   13   27 1     
   27   14   16 ar    
   28   14   28 1     
   29   15   17 2     
   30   16   29 1     
@<TRIPOS>SUBSTRUCTURE
      1 RES1           1
@<TRIPOS>SET
DONOR_HYDROGENS      STATIC     ATOMS    <user>   **** ""
2 22 23
ATOM$RED        STATIC     ATOMS    COLORGROUP SYSTEM
2 22 23
@<TRIPOS>COMMENT
> <Gold.Version>
2022.3.0

> <Gold.Id.Protein>
unknown|5adg_clean|pdb

> <Gold.Protein.RotatedTorsions>
[ 5556 5551 5550 5547 ] final -137.09 input   60.01 | X-H torsion
[ 8542 8534 8535 8536 ] final  152.49 input   85.39 | X-H torsion
[ 12870 12858 12859 12860 ] final  -76.77 input  110.07 | X-H torsion
[ 12878 12869 12868 12866 ] final   63.52 input   59.97 | X-H torsion
[ 12906 12897 12898 12899 ] final  -37.36 input   35.92 | X-H torsion
[ 8434 8429 8430 8431 ] final  -46.15 input   45.97 | X-H torsion
[ 8458 8451 8452 8453 ] final  -20.45 input  104.20 | X-H torsion
[ 9002 8998 8999 9000 ] final -162.52 input   46.10 | X-H torsion
[ 9036 9022 9023 9024 ] final  -27.49 input   36.28 | X-H torsion
[ 9080 9068 9069 9070 ] final  109.66 input   95.83 | X-H torsion
[ 9088 9079 9078 9076 ] final   31.37 input   59.97 | X-H torsion
[ 9114 9106 9107 9108 ] final  176.88 input   84.45 | X-H torsion
[ 9192 9183 9184 9185 ] final    8.24 input  123.29 | X-H torsion
[ 3596 3592 3593 3594 ] final  -26.58 input   84.32 | X-H torsion
[ 8984 8978 8979 8980 ] final  -65.02 input   29.51 | X-H torsion
[ 9140 9136 9137 9138 ] final  170.63 input  134.07 | X-H torsion
[ 11056 11049 11050 11051 ] final   19.49 input   56.26 | X-H torsion
[ 4893 4888 4887 4884 ] final -104.52 input   60.00 | X-H torsion
[ 8988 8983 8982 8979 ] final -141.28 input   59.98 | X-H torsion
[ 3550 3542 3543 3544 ] final   39.95 input   80.85 | X-H torsion
[ 8488 8482 8483 8484 ] final -127.52 input   54.31 | X-H torsion
[ 8954 8943 8944 8945 ] final   62.83 input   47.77 | X-H torsion
[ 8514 8506 8507 8508 ] final   75.33 input   67.56 | X-H torsion
[ 5580 5571 5572 5573 ] final  175.25 input   48.82 | X-H torsion
[ 3570 3563 3564 3565 ] final   40.27 input  103.62 | X-H torsion
[ 9229 9212 9213 9214 ] final   71.55 input   91.82 | X-H torsion
[ 8576 8568 8569 8570 ] final   76.75 input   67.63 | X-H torsion
[ 13465 1235 1234 1233 ] final -174.39 input    0.00 | X-H torsion
[ 13468 5549 5548 5547 ] final -152.35 input   -0.00 | X-H torsion
[ 13472 8509 8508 8507 ] final  141.58 input    0.00 | X-H torsion
[ 13479 12900 12899 12898 ] final -111.94 input   -0.00 | X-H torsion
[ 13492 8406 8405 8404 ] final  103.29 input    0.00 | X-H torsion
[ 13496 8946 8945 8944 ] final    1.78 input   -0.00 | X-H torsion
[ 13499 9001 9000 8999 ] final   90.93 input    0.00 | X-H torsion
[ 13502 9025 9024 9023 ] final  120.02 input    0.00 | X-H torsion
[ 13505 9071 9070 9069 ] final  -64.93 input    0.00 | X-H torsion
[ 13510 9109 9108 9107 ] final -147.29 input    0.00 | X-H torsion
[ 13521 8981 8980 8979 ] final  162.01 input   -0.00 | X-H torsion
[ 13523 8351 8350 8349 ] final   60.79 input   -0.00 | X-H torsion
[ 13531 8454 8453 8452 ] final   82.00 input    0.00 | X-H torsion
[ 13533 8432 8431 8430 ] final  -72.46 input    0.00 | X-H torsion
[ 13535 3502 3501 3500 ] final -128.12 input    0.00 | X-H torsion
[ 13543 12828 12827 12826 ] final  -24.26 input   -0.00 | X-H torsion

> <Gold.Protein.ActiveResidues>
 TRP311  MET341  HIS342  TRP414  ALA417  ARG419  CYS420  VAL421  GLY422  LEU460 
 SER462  SER482  GLN483  ARG486  ALA502  TYR567  GLY568  LEU569  PRO570  ALA571 
 VAL572  SER573  ASN574  MET575  LEU576  PHE589  SER590  GLY591  TRP592  TYR593 
 MET594  GLY595  GLU597  ILE598  ARG601  ASP602  ARG608  ILE653  VAL654  TRP683 
 PHE709  GLU710  TYR711  GLN712  ASP714  HEM750  H4B760 

> <Gold.Protein.RotatedAtoms>
  120.7104  252.2455  329.7422 H   0  0  0  0  0  0  0  0  0  0  0  0  # atno 3550 bound_to 3542
  122.1611  248.4367  328.8061 H   0  0  0  0  0  0  0  0  0  0  0  0  # atno 3570 bound_to 3563
  124.5299  249.0064  328.3475 H   0  0  0  0  0  0  0  0  0  0  0  0  # atno 3596 bound_to 3592
  124.6618  246.5902  319.1786 H   0  0  0  0  0  0  0  0  0  0  0  0  # atno 4893 bound_to 4888
  106.2096  243.0636  321.5803 H   0  0  0  0  0  0  0  0  0  0  0  0  # atno 5556 bound_to 5551
  108.9642  244.1243  319.7932 H   0  0  0  0  0  0  0  0  0  0  0  0  # atno 5580 bound_to 5571
  115.5097  242.8759  319.6368 H   0  0  0  0  0  0  0  0  0  0  0  0  # atno 8434 bound_to 8429
  114.5443  245.6154  317.9263 H   0  0  0  0  0  0  0  0  0  0  0  0  # atno 8458 bound_to 8451
  112.4873  247.3930  318.3141 H   0  0  0  0  0  0  0  0  0  0  0  0  # atno 8488 bound_to 8482
  110.0466  248.6814  319.2862 H   0  0  0  0  0  0  0  0  0  0  0  0  # atno 8514 bound_to 8506
  110.2976  250.8216  320.0299 H   0  0  0  0  0  0  0  0  0  0  0  0  # atno 8542 bound_to 8534
  110.3393  255.4396  320.7823 H   0  0  0  0  0  0  0  0  0  0  0  0  # atno 8576 bound_to 8568
  115.2152  248.9204  316.7954 H   0  0  0  0  0  0  0  0  0  0  0  0  # atno 8954 bound_to 8943
  118.8271  247.7871  317.5232 H   0  0  0  0  0  0  0  0  0  0  0  0  # atno 8984 bound_to 8978
  119.2541  244.4675  314.4908 H   0  0  0  0  0  0  0  0  0  0  0  0  # atno 8988 bound_to 8983
  120.6313  245.6951  318.4996 H   0  0  0  0  0  0  0  0  0  0  0  0  # atno 9002 bound_to 8998
  122.1039  243.2605  321.2268 H   0  0  0  0  0  0  0  0  0  0  0  0  # atno 9036 bound_to 9022
  122.0183  239.1003  322.2176 H   0  0  0  0  0  0  0  0  0  0  0  0  # atno 9080 bound_to 9068
  114.6864  239.2492  323.2098 H   0  0  0  0  0  0  0  0  0  0  0  0  # atno 9088 bound_to 9079
  122.1559  240.8325  326.0302 H   0  0  0  0  0  0  0  0  0  0  0  0  # atno 9114 bound_to 9106
  123.1077  237.3348  328.2321 H   0  0  0  0  0  0  0  0  0  0  0  0  # atno 9140 bound_to 9136
  118.1780  237.4241  330.0624 H   0  0  0  0  0  0  0  0  0  0  0  0  # atno 9192 bound_to 9183
  117.5561  236.5875  328.7570 H   0  0  0  0  0  0  0  0  0  0  0  0  # atno 9229 bound_to 9212
  125.0541  237.7386  326.1241 H   0  0  0  0  0  0  0  0  0  0  0  0  # atno 11056 bound_to 11049
  110.1603  256.1633  323.8536 H   0  0  0  0  0  0  0  0  0  0  0  0  # atno 12870 bound_to 12858
  112.0958  251.6827  328.5732 H   0  0  0  0  0  0  0  0  0  0  0  0  # atno 12878 bound_to 12869
  106.2833  254.6858  323.8821 H   0  0  0  0  0  0  0  0  0  0  0  0  # atno 12906 bound_to 12897
  108.9974  254.7578  331.6605 LP  0  0  0  0  0  0  0  0  0  0  0  0  # atno 13465 bound_to 1235
  109.8855  253.4463  332.3613 LP  0  0  0  0  0  0  0  0  0  0  0  0  # atno 13466 bound_to 1235
  110.5196  245.7630  319.1575 LP  0  0  0  0  0  0  0  0  0  0  0  0  # atno 13468 bound_to 5549
  109.4952  246.4522  320.3722 LP  0  0  0  0  0  0  0  0  0  0  0  0  # atno 13469 bound_to 5549
  107.8147  243.2965  321.7153 LP  0  0  0  0  0  0  0  0  0  0  0  0  # atno 13470 bound_to 5551
  107.1456  243.0326  320.2492 LP  0  0  0  0  0  0  0  0  0  0  0  0  # atno 13471 bound_to 5551
  108.0247  252.4688  321.0524 LP  0  0  0  0  0  0  0  0  0  0  0  0  # atno 13472 bound_to 8509
  106.9245  252.0607  319.7784 LP  0  0  0  0  0  0  0  0  0  0  0  0  # atno 13473 bound_to 8509
  109.4082  251.7035  318.8163 LP  0  0  0  0  0  0  0  0  0  0  0  0  # atno 13474 bound_to 8534
  109.6747  256.5846  325.4779 LP  0  0  0  0  0  0  0  0  0  0  0  0  # atno 13475 bound_to 12858
  110.8228  251.0392  329.3569 LP  0  0  0  0  0  0  0  0  0  0  0  0  # atno 13476 bound_to 12869
  111.5155  252.4115  329.9077 LP  0  0  0  0  0  0  0  0  0  0  0  0  # atno 13477 bound_to 12869
  107.3719  255.2521  322.6377 LP  0  0  0  0  0  0  0  0  0  0  0  0  # atno 13478 bound_to 12897
  104.1618  252.8601  322.1006 LP  0  0  0  0  0  0  0  0  0  0  0  0  # atno 13479 bound_to 12900
  104.6885  253.3684  323.6704 LP  0  0  0  0  0  0  0  0  0  0  0  0  # atno 13480 bound_to 12900
  118.3097  243.2815  318.2688 LP  0  0  0  0  0  0  0  0  0  0  0  0  # atno 13492 bound_to 8406
  118.0617  243.7995  319.9029 LP  0  0  0  0  0  0  0  0  0  0  0  0  # atno 13493 bound_to 8406
  115.8847  241.8633  318.2643 LP  0  0  0  0  0  0  0  0  0  0  0  0  # atno 13494 bound_to 8429
  115.0664  245.2378  319.5540 LP  0  0  0  0  0  0  0  0  0  0  0  0  # atno 13495 bound_to 8451
  115.7489  247.1745  317.6022 LP  0  0  0  0  0  0  0  0  0  0  0  0  # atno 13496 bound_to 8946
  116.8957  245.9717  318.0903 LP  0  0  0  0  0  0  0  0  0  0  0  0  # atno 13497 bound_to 8946
  120.1559  244.0899  319.0068 LP  0  0  0  0  0  0  0  0  0  0  0  0  # atno 13498 bound_to 8998
  122.9800  242.0302  318.0018 LP  0  0  0  0  0  0  0  0  0  0  0  0  # atno 13499 bound_to 9001
  121.3041  241.9022  318.4200 LP  0  0  0  0  0  0  0  0  0  0  0  0  # atno 13500 bound_to 9001
  123.3608  243.0075  320.0446 LP  0  0  0  0  0  0  0  0  0  0  0  0  # atno 13501 bound_to 9022
  121.2689  242.3310  323.5481 LP  0  0  0  0  0  0  0  0  0  0  0  0  # atno 13502 bound_to 9025
  122.9532  242.6708  323.3291 LP  0  0  0  0  0  0  0  0  0  0  0  0  # atno 13503 bound_to 9025
  122.3741  240.7511  322.6736 LP  0  0  0  0  0  0  0  0  0  0  0  0  # atno 13504 bound_to 9068
  123.5773  238.1935  324.9845 LP  0  0  0  0  0  0  0  0  0  0  0  0  # atno 13505 bound_to 9071
  124.2142  239.7649  325.3380 LP  0  0  0  0  0  0  0  0  0  0  0  0  # atno 13506 bound_to 9071
  114.6609  237.6220  323.2308 LP  0  0  0  0  0  0  0  0  0  0  0  0  # atno 13507 bound_to 9079
  115.0117  238.4181  321.8488 LP  0  0  0  0  0  0  0  0  0  0  0  0  # atno 13508 bound_to 9079
  121.0468  239.4820  326.1173 LP  0  0  0  0  0  0  0  0  0  0  0  0  # atno 13509 bound_to 9106
  119.7492  238.0186  328.8579 LP  0  0  0  0  0  0  0  0  0  0  0  0  # atno 13510 bound_to 9109
  119.8671  239.0132  327.4448 LP  0  0  0  0  0  0  0  0  0  0  0  0  # atno 13511 bound_to 9109
  118.6396  239.0685  330.4235 LP  0  0  0  0  0  0  0  0  0  0  0  0  # atno 13512 bound_to 9183
  123.6401  247.5302  328.0839 LP  0  0  0  0  0  0  0  0  0  0  0  0  # atno 13519 bound_to 3592
  118.5777  247.0611  315.9554 LP  0  0  0  0  0  0  0  0  0  0  0  0  # atno 13520 bound_to 8978
  122.3129  246.5252  317.8452 LP  0  0  0  0  0  0  0  0  0  0  0  0  # atno 13521 bound_to 8981
  121.2615  246.7641  316.4897 LP  0  0  0  0  0  0  0  0  0  0  0  0  # atno 13522 bound_to 8981
  121.1213  237.1433  319.0480 LP  0  0  0  0  0  0  0  0  0  0  0  0  # atno 13523 bound_to 8351
  119.8097  237.8513  319.9304 LP  0  0  0  0  0  0  0  0  0  0  0  0  # atno 13524 bound_to 8351
  121.7620  238.2475  328.8803 LP  0  0  0  0  0  0  0  0  0  0  0  0  # atno 13525 bound_to 9136
  126.4357  237.8489  325.0627 LP  0  0  0  0  0  0  0  0  0  0  0  0  # atno 13526 bound_to 11049
  126.2138  246.9278  318.8247 LP  0  0  0  0  0  0  0  0  0  0  0  0  # atno 13527 bound_to 4888
  125.5066  245.5887  318.2135 LP  0  0  0  0  0  0  0  0  0  0  0  0  # atno 13528 bound_to 4888
  120.5120  244.0400  315.4305 LP  0  0  0  0  0  0  0  0  0  0  0  0  # atno 13529 bound_to 8983
  120.1080  245.6139  315.2684 LP  0  0  0  0  0  0  0  0  0  0  0  0  # atno 13530 bound_to 8983
  114.1270  247.9091  317.0917 LP  0  0  0  0  0  0  0  0  0  0  0  0  # atno 13531 bound_to 8454
  113.6270  249.1543  318.1868 LP  0  0  0  0  0  0  0  0  0  0  0  0  # atno 13532 bound_to 8454
  113.0472  244.6383  316.5679 LP  0  0  0  0  0  0  0  0  0  0  0  0  # atno 13533 bound_to 8432
  112.4645  243.9705  318.0561 LP  0  0  0  0  0  0  0  0  0  0  0  0  # atno 13534 bound_to 8432
  119.8517  249.3357  330.8810 LP  0  0  0  0  0  0  0  0  0  0  0  0  # atno 13535 bound_to 3502
  118.1611  249.5398  330.5644 LP  0  0  0  0  0  0  0  0  0  0  0  0  # atno 13536 bound_to 3502
  119.2317  251.3366  329.5501 LP  0  0  0  0  0  0  0  0  0  0  0  0  # atno 13537 bound_to 3542
  110.8816  246.8713  318.7592 LP  0  0  0  0  0  0  0  0  0  0  0  0  # atno 13538 bound_to 8482
  115.5410  248.9269  315.0792 LP  0  0  0  0  0  0  0  0  0  0  0  0  # atno 13539 bound_to 8943
  109.7993  249.1392  317.6202 LP  0  0  0  0  0  0  0  0  0  0  0  0  # atno 13541 bound_to 8506
  108.2163  243.6602  318.2803 LP  0  0  0  0  0  0  0  0  0  0  0  0  # atno 13542 bound_to 5571
  110.5488  256.1319  321.6694 LP  0  0  0  0  0  0  0  0  0  0  0  0  # atno 13543 bound_to 12828
  109.8157  254.7919  322.4859 LP  0  0  0  0  0  0  0  0  0  0  0  0  # atno 13544 bound_to 12828

> <Gold.Score>
     Fitness  S(hb_ext) S(vdw_ext)  S(hb_int)    S(int)      intcor
     39.50      12.05      20.44       0.00      -0.66      -0.76

> <Gold.Goldscore.Fitness>
39.4962

> <Gold.Goldscore.Internal.Vdw>
-0.8030

> <Gold.Goldscore.Internal.Torsion>
-0.6144

> <Gold.Goldscore.External.Vdw>
20.4403

> <Gold.Goldscore.Internal.HBond>
0.0000

> <Gold.Goldscore.External.HBond>
12.0496

> <Gold.Goldscore.Internal.Correction>
-0.7585

> <Gold.Goldscore.Hbonds>
donor molecule, donor type, donor heavy atom, donor atom, acceptor molecule, acceptor atom, score
      P1  H  5578  5587       L1    11  0.03
      L1  H     8    22       P1 13316  1.00
      L1  H    10    23       P1  8513  1.00

> <Gold.Goldscore.Internal.Vdw.Weighted>
-0.8030

> <Gold.Goldscore.Internal.Torsion.Weighted>
-0.6144

> <Gold.Goldscore.External.Vdw.Weighted>
28.1055

> <Gold.Goldscore.Internal.HBond.Weighted>
0.0000

> <Gold.Goldscore.External.HBond.Weighted>
12.0496

> <Gold.Goldscore.Internal.Correction.Weighted>
-0.7585

> <Gold.Rescore>
     Score     S(PLP)   S(hbond)     S(cho)   S(metal)  DE(clash)   DE(tors)     intcor
     35.58     -32.76       1.70       0.00       0.00       0.00       1.13       ----

> <Gold.PLP.Fitness>
35.5806

> <Gold.PLP.PLP>
-32.7585

> <Gold.PLP.part.hbond>
-2.0000

> <Gold.PLP.part.metal>
0.0000

> <Gold.PLP.part.buried>
-6.3390

> <Gold.PLP.part.nonpolar>
-26.7729

> <Gold.PLP.part.repulsive>
0.9553

> <Gold.PLP.ligand.clash>
0.0000

> <Gold.PLP.ligand.torsion>
1.1330

> <Gold.PLP.Chemscore.Hbond>
1.6960

> <Gold.PLP.Chemscore.CHOScore>
0.0000

> <Gold.PLP.Chemscore.Metal>
0.0000

> <Gold.Chemscore.Hbonds>
donor molecule, donor type, donor heavy atom, donor atom, acceptor molecule, acceptor atom, score
      L1  H     8    22       P1 13316  0.60
      L1  H    10    23       P1  8513  1.00

> <Gold.PLP.Chemscore.Internal.Correction>
   9.000000E+99

