#       Name:                CT1002167954
#       Creating user name   hitesit
#       Creation time:       Sun Apr 16 22:52:36 2023


#       File generated by GOLD software.
#

@<TRIPOS>MOLECULE
CT1002167954|ligand_prepared|mol2|1|dock1
    29    30     1
SMALL
NO_CHARGES


@<TRIPOS>ATOM
      1 C1         117.4864 245.6233 323.5468 C.3            1 RES1               0.0000
      2 C2         116.2372 246.3162 324.1283 C.ar           1 RES1               0.0000
      3 C3         117.0241 244.8904 322.2909 C.2            1 RES1               0.0000
      4 C4         118.5034 246.7283 323.2835 C.2            1 RES1               0.0000
      5 C5         118.1340 244.5963 324.5046 C.3            1 RES1               0.0000
      6 C6         115.3069 245.5940 324.8699 C.ar           1 RES1               0.0000
      7 C7         116.0031 247.6749 323.9343 C.ar           1 RES1               0.0000
      8 N8         117.3759 245.4203 321.0845 N.am           1 RES1               0.0000
      9 O9         116.3282 243.8847 322.3576 O.2            1 RES1               0.0000
     10 N10        118.8519 246.9835 321.9830 N.am           1 RES1               0.0000
     11 O11        118.9935 247.3914 324.1892 O.2            1 RES1               0.0000
     12 C12        119.4598 244.0437 324.0055 C.3            1 RES1               0.0000
     13 C13        114.1849 246.2085 325.4008 C.ar           1 RES1               0.0000
     14 C14        114.8803 248.2874 324.4658 C.ar           1 RES1               0.0000
     15 C15        118.3113 246.4004 320.8696 C.2            1 RES1               0.0000
     16 C16        113.9710 247.5555 325.1995 C.ar           1 RES1               0.0000
     17 O17        118.6375 246.7218 319.7305 O.2            1 RES1               0.0000
     18 H18        118.2950 245.0745 325.4786 H              1 RES1               0.0000
     19 H19        117.4368 243.7622 324.6517 H              1 RES1               0.0000
     20 H20        115.4572 244.5326 325.0366 H              1 RES1               0.0000
     21 H21        116.7044 248.2703 323.3595 H              1 RES1               0.0000
     22 H22        116.8993 245.0541 320.2665 H              1 RES1               0.0000
     23 H23        119.5822 247.6720 321.8310 H              1 RES1               0.0000
     24 H24        119.8708 243.3281 324.7145 H              1 RES1               0.0000
     25 H25        119.3322 243.5390 323.0501 H              1 RES1               0.0000
     26 H26        120.1853 244.8435 323.8721 H              1 RES1               0.0000
     27 H27        113.4716 245.6277 325.9763 H              1 RES1               0.0000
     28 H28        114.7157 249.3476 324.3044 H              1 RES1               0.0000
     29 H29        113.0922 248.0366 325.6158 H              1 RES1               0.0000
@<TRIPOS>BOND
    1    1    2 1     
    2    1    3 1     
    3    1    4 1     
    4    1    5 1     
    5    2    6 ar    
    6    2    7 ar    
    7    3    8 1     
    8    3    9 2     
    9    4   10 1     
   10    4   11 2     
   11    5   12 1     
   12    5   18 1     
   13    5   19 1     
   14    6   13 ar    
   15    6   20 1     
   16    7   14 ar    
   17    7   21 1     
   18    8   15 1     
   19    8   22 1     
   20   10   15 1     
   21   10   23 1     
   22   12   24 1     
   23   12   25 1     
   24   12   26 1     
   25   13   16 ar    
   26   13   27 1     
   27   14   16 ar    
   28   14   28 1     
   29   15   17 2     
   30   16   29 1     
@<TRIPOS>SUBSTRUCTURE
      1 RES1           1
@<TRIPOS>SET
DONOR_HYDROGENS      STATIC     ATOMS    <user>   **** ""
2 22 23
ATOM$RED        STATIC     ATOMS    COLORGROUP SYSTEM
2 22 23
@<TRIPOS>COMMENT
> <Gold.Version>
2022.3.0

> <Gold.Id.Protein>
unknown|5adg_clean|pdb

> <Gold.Protein.RotatedTorsions>
[ 5556 5551 5550 5547 ] final  -48.68 input   60.01 | X-H torsion
[ 8542 8534 8535 8536 ] final -157.59 input   85.39 | X-H torsion
[ 12870 12858 12859 12860 ] final   31.57 input  110.07 | X-H torsion
[ 12878 12869 12868 12866 ] final   70.48 input   59.97 | X-H torsion
[ 12906 12897 12898 12899 ] final  -73.80 input   35.92 | X-H torsion
[ 8434 8429 8430 8431 ] final  123.41 input   45.97 | X-H torsion
[ 8458 8451 8452 8453 ] final  -29.27 input  104.20 | X-H torsion
[ 9002 8998 8999 9000 ] final  126.35 input   46.10 | X-H torsion
[ 9036 9022 9023 9024 ] final  -43.61 input   36.28 | X-H torsion
[ 9080 9068 9069 9070 ] final -165.95 input   95.83 | X-H torsion
[ 9088 9079 9078 9076 ] final  -10.84 input   59.97 | X-H torsion
[ 9114 9106 9107 9108 ] final  -85.98 input   84.45 | X-H torsion
[ 9192 9183 9184 9185 ] final   11.57 input  123.29 | X-H torsion
[ 3596 3592 3593 3594 ] final -130.84 input   84.32 | X-H torsion
[ 8984 8978 8979 8980 ] final  165.63 input   29.51 | X-H torsion
[ 9140 9136 9137 9138 ] final -177.73 input  134.07 | X-H torsion
[ 11056 11049 11050 11051 ] final  -39.01 input   56.26 | X-H torsion
[ 4893 4888 4887 4884 ] final   -7.48 input   60.00 | X-H torsion
[ 8988 8983 8982 8979 ] final  -47.83 input   59.98 | X-H torsion
[ 3550 3542 3543 3544 ] final  -66.34 input   80.85 | X-H torsion
[ 8488 8482 8483 8484 ] final   86.78 input   54.31 | X-H torsion
[ 8954 8943 8944 8945 ] final  -55.16 input   47.77 | X-H torsion
[ 8514 8506 8507 8508 ] final  117.84 input   67.56 | X-H torsion
[ 5580 5571 5572 5573 ] final  157.13 input   48.82 | X-H torsion
[ 3570 3563 3564 3565 ] final   86.64 input  103.62 | X-H torsion
[ 9229 9212 9213 9214 ] final  -74.61 input   91.82 | X-H torsion
[ 8576 8568 8569 8570 ] final -151.10 input   67.63 | X-H torsion
[ 13465 1235 1234 1233 ] final  152.78 input    0.00 | X-H torsion
[ 13468 5549 5548 5547 ] final  -53.16 input   -0.00 | X-H torsion
[ 13472 8509 8508 8507 ] final  -61.72 input    0.00 | X-H torsion
[ 13479 12900 12899 12898 ] final   27.68 input   -0.00 | X-H torsion
[ 13492 8406 8405 8404 ] final  -77.49 input    0.00 | X-H torsion
[ 13496 8946 8945 8944 ] final   14.56 input   -0.00 | X-H torsion
[ 13499 9001 9000 8999 ] final  -19.34 input    0.00 | X-H torsion
[ 13502 9025 9024 9023 ] final  124.27 input    0.00 | X-H torsion
[ 13505 9071 9070 9069 ] final -106.57 input    0.00 | X-H torsion
[ 13510 9109 9108 9107 ] final   24.21 input    0.00 | X-H torsion
[ 13521 8981 8980 8979 ] final -134.84 input   -0.00 | X-H torsion
[ 13523 8351 8350 8349 ] final  -25.17 input   -0.00 | X-H torsion
[ 13531 8454 8453 8452 ] final   47.53 input    0.00 | X-H torsion
[ 13533 8432 8431 8430 ] final  173.11 input    0.00 | X-H torsion
[ 13535 3502 3501 3500 ] final   49.33 input    0.00 | X-H torsion
[ 13543 12828 12827 12826 ] final  -60.35 input   -0.00 | X-H torsion

> <Gold.Protein.ActiveResidues>
 TRP311  MET341  HIS342  TRP414  ALA417  ARG419  CYS420  VAL421  GLY422  LEU460 
 SER462  SER482  GLN483  ARG486  ALA502  TYR567  GLY568  LEU569  PRO570  ALA571 
 VAL572  SER573  ASN574  MET575  LEU576  PHE589  SER590  GLY591  TRP592  TYR593 
 MET594  GLY595  GLU597  ILE598  ARG601  ASP602  ARG608  ILE653  VAL654  TRP683 
 PHE709  GLU710  TYR711  GLN712  ASP714  HEM750  H4B760 

> <Gold.Protein.RotatedAtoms>
  119.9173  251.2418  330.3364 H   0  0  0  0  0  0  0  0  0  0  0  0  # atno 3550 bound_to 3542
  121.8271  248.1806  329.3675 H   0  0  0  0  0  0  0  0  0  0  0  0  # atno 3570 bound_to 3563
  124.4582  247.6865  328.7565 H   0  0  0  0  0  0  0  0  0  0  0  0  # atno 3596 bound_to 3592
  125.1538  245.5812  318.3375 H   0  0  0  0  0  0  0  0  0  0  0  0  # atno 4893 bound_to 4888
  106.6475  242.9793  320.3528 H   0  0  0  0  0  0  0  0  0  0  0  0  # atno 5556 bound_to 5551
  108.9138  243.8545  319.8498 H   0  0  0  0  0  0  0  0  0  0  0  0  # atno 5580 bound_to 5571
  115.7301  241.8277  318.2462 H   0  0  0  0  0  0  0  0  0  0  0  0  # atno 8434 bound_to 8429
  114.4699  245.5008  317.9349 H   0  0  0  0  0  0  0  0  0  0  0  0  # atno 8458 bound_to 8451
  111.0670  246.4986  318.4558 H   0  0  0  0  0  0  0  0  0  0  0  0  # atno 8488 bound_to 8482
  109.6616  248.2693  318.9878 H   0  0  0  0  0  0  0  0  0  0  0  0  # atno 8514 bound_to 8506
  109.5882  250.9516  320.1956 H   0  0  0  0  0  0  0  0  0  0  0  0  # atno 8542 bound_to 8534
  109.8725  254.5681  319.4954 H   0  0  0  0  0  0  0  0  0  0  0  0  # atno 8576 bound_to 8568
  115.3913  248.1487  315.5057 H   0  0  0  0  0  0  0  0  0  0  0  0  # atno 8954 bound_to 8943
  117.9656  247.0900  316.3824 H   0  0  0  0  0  0  0  0  0  0  0  0  # atno 8984 bound_to 8978
  119.7664  245.6215  315.0047 H   0  0  0  0  0  0  0  0  0  0  0  0  # atno 8988 bound_to 8983
  120.2700  245.4427  319.4333 H   0  0  0  0  0  0  0  0  0  0  0  0  # atno 9002 bound_to 8998
  121.9599  243.2207  321.0314 H   0  0  0  0  0  0  0  0  0  0  0  0  # atno 9036 bound_to 9022
  121.4061  240.1150  322.0921 H   0  0  0  0  0  0  0  0  0  0  0  0  # atno 9080 bound_to 9068
  114.5774  238.7305  323.6267 H   0  0  0  0  0  0  0  0  0  0  0  0  # atno 9088 bound_to 9079
  122.1143  239.5497  325.6733 H   0  0  0  0  0  0  0  0  0  0  0  0  # atno 9114 bound_to 9106
  123.0156  237.3443  328.0771 H   0  0  0  0  0  0  0  0  0  0  0  0  # atno 9140 bound_to 9136
  118.2057  237.4273  330.0195 H   0  0  0  0  0  0  0  0  0  0  0  0  # atno 9192 bound_to 9183
  116.0580  237.3673  328.9934 H   0  0  0  0  0  0  0  0  0  0  0  0  # atno 9229 bound_to 9212
  125.5529  237.0466  326.0097 H   0  0  0  0  0  0  0  0  0  0  0  0  # atno 11056 bound_to 11049
  109.3969  257.0902  324.6335 H   0  0  0  0  0  0  0  0  0  0  0  0  # atno 12870 bound_to 12858
  112.1394  251.7784  328.6167 H   0  0  0  0  0  0  0  0  0  0  0  0  # atno 12878 bound_to 12869
  106.4502  255.1955  324.0173 H   0  0  0  0  0  0  0  0  0  0  0  0  # atno 12906 bound_to 12897
  108.8988  254.3629  331.3884 LP  0  0  0  0  0  0  0  0  0  0  0  0  # atno 13465 bound_to 1235
  109.9841  253.8412  332.6333 LP  0  0  0  0  0  0  0  0  0  0  0  0  # atno 13466 bound_to 1235
  109.6067  246.7063  319.2843 LP  0  0  0  0  0  0  0  0  0  0  0  0  # atno 13468 bound_to 5549
  110.4082  245.5088  320.2454 LP  0  0  0  0  0  0  0  0  0  0  0  0  # atno 13469 bound_to 5549
  106.5328  243.1506  321.9672 LP  0  0  0  0  0  0  0  0  0  0  0  0  # atno 13470 bound_to 5551
  107.9869  243.2634  321.2327 LP  0  0  0  0  0  0  0  0  0  0  0  0  # atno 13471 bound_to 5551
  107.0712  252.3529  319.6541 LP  0  0  0  0  0  0  0  0  0  0  0  0  # atno 13472 bound_to 8509
  107.8780  252.1767  321.1767 LP  0  0  0  0  0  0  0  0  0  0  0  0  # atno 13473 bound_to 8509
  110.1097  251.5750  318.6525 LP  0  0  0  0  0  0  0  0  0  0  0  0  # atno 13474 bound_to 8534
  110.4216  255.6778  324.7149 LP  0  0  0  0  0  0  0  0  0  0  0  0  # atno 13475 bound_to 12858
  110.8687  250.9930  329.2626 LP  0  0  0  0  0  0  0  0  0  0  0  0  # atno 13476 bound_to 12869
  111.4257  252.3614  329.9581 LP  0  0  0  0  0  0  0  0  0  0  0  0  # atno 13477 bound_to 12869
  107.2090  254.7547  322.5058 LP  0  0  0  0  0  0  0  0  0  0  0  0  # atno 13478 bound_to 12897
  105.1526  253.3458  323.2943 LP  0  0  0  0  0  0  0  0  0  0  0  0  # atno 13479 bound_to 12900
  103.6976  252.8826  322.4767 LP  0  0  0  0  0  0  0  0  0  0  0  0  # atno 13480 bound_to 12900
  118.0547  243.8082  319.8990 LP  0  0  0  0  0  0  0  0  0  0  0  0  # atno 13492 bound_to 8406
  118.3167  243.2728  318.2727 LP  0  0  0  0  0  0  0  0  0  0  0  0  # atno 13493 bound_to 8406
  115.6683  242.8922  319.6292 LP  0  0  0  0  0  0  0  0  0  0  0  0  # atno 13494 bound_to 8429
  115.1384  245.3486  319.5456 LP  0  0  0  0  0  0  0  0  0  0  0  0  # atno 13495 bound_to 8451
  115.7256  247.0593  317.4494 LP  0  0  0  0  0  0  0  0  0  0  0  0  # atno 13496 bound_to 8946
  116.9190  246.0868  318.2431 LP  0  0  0  0  0  0  0  0  0  0  0  0  # atno 13497 bound_to 8946
  120.5067  244.3349  318.1003 LP  0  0  0  0  0  0  0  0  0  0  0  0  # atno 13498 bound_to 8998
  121.6821  242.5710  317.7953 LP  0  0  0  0  0  0  0  0  0  0  0  0  # atno 13499 bound_to 9001
  122.6020  241.3614  318.6265 LP  0  0  0  0  0  0  0  0  0  0  0  0  # atno 13500 bound_to 9001
  123.5031  243.0468  320.2378 LP  0  0  0  0  0  0  0  0  0  0  0  0  # atno 13501 bound_to 9022
  121.2850  242.2970  323.6000 LP  0  0  0  0  0  0  0  0  0  0  0  0  # atno 13502 bound_to 9025
  122.9371  242.7048  323.2772 LP  0  0  0  0  0  0  0  0  0  0  0  0  # atno 13503 bound_to 9025
  122.9690  239.7650  322.7955 LP  0  0  0  0  0  0  0  0  0  0  0  0  # atno 13504 bound_to 9068
  123.6747  238.2593  325.5888 LP  0  0  0  0  0  0  0  0  0  0  0  0  # atno 13505 bound_to 9071
  124.1168  239.6991  324.7337 LP  0  0  0  0  0  0  0  0  0  0  0  0  # atno 13506 bound_to 9071
  114.8204  237.5074  322.5808 LP  0  0  0  0  0  0  0  0  0  0  0  0  # atno 13507 bound_to 9079
  114.9620  239.0549  322.0789 LP  0  0  0  0  0  0  0  0  0  0  0  0  # atno 13508 bound_to 9079
  121.0871  240.7255  326.4632 LP  0  0  0  0  0  0  0  0  0  0  0  0  # atno 13509 bound_to 9106
  119.8666  239.1124  327.5263 LP  0  0  0  0  0  0  0  0  0  0  0  0  # atno 13510 bound_to 9109
  119.7497  237.9194  328.7765 LP  0  0  0  0  0  0  0  0  0  0  0  0  # atno 13511 bound_to 9109
  118.6125  239.0653  330.4656 LP  0  0  0  0  0  0  0  0  0  0  0  0  # atno 13512 bound_to 9183
  123.7110  248.8361  327.6793 LP  0  0  0  0  0  0  0  0  0  0  0  0  # atno 13519 bound_to 3592
  119.4255  247.7471  317.0780 LP  0  0  0  0  0  0  0  0  0  0  0  0  # atno 13520 bound_to 8978
  122.3314  245.9722  317.1266 LP  0  0  0  0  0  0  0  0  0  0  0  0  # atno 13521 bound_to 8981
  121.2430  247.3171  317.2082 LP  0  0  0  0  0  0  0  0  0  0  0  0  # atno 13522 bound_to 8981
  120.5210  236.8053  320.0069 LP  0  0  0  0  0  0  0  0  0  0  0  0  # atno 13523 bound_to 8351
  120.4101  238.1893  318.9714 LP  0  0  0  0  0  0  0  0  0  0  0  0  # atno 13524 bound_to 8351
  121.8511  238.2384  329.0302 LP  0  0  0  0  0  0  0  0  0  0  0  0  # atno 13525 bound_to 9136
  125.9458  238.5286  325.1750 LP  0  0  0  0  0  0  0  0  0  0  0  0  # atno 13526 bound_to 11049
  124.8794  246.8749  319.2857 LP  0  0  0  0  0  0  0  0  0  0  0  0  # atno 13527 bound_to 4888
  126.3454  246.6580  318.5998 LP  0  0  0  0  0  0  0  0  0  0  0  0  # atno 13528 bound_to 4888
  119.4293  244.0852  314.5876 LP  0  0  0  0  0  0  0  0  0  0  0  0  # atno 13529 bound_to 8983
  120.6747  244.4065  315.5937 LP  0  0  0  0  0  0  0  0  0  0  0  0  # atno 13530 bound_to 8983
  114.4382  247.8872  317.4993 LP  0  0  0  0  0  0  0  0  0  0  0  0  # atno 13531 bound_to 8454
  113.3158  249.1762  317.7792 LP  0  0  0  0  0  0  0  0  0  0  0  0  # atno 13532 bound_to 8454
  112.3517  244.8726  317.8257 LP  0  0  0  0  0  0  0  0  0  0  0  0  # atno 13533 bound_to 8432
  113.1600  243.7362  316.7983 LP  0  0  0  0  0  0  0  0  0  0  0  0  # atno 13534 bound_to 8432
  118.1564  249.5506  330.6012 LP  0  0  0  0  0  0  0  0  0  0  0  0  # atno 13535 bound_to 3502
  119.8564  249.3250  330.8442 LP  0  0  0  0  0  0  0  0  0  0  0  0  # atno 13536 bound_to 3502
  120.0100  252.3215  328.9671 LP  0  0  0  0  0  0  0  0  0  0  0  0  # atno 13537 bound_to 3542
  112.2749  247.7487  318.6202 LP  0  0  0  0  0  0  0  0  0  0  0  0  # atno 13538 bound_to 8482
  115.3686  249.6823  316.3418 LP  0  0  0  0  0  0  0  0  0  0  0  0  # atno 13539 bound_to 8943
  110.1779  249.5444  317.9136 LP  0  0  0  0  0  0  0  0  0  0  0  0  # atno 13541 bound_to 8506
  108.2651  243.9213  318.2256 LP  0  0  0  0  0  0  0  0  0  0  0  0  # atno 13542 bound_to 5571
  110.0178  256.2081  321.6701 LP  0  0  0  0  0  0  0  0  0  0  0  0  # atno 13543 bound_to 12828
  110.3467  254.7157  322.4852 LP  0  0  0  0  0  0  0  0  0  0  0  0  # atno 13544 bound_to 12828

> <Gold.Score>
     Fitness  S(hb_ext) S(vdw_ext)  S(hb_int)    S(int)      intcor
     58.71      10.67      35.71       0.00      -1.05      -0.79

> <Gold.Goldscore.Fitness>
58.7120

> <Gold.Goldscore.Internal.Vdw>
-1.3886

> <Gold.Goldscore.Internal.Torsion>
-0.4482

> <Gold.Goldscore.External.Vdw>
35.7058

> <Gold.Goldscore.Internal.HBond>
0.0000

> <Gold.Goldscore.External.HBond>
10.6684

> <Gold.Goldscore.Internal.Correction>
-0.7850

> <Gold.Goldscore.Hbonds>
donor molecule, donor type, donor heavy atom, donor atom, acceptor molecule, acceptor atom, score
      P1  H  8998  9002       L1    17  0.12
      P1  M 13332 13547       L1    11  1.00
      L1  H     8    22       P1  8429  0.07

> <Gold.Goldscore.Internal.Vdw.Weighted>
-1.3886

> <Gold.Goldscore.Internal.Torsion.Weighted>
-0.4482

> <Gold.Goldscore.External.Vdw.Weighted>
49.0954

> <Gold.Goldscore.Internal.HBond.Weighted>
0.0000

> <Gold.Goldscore.External.HBond.Weighted>
10.6684

> <Gold.Goldscore.Internal.Correction.Weighted>
-0.7850

> <Gold.Rescore>
     Score     S(PLP)   S(hbond)     S(cho)   S(metal)  DE(clash)   DE(tors)     intcor
     53.86     -46.62       1.15       0.00       1.00       0.00       1.10       ----

> <Gold.PLP.Fitness>
53.8621

> <Gold.PLP.PLP>
-46.6180

> <Gold.PLP.part.hbond>
-3.0000

> <Gold.PLP.part.metal>
-0.7371

> <Gold.PLP.part.buried>
12.7616

> <Gold.PLP.part.nonpolar>
-61.1185

> <Gold.PLP.part.repulsive>
2.4089

> <Gold.PLP.ligand.clash>
0.0000

> <Gold.PLP.ligand.torsion>
1.1000

> <Gold.PLP.Chemscore.Hbond>
1.1480

> <Gold.PLP.Chemscore.CHOScore>
0.0000

> <Gold.PLP.Chemscore.Metal>
1.0000

> <Gold.Chemscore.Hbonds>
donor molecule, donor type, donor heavy atom, donor atom, acceptor molecule, acceptor atom, score
      L1  H     8    22       P1  8406  0.16
      P1  H  8998  9002       L1    17  1.00
      P1  M 13332 13332       L1    11  1.00

> <Gold.PLP.Chemscore.Internal.Correction>
   9.000000E+99

