#       Name:                CT1002167954
#       Creating user name   hitesit
#       Creation time:       Sun Apr 16 22:52:39 2023


#       File generated by GOLD software.
#

@<TRIPOS>MOLECULE
CT1002167954|ligand_prepared|mol2|1|dock5
    29    30     1
SMALL
NO_CHARGES


@<TRIPOS>ATOM
      1 C1         117.5525 245.5316 323.4301 C.3            1 RES1               0.0000
      2 C2         116.3832 246.1994 324.1822 C.ar           1 RES1               0.0000
      3 C3         116.9484 244.8826 322.1884 C.2            1 RES1               0.0000
      4 C4         118.5540 246.6408 323.1276 C.2            1 RES1               0.0000
      5 C5         118.2808 244.4409 324.2496 C.3            1 RES1               0.0000
      6 C6         116.0912 247.5458 323.9858 C.ar           1 RES1               0.0000
      7 C7         115.5874 245.4826 325.0718 C.ar           1 RES1               0.0000
      8 N8         117.1795 245.4828 320.9858 N.am           1 RES1               0.0000
      9 O9         116.2470 243.8816 322.2677 O.2            1 RES1               0.0000
     10 N10        118.7675 246.9727 321.8154 N.am           1 RES1               0.0000
     11 O11        119.1478 247.2416 324.0146 O.2            1 RES1               0.0000
     12 C12        119.6145 244.0159 323.6557 C.3            1 RES1               0.0000
     13 C13        115.0399 248.1530 324.6524 C.ar           1 RES1               0.0000
     14 C14        114.5366 246.0918 325.7375 C.ar           1 RES1               0.0000
     15 C15        118.1029 246.4651 320.7324 C.2            1 RES1               0.0000
     16 C16        114.2617 247.4265 325.5282 C.ar           1 RES1               0.0000
     17 O17        118.3123 246.8533 319.5867 O.2            1 RES1               0.0000
     18 H18        118.4506 244.8171 325.2659 H              1 RES1               0.0000
     19 H19        117.6302 243.5606 324.3223 H              1 RES1               0.0000
     20 H20        116.6942 248.1343 323.3023 H              1 RES1               0.0000
     21 H21        115.7859 244.4317 325.2528 H              1 RES1               0.0000
     22 H22        116.6133 245.1728 320.2025 H              1 RES1               0.0000
     23 H23        119.4888 247.6620 321.6285 H              1 RES1               0.0000
     24 H24        120.0831 243.2493 324.2692 H              1 RES1               0.0000
     25 H25        119.4800 243.6130 322.6541 H              1 RES1               0.0000
     26 H26        120.2955 244.8621 323.5921 H              1 RES1               0.0000
     27 H27        114.8285 249.2040 324.4852 H              1 RES1               0.0000
     28 H28        113.9272 245.5163 326.4264 H              1 RES1               0.0000
     29 H29        113.4379 247.9023 326.0500 H              1 RES1               0.0000
@<TRIPOS>BOND
    1    1    2 1     
    2    1    3 1     
    3    1    4 1     
    4    1    5 1     
    5    2    6 ar    
    6    2    7 ar    
    7    3    8 1     
    8    3    9 2     
    9    4   10 1     
   10    4   11 2     
   11    5   12 1     
   12    5   18 1     
   13    5   19 1     
   14    6   13 ar    
   15    6   20 1     
   16    7   14 ar    
   17    7   21 1     
   18    8   15 1     
   19    8   22 1     
   20   10   15 1     
   21   10   23 1     
   22   12   24 1     
   23   12   25 1     
   24   12   26 1     
   25   13   16 ar    
   26   13   27 1     
   27   14   16 ar    
   28   14   28 1     
   29   15   17 2     
   30   16   29 1     
@<TRIPOS>SUBSTRUCTURE
      1 RES1           1
@<TRIPOS>SET
DONOR_HYDROGENS      STATIC     ATOMS    <user>   **** ""
2 22 23
ATOM$RED        STATIC     ATOMS    COLORGROUP SYSTEM
2 22 23
@<TRIPOS>COMMENT
> <Gold.Version>
2022.3.0

> <Gold.Id.Protein>
unknown|5adg_clean|pdb

> <Gold.Protein.RotatedTorsions>
[ 5556 5551 5550 5547 ] final  -23.05 input   60.01 | X-H torsion
[ 8542 8534 8535 8536 ] final  -33.09 input   85.39 | X-H torsion
[ 12870 12858 12859 12860 ] final  -69.15 input  110.07 | X-H torsion
[ 12878 12869 12868 12866 ] final  125.43 input   59.97 | X-H torsion
[ 12906 12897 12898 12899 ] final    2.59 input   35.92 | X-H torsion
[ 8434 8429 8430 8431 ] final -103.64 input   45.97 | X-H torsion
[ 8458 8451 8452 8453 ] final  -52.15 input  104.20 | X-H torsion
[ 9002 8998 8999 9000 ] final  -20.35 input   46.10 | X-H torsion
[ 9036 9022 9023 9024 ] final  -33.86 input   36.28 | X-H torsion
[ 9080 9068 9069 9070 ] final -131.01 input   95.83 | X-H torsion
[ 9088 9079 9078 9076 ] final   97.40 input   59.97 | X-H torsion
[ 9114 9106 9107 9108 ] final -175.05 input   84.45 | X-H torsion
[ 9192 9183 9184 9185 ] final  -82.45 input  123.29 | X-H torsion
[ 3596 3592 3593 3594 ] final   17.48 input   84.32 | X-H torsion
[ 8984 8978 8979 8980 ] final -144.91 input   29.51 | X-H torsion
[ 9140 9136 9137 9138 ] final  -88.94 input  134.07 | X-H torsion
[ 11056 11049 11050 11051 ] final   46.75 input   56.26 | X-H torsion
[ 4893 4888 4887 4884 ] final  175.80 input   60.00 | X-H torsion
[ 8988 8983 8982 8979 ] final  -50.64 input   59.98 | X-H torsion
[ 3550 3542 3543 3544 ] final   36.05 input   80.85 | X-H torsion
[ 8488 8482 8483 8484 ] final  -41.06 input   54.31 | X-H torsion
[ 8954 8943 8944 8945 ] final   21.99 input   47.77 | X-H torsion
[ 8514 8506 8507 8508 ] final   37.88 input   67.56 | X-H torsion
[ 5580 5571 5572 5573 ] final  161.39 input   48.82 | X-H torsion
[ 3570 3563 3564 3565 ] final  123.92 input  103.62 | X-H torsion
[ 9229 9212 9213 9214 ] final  169.25 input   91.82 | X-H torsion
[ 8576 8568 8569 8570 ] final  122.31 input   67.63 | X-H torsion
[ 13465 1235 1234 1233 ] final   30.55 input    0.00 | X-H torsion
[ 13468 5549 5548 5547 ] final -154.93 input   -0.00 | X-H torsion
[ 13472 8509 8508 8507 ] final  133.09 input    0.00 | X-H torsion
[ 13479 12900 12899 12898 ] final   66.53 input   -0.00 | X-H torsion
[ 13492 8406 8405 8404 ] final  -79.09 input    0.00 | X-H torsion
[ 13496 8946 8945 8944 ] final  136.39 input   -0.00 | X-H torsion
[ 13499 9001 9000 8999 ] final  173.73 input    0.00 | X-H torsion
[ 13502 9025 9024 9023 ] final  132.93 input    0.00 | X-H torsion
[ 13505 9071 9070 9069 ] final  128.54 input    0.00 | X-H torsion
[ 13510 9109 9108 9107 ] final   -7.79 input    0.00 | X-H torsion
[ 13521 8981 8980 8979 ] final  -10.69 input   -0.00 | X-H torsion
[ 13523 8351 8350 8349 ] final  -18.36 input   -0.00 | X-H torsion
[ 13531 8454 8453 8452 ] final  131.07 input    0.00 | X-H torsion
[ 13533 8432 8431 8430 ] final  -90.56 input    0.00 | X-H torsion
[ 13535 3502 3501 3500 ] final  128.59 input    0.00 | X-H torsion
[ 13543 12828 12827 12826 ] final   28.40 input   -0.00 | X-H torsion

> <Gold.Protein.ActiveResidues>
 TRP311  MET341  HIS342  TRP414  ALA417  ARG419  CYS420  VAL421  GLY422  LEU460 
 SER462  SER482  GLN483  ARG486  ALA502  TYR567  GLY568  LEU569  PRO570  ALA571 
 VAL572  SER573  ASN574  MET575  LEU576  PHE589  SER590  GLY591  TRP592  TYR593 
 MET594  GLY595  GLU597  ILE598  ARG601  ASP602  ARG608  ILE653  VAL654  TRP683 
 PHE709  GLU710  TYR711  GLN712  ASP714  HEM750  H4B760 

> <Gold.Protein.RotatedAtoms>
  120.7203  252.2149  329.7929 H   0  0  0  0  0  0  0  0  0  0  0  0  # atno 3550 bound_to 3542
  121.6675  248.3588  329.8843 H   0  0  0  0  0  0  0  0  0  0  0  0  # atno 3570 bound_to 3563
  124.0505  249.0832  327.9041 H   0  0  0  0  0  0  0  0  0  0  0  0  # atno 3596 bound_to 3592
  125.7144  247.1647  319.1625 H   0  0  0  0  0  0  0  0  0  0  0  0  # atno 4893 bound_to 4888
  107.0484  243.0224  320.2522 H   0  0  0  0  0  0  0  0  0  0  0  0  # atno 5556 bound_to 5551
  108.9288  243.9186  319.8438 H   0  0  0  0  0  0  0  0  0  0  0  0  # atno 5580 bound_to 5571
  116.3196  242.7919  319.4014 H   0  0  0  0  0  0  0  0  0  0  0  0  # atno 8434 bound_to 8429
  114.3173  245.2028  318.0462 H   0  0  0  0  0  0  0  0  0  0  0  0  # atno 8458 bound_to 8451
  111.6207  247.8783  319.0005 H   0  0  0  0  0  0  0  0  0  0  0  0  # atno 8488 bound_to 8482
  110.3386  249.1540  319.1826 H   0  0  0  0  0  0  0  0  0  0  0  0  # atno 8514 bound_to 8506
  109.3319  251.6913  318.8555 H   0  0  0  0  0  0  0  0  0  0  0  0  # atno 8542 bound_to 8534
  109.7446  255.2691  320.4825 H   0  0  0  0  0  0  0  0  0  0  0  0  # atno 8576 bound_to 8568
  115.2055  248.3462  316.5727 H   0  0  0  0  0  0  0  0  0  0  0  0  # atno 8954 bound_to 8943
  117.8892  247.3557  317.0646 H   0  0  0  0  0  0  0  0  0  0  0  0  # atno 8984 bound_to 8978
  119.7317  245.6113  314.9765 H   0  0  0  0  0  0  0  0  0  0  0  0  # atno 8988 bound_to 8983
  120.3438  244.0410  318.4733 H   0  0  0  0  0  0  0  0  0  0  0  0  # atno 9002 bound_to 8998
  122.0403  243.2458  321.1544 H   0  0  0  0  0  0  0  0  0  0  0  0  # atno 9036 bound_to 9022
  121.6062  240.5740  322.2735 H   0  0  0  0  0  0  0  0  0  0  0  0  # atno 9080 bound_to 9068
  114.9301  239.1810  322.2213 H   0  0  0  0  0  0  0  0  0  0  0  0  # atno 9088 bound_to 9079
  122.2335  240.7537  325.9719 H   0  0  0  0  0  0  0  0  0  0  0  0  # atno 9114 bound_to 9106
  121.9139  237.8718  327.8357 H   0  0  0  0  0  0  0  0  0  0  0  0  # atno 9140 bound_to 9136
  117.9451  238.2316  330.9916 H   0  0  0  0  0  0  0  0  0  0  0  0  # atno 9192 bound_to 9183
  116.9410  237.2575  327.7699 H   0  0  0  0  0  0  0  0  0  0  0  0  # atno 9229 bound_to 9212
  125.0422  238.1307  325.9885 H   0  0  0  0  0  0  0  0  0  0  0  0  # atno 11056 bound_to 11049
  110.0969  256.2558  323.8191 H   0  0  0  0  0  0  0  0  0  0  0  0  # atno 12870 bound_to 12858
  112.1195  252.3925  329.2242 H   0  0  0  0  0  0  0  0  0  0  0  0  # atno 12878 bound_to 12869
  106.3464  254.2629  323.4550 H   0  0  0  0  0  0  0  0  0  0  0  0  # atno 12906 bound_to 12897
  109.7123  253.2818  332.0736 LP  0  0  0  0  0  0  0  0  0  0  0  0  # atno 13465 bound_to 1235
  109.1706  254.9222  331.9482 LP  0  0  0  0  0  0  0  0  0  0  0  0  # atno 13466 bound_to 1235
  110.5337  245.7385  319.1845 LP  0  0  0  0  0  0  0  0  0  0  0  0  # atno 13468 bound_to 5549
  109.4812  246.4767  320.3452 LP  0  0  0  0  0  0  0  0  0  0  0  0  # atno 13469 bound_to 5549
  106.2490  243.0766  321.6689 LP  0  0  0  0  0  0  0  0  0  0  0  0  # atno 13470 bound_to 5551
  107.8671  243.2940  321.6324 LP  0  0  0  0  0  0  0  0  0  0  0  0  # atno 13471 bound_to 5551
  107.9807  252.3637  321.1112 LP  0  0  0  0  0  0  0  0  0  0  0  0  # atno 13472 bound_to 8509
  106.9686  252.1658  319.7196 LP  0  0  0  0  0  0  0  0  0  0  0  0  # atno 13473 bound_to 8509
  110.3632  250.8434  319.9777 LP  0  0  0  0  0  0  0  0  0  0  0  0  # atno 13474 bound_to 8534
  109.7368  256.4941  325.5117 LP  0  0  0  0  0  0  0  0  0  0  0  0  # atno 13475 bound_to 12858
  111.4691  251.0225  328.6338 LP  0  0  0  0  0  0  0  0  0  0  0  0  # atno 13476 bound_to 12869
  110.8454  251.7137  329.9754 LP  0  0  0  0  0  0  0  0  0  0  0  0  # atno 13477 bound_to 12869
  107.3102  255.6647  323.0544 LP  0  0  0  0  0  0  0  0  0  0  0  0  # atno 13478 bound_to 12897
  104.7101  253.3698  323.6623 LP  0  0  0  0  0  0  0  0  0  0  0  0  # atno 13479 bound_to 12900
  104.1402  252.8586  322.1087 LP  0  0  0  0  0  0  0  0  0  0  0  0  # atno 13480 bound_to 12900
  118.0404  243.8258  319.8905 LP  0  0  0  0  0  0  0  0  0  0  0  0  # atno 13492 bound_to 8406
  118.3310  243.2552  318.2812 LP  0  0  0  0  0  0  0  0  0  0  0  0  # atno 13493 bound_to 8406
  115.0897  241.9458  318.4954 LP  0  0  0  0  0  0  0  0  0  0  0  0  # atno 13494 bound_to 8429
  115.2861  245.6370  319.4380 LP  0  0  0  0  0  0  0  0  0  0  0  0  # atno 13495 bound_to 8451
  116.6042  245.8281  317.5063 LP  0  0  0  0  0  0  0  0  0  0  0  0  # atno 13496 bound_to 8946
  116.0405  247.3180  318.1862 LP  0  0  0  0  0  0  0  0  0  0  0  0  # atno 13497 bound_to 8946
  120.4350  245.6960  319.0324 LP  0  0  0  0  0  0  0  0  0  0  0  0  # atno 13498 bound_to 8998
  122.4265  241.3111  318.7008 LP  0  0  0  0  0  0  0  0  0  0  0  0  # atno 13499 bound_to 9001
  121.8577  242.6212  317.7210 LP  0  0  0  0  0  0  0  0  0  0  0  0  # atno 13500 bound_to 9001
  123.4236  243.0221  320.1162 LP  0  0  0  0  0  0  0  0  0  0  0  0  # atno 13501 bound_to 9022
  121.3317  242.2312  323.7031 LP  0  0  0  0  0  0  0  0  0  0  0  0  # atno 13502 bound_to 9025
  122.8904  242.7706  323.1742 LP  0  0  0  0  0  0  0  0  0  0  0  0  # atno 13503 bound_to 9025
  122.7746  239.3189  322.6193 LP  0  0  0  0  0  0  0  0  0  0  0  0  # atno 13504 bound_to 9068
  124.2113  239.6968  325.5293 LP  0  0  0  0  0  0  0  0  0  0  0  0  # atno 13505 bound_to 9071
  123.5801  238.2616  324.7932 LP  0  0  0  0  0  0  0  0  0  0  0  0  # atno 13506 bound_to 9071
  114.5619  238.5440  323.6730 LP  0  0  0  0  0  0  0  0  0  0  0  0  # atno 13507 bound_to 9079
  114.8653  237.5648  322.4019 LP  0  0  0  0  0  0  0  0  0  0  0  0  # atno 13508 bound_to 9079
  120.9716  239.5584  326.1738 LP  0  0  0  0  0  0  0  0  0  0  0  0  # atno 13509 bound_to 9106
  119.8534  239.3540  327.9378 LP  0  0  0  0  0  0  0  0  0  0  0  0  # atno 13510 bound_to 9109
  119.7629  237.6778  328.3649 LP  0  0  0  0  0  0  0  0  0  0  0  0  # atno 13511 bound_to 9109
  118.8684  238.2753  329.5108 LP  0  0  0  0  0  0  0  0  0  0  0  0  # atno 13512 bound_to 9183
  124.1144  247.4542  328.5226 LP  0  0  0  0  0  0  0  0  0  0  0  0  # atno 13519 bound_to 3592
  119.5007  247.4857  316.4066 LP  0  0  0  0  0  0  0  0  0  0  0  0  # atno 13520 bound_to 8978
  121.2221  246.8512  316.5446 LP  0  0  0  0  0  0  0  0  0  0  0  0  # atno 13521 bound_to 8981
  122.3523  246.4380  317.7903 LP  0  0  0  0  0  0  0  0  0  0  0  0  # atno 13522 bound_to 8981
  120.5981  236.7739  319.9465 LP  0  0  0  0  0  0  0  0  0  0  0  0  # atno 13523 bound_to 8351
  120.3330  238.2207  319.0318 LP  0  0  0  0  0  0  0  0  0  0  0  0  # atno 13524 bound_to 8351
  122.9162  237.7284  329.2636 LP  0  0  0  0  0  0  0  0  0  0  0  0  # atno 13525 bound_to 9136
  126.4475  237.4638  325.1960 LP  0  0  0  0  0  0  0  0  0  0  0  0  # atno 13526 bound_to 11049
  126.0770  245.9000  318.2049 LP  0  0  0  0  0  0  0  0  0  0  0  0  # atno 13527 bound_to 4888
  124.5830  246.0378  318.8495 LP  0  0  0  0  0  0  0  0  0  0  0  0  # atno 13528 bound_to 4888
  119.4556  244.0513  314.6049 LP  0  0  0  0  0  0  0  0  0  0  0  0  # atno 13529 bound_to 8983
  120.6834  244.4506  315.6048 LP  0  0  0  0  0  0  0  0  0  0  0  0  # atno 13530 bound_to 8983
  113.5668  248.2990  316.8649 LP  0  0  0  0  0  0  0  0  0  0  0  0  # atno 13531 bound_to 8454
  114.1872  248.7644  318.4136 LP  0  0  0  0  0  0  0  0  0  0  0  0  # atno 13532 bound_to 8454
  112.9359  244.8628  316.6750 LP  0  0  0  0  0  0  0  0  0  0  0  0  # atno 13533 bound_to 8432
  112.5758  243.7460  317.9490 LP  0  0  0  0  0  0  0  0  0  0  0  0  # atno 13534 bound_to 8432
  118.9332  249.2244  329.8866 LP  0  0  0  0  0  0  0  0  0  0  0  0  # atno 13535 bound_to 3502
  119.0796  249.6512  331.5588 LP  0  0  0  0  0  0  0  0  0  0  0  0  # atno 13536 bound_to 3502
  119.2221  251.3667  329.5004 LP  0  0  0  0  0  0  0  0  0  0  0  0  # atno 13537 bound_to 3542
  111.7318  246.3952  318.0858 LP  0  0  0  0  0  0  0  0  0  0  0  0  # atno 13538 bound_to 8482
  115.5505  249.4889  315.2973 LP  0  0  0  0  0  0  0  0  0  0  0  0  # atno 13539 bound_to 8943
  109.5121  248.6744  317.7220 LP  0  0  0  0  0  0  0  0  0  0  0  0  # atno 13541 bound_to 8506
  108.2506  243.8592  318.2314 LP  0  0  0  0  0  0  0  0  0  0  0  0  # atno 13542 bound_to 5571
  111.0264  255.5920  321.9348 LP  0  0  0  0  0  0  0  0  0  0  0  0  # atno 13543 bound_to 12828
  109.3380  255.3318  322.2206 LP  0  0  0  0  0  0  0  0  0  0  0  0  # atno 13544 bound_to 12828

> <Gold.Score>
     Fitness  S(hb_ext) S(vdw_ext)  S(hb_int)    S(int)      intcor
     59.16      10.36      36.09       0.00      -0.82      -0.76

> <Gold.Goldscore.Fitness>
59.1623

> <Gold.Goldscore.Internal.Vdw>
-0.9277

> <Gold.Goldscore.Internal.Torsion>
-0.6505

> <Gold.Goldscore.External.Vdw>
36.0884

> <Gold.Goldscore.Internal.HBond>
0.0000

> <Gold.Goldscore.External.HBond>
10.3606

> <Gold.Goldscore.Internal.Correction>
-0.7585

> <Gold.Goldscore.Hbonds>
donor molecule, donor type, donor heavy atom, donor atom, acceptor molecule, acceptor atom, score
      P1  M 13332 13547       L1    11  1.00
      L1  H     8    22       P1  8451  0.06

> <Gold.Goldscore.Internal.Vdw.Weighted>
-0.9277

> <Gold.Goldscore.Internal.Torsion.Weighted>
-0.6505

> <Gold.Goldscore.External.Vdw.Weighted>
49.6215

> <Gold.Goldscore.Internal.HBond.Weighted>
0.0000

> <Gold.Goldscore.External.HBond.Weighted>
10.3606

> <Gold.Goldscore.Internal.Correction.Weighted>
-0.7585

> <Gold.Rescore>
     Score     S(PLP)   S(hbond)     S(cho)   S(metal)  DE(clash)   DE(tors)     intcor
     50.41     -46.65       0.06       0.00       1.00       0.00       1.21       ----

> <Gold.PLP.Fitness>
50.4117

> <Gold.PLP.PLP>
-46.6499

> <Gold.PLP.part.hbond>
-3.0000

> <Gold.PLP.part.metal>
-1.0000

> <Gold.PLP.part.buried>
13.6249

> <Gold.PLP.part.nonpolar>
-60.2867

> <Gold.PLP.part.repulsive>
3.4945

> <Gold.PLP.ligand.clash>
0.0000

> <Gold.PLP.ligand.torsion>
1.2068

> <Gold.PLP.Chemscore.Hbond>
0.0585

> <Gold.PLP.Chemscore.CHOScore>
0.0000

> <Gold.PLP.Chemscore.Metal>
1.0000

> <Gold.Chemscore.Hbonds>
donor molecule, donor type, donor heavy atom, donor atom, acceptor molecule, acceptor atom, score
      P1  M 13332 13332       L1    11  1.00

> <Gold.PLP.Chemscore.Internal.Correction>
   9.000000E+99

