#       Name:                CT1002167954
#       Creating user name   hitesit
#       Creation time:       Sun Apr 16 22:52:41 2023


#       File generated by GOLD software.
#

@<TRIPOS>MOLECULE
CT1002167954|ligand_prepared|mol2|1|dock8
    29    30     1
SMALL
NO_CHARGES


@<TRIPOS>ATOM
      1 C1         110.6099 246.8476 326.2409 C.3            1 RES1               0.0000
      2 C2         110.3976 246.3185 327.6740 C.ar           1 RES1               0.0000
      3 C3         111.7043 245.9826 325.6225 C.2            1 RES1               0.0000
      4 C4         109.2598 246.7372 325.5410 C.2            1 RES1               0.0000
      5 C5         111.0596 248.3260 326.1809 C.3            1 RES1               0.0000
      6 C6         109.5568 246.9869 328.5588 C.ar           1 RES1               0.0000
      7 C7         111.0326 245.1640 328.1240 C.ar           1 RES1               0.0000
      8 N8         111.3302 245.0629 324.6877 N.am           1 RES1               0.0000
      9 O9         112.8723 246.0788 325.9785 O.2            1 RES1               0.0000
     10 N10        109.1496 245.8611 324.4931 N.am           1 RES1               0.0000
     11 O11        108.2861 247.3887 325.8982 O.2            1 RES1               0.0000
     12 C12        111.2605 248.8489 324.7672 C.3            1 RES1               0.0000
     13 C13        109.3555 246.5166 329.8459 C.ar           1 RES1               0.0000
     14 C14        110.8302 244.6955 329.4116 C.ar           1 RES1               0.0000
     15 C15        110.1151 244.9965 324.0544 C.2            1 RES1               0.0000
     16 C16        109.9916 245.3705 330.2730 C.ar           1 RES1               0.0000
     17 O17        109.9230 244.1996 323.1406 O.2            1 RES1               0.0000
     18 H18        110.3056 248.9451 326.6825 H              1 RES1               0.0000
     19 H19        112.0015 248.4313 326.7334 H              1 RES1               0.0000
     20 H20        109.0495 247.8918 328.2413 H              1 RES1               0.0000
     21 H21        111.6975 244.6172 327.4640 H              1 RES1               0.0000
     22 H22        112.0173 244.3594 324.4362 H              1 RES1               0.0000
     23 H23        108.2659 245.8528 323.9938 H              1 RES1               0.0000
     24 H24        111.5755 249.8902 324.7822 H              1 RES1               0.0000
     25 H25        112.0222 248.2719 324.2471 H              1 RES1               0.0000
     26 H26        110.3365 248.7826 324.1966 H              1 RES1               0.0000
     27 H27        108.6957 247.0522 330.5204 H              1 RES1               0.0000
     28 H28        111.3333 243.7934 329.7437 H              1 RES1               0.0000
     29 H29        109.8335 245.0020 331.2812 H              1 RES1               0.0000
@<TRIPOS>BOND
    1    1    2 1     
    2    1    3 1     
    3    1    4 1     
    4    1    5 1     
    5    2    6 ar    
    6    2    7 ar    
    7    3    8 1     
    8    3    9 2     
    9    4   10 1     
   10    4   11 2     
   11    5   12 1     
   12    5   18 1     
   13    5   19 1     
   14    6   13 ar    
   15    6   20 1     
   16    7   14 ar    
   17    7   21 1     
   18    8   15 1     
   19    8   22 1     
   20   10   15 1     
   21   10   23 1     
   22   12   24 1     
   23   12   25 1     
   24   12   26 1     
   25   13   16 ar    
   26   13   27 1     
   27   14   16 ar    
   28   14   28 1     
   29   15   17 2     
   30   16   29 1     
@<TRIPOS>SUBSTRUCTURE
      1 RES1           1
@<TRIPOS>SET
DONOR_HYDROGENS      STATIC     ATOMS    <user>   **** ""
2 22 23
ATOM$RED        STATIC     ATOMS    COLORGROUP SYSTEM
2 22 23
@<TRIPOS>COMMENT
> <Gold.Version>
2022.3.0

> <Gold.Id.Protein>
unknown|5adg_clean|pdb

> <Gold.Protein.RotatedTorsions>
[ 5556 5551 5550 5547 ] final    6.30 input   60.01 | X-H torsion
[ 8542 8534 8535 8536 ] final  -42.03 input   85.39 | X-H torsion
[ 12870 12858 12859 12860 ] final  165.92 input  110.07 | X-H torsion
[ 12878 12869 12868 12866 ] final -130.59 input   59.97 | X-H torsion
[ 12906 12897 12898 12899 ] final  -37.60 input   35.92 | X-H torsion
[ 8434 8429 8430 8431 ] final -133.76 input   45.97 | X-H torsion
[ 8458 8451 8452 8453 ] final   67.21 input  104.20 | X-H torsion
[ 9002 8998 8999 9000 ] final  147.93 input   46.10 | X-H torsion
[ 9036 9022 9023 9024 ] final -112.24 input   36.28 | X-H torsion
[ 9080 9068 9069 9070 ] final  -72.34 input   95.83 | X-H torsion
[ 9088 9079 9078 9076 ] final   53.34 input   59.97 | X-H torsion
[ 9114 9106 9107 9108 ] final  -36.21 input   84.45 | X-H torsion
[ 9192 9183 9184 9185 ] final   50.48 input  123.29 | X-H torsion
[ 3596 3592 3593 3594 ] final   29.02 input   84.32 | X-H torsion
[ 8984 8978 8979 8980 ] final -109.72 input   29.51 | X-H torsion
[ 9140 9136 9137 9138 ] final  125.41 input  134.07 | X-H torsion
[ 11056 11049 11050 11051 ] final   40.67 input   56.26 | X-H torsion
[ 4893 4888 4887 4884 ] final -106.09 input   60.00 | X-H torsion
[ 8988 8983 8982 8979 ] final -161.97 input   59.98 | X-H torsion
[ 3550 3542 3543 3544 ] final -110.52 input   80.85 | X-H torsion
[ 8488 8482 8483 8484 ] final  127.26 input   54.31 | X-H torsion
[ 8954 8943 8944 8945 ] final -160.68 input   47.77 | X-H torsion
[ 8514 8506 8507 8508 ] final  -46.71 input   67.56 | X-H torsion
[ 5580 5571 5572 5573 ] final   92.15 input   48.82 | X-H torsion
[ 3570 3563 3564 3565 ] final  -21.81 input  103.62 | X-H torsion
[ 9229 9212 9213 9214 ] final    9.74 input   91.82 | X-H torsion
[ 8576 8568 8569 8570 ] final  -94.45 input   67.63 | X-H torsion
[ 13465 1235 1234 1233 ] final   24.91 input    0.00 | X-H torsion
[ 13468 5549 5548 5547 ] final  108.97 input   -0.00 | X-H torsion
[ 13472 8509 8508 8507 ] final   33.09 input    0.00 | X-H torsion
[ 13479 12900 12899 12898 ] final -172.63 input   -0.00 | X-H torsion
[ 13492 8406 8405 8404 ] final   34.12 input    0.00 | X-H torsion
[ 13496 8946 8945 8944 ] final   10.30 input   -0.00 | X-H torsion
[ 13499 9001 9000 8999 ] final  145.45 input    0.00 | X-H torsion
[ 13502 9025 9024 9023 ] final  115.49 input    0.00 | X-H torsion
[ 13505 9071 9070 9069 ] final   53.83 input    0.00 | X-H torsion
[ 13510 9109 9108 9107 ] final   65.47 input    0.00 | X-H torsion
[ 13521 8981 8980 8979 ] final  175.87 input   -0.00 | X-H torsion
[ 13523 8351 8350 8349 ] final   93.50 input   -0.00 | X-H torsion
[ 13531 8454 8453 8452 ] final  -14.22 input    0.00 | X-H torsion
[ 13533 8432 8431 8430 ] final -112.23 input    0.00 | X-H torsion
[ 13535 3502 3501 3500 ] final   95.70 input    0.00 | X-H torsion
[ 13543 12828 12827 12826 ] final  177.54 input   -0.00 | X-H torsion

> <Gold.Protein.ActiveResidues>
 TRP311  MET341  HIS342  TRP414  ALA417  ARG419  CYS420  VAL421  GLY422  LEU460 
 SER462  SER482  GLN483  ARG486  ALA502  TYR567  GLY568  LEU569  PRO570  ALA571 
 VAL572  SER573  ASN574  MET575  LEU576  PHE589  SER590  GLY591  TRP592  TYR593 
 MET594  GLY595  GLU597  ILE598  ARG601  ASP602  ARG608  ILE653  VAL654  TRP683 
 PHE709  GLU710  TYR711  GLN712  ASP714  HEM750  H4B760 

> <Gold.Protein.RotatedAtoms>
  119.3977  251.1744  329.9302 H   0  0  0  0  0  0  0  0  0  0  0  0  # atno 3550 bound_to 3542
  122.5000  249.2869  328.7243 H   0  0  0  0  0  0  0  0  0  0  0  0  # atno 3570 bound_to 3563
  123.9154  249.0226  327.8085 H   0  0  0  0  0  0  0  0  0  0  0  0  # atno 3596 bound_to 3592
  124.6731  246.6111  319.1880 H   0  0  0  0  0  0  0  0  0  0  0  0  # atno 4893 bound_to 4888
  107.5039  243.0976  320.3613 H   0  0  0  0  0  0  0  0  0  0  0  0  # atno 5556 bound_to 5551
  108.5361  243.0912  319.4162 H   0  0  0  0  0  0  0  0  0  0  0  0  # atno 5580 bound_to 5571
  116.5470  242.5663  319.0740 H   0  0  0  0  0  0  0  0  0  0  0  0  # atno 8434 bound_to 8429
  115.2962  246.1680  318.7311 H   0  0  0  0  0  0  0  0  0  0  0  0  # atno 8458 bound_to 8451
  111.5665  246.3525  318.1379 H   0  0  0  0  0  0  0  0  0  0  0  0  # atno 8488 bound_to 8482
  110.3006  249.6256  318.0969 H   0  0  0  0  0  0  0  0  0  0  0  0  # atno 8514 bound_to 8506
  109.2340  251.6743  318.9492 H   0  0  0  0  0  0  0  0  0  0  0  0  # atno 8542 bound_to 8534
  110.6941  254.4279  319.3739 H   0  0  0  0  0  0  0  0  0  0  0  0  # atno 8576 bound_to 8568
  115.5540  249.5311  315.3119 H   0  0  0  0  0  0  0  0  0  0  0  0  # atno 8954 bound_to 8943
  118.1950  247.5877  317.4328 H   0  0  0  0  0  0  0  0  0  0  0  0  # atno 8984 bound_to 8978
  119.3811  244.1642  314.5605 H   0  0  0  0  0  0  0  0  0  0  0  0  # atno 8988 bound_to 8983
  120.3859  245.6495  319.2003 H   0  0  0  0  0  0  0  0  0  0  0  0  # atno 9002 bound_to 8998
  122.0727  243.0245  320.0688 H   0  0  0  0  0  0  0  0  0  0  0  0  # atno 9036 bound_to 9022
  122.3463  240.7812  322.6797 H   0  0  0  0  0  0  0  0  0  0  0  0  # atno 9080 bound_to 9068
  114.7690  239.3607  322.8809 H   0  0  0  0  0  0  0  0  0  0  0  0  # atno 9088 bound_to 9079
  121.4508  239.2877  325.8974 H   0  0  0  0  0  0  0  0  0  0  0  0  # atno 9114 bound_to 9106
  123.1779  237.4689  328.8994 H   0  0  0  0  0  0  0  0  0  0  0  0  # atno 9140 bound_to 9136
  118.5543  237.6607  329.6094 H   0  0  0  0  0  0  0  0  0  0  0  0  # atno 9192 bound_to 9183
  116.9554  236.7114  329.4368 H   0  0  0  0  0  0  0  0  0  0  0  0  # atno 9229 bound_to 9212
  125.0308  238.0468  326.0278 H   0  0  0  0  0  0  0  0  0  0  0  0  # atno 11056 bound_to 11049
  110.2105  255.8653  325.3313 H   0  0  0  0  0  0  0  0  0  0  0  0  # atno 12870 bound_to 12858
  110.9764  251.9323  330.0360 H   0  0  0  0  0  0  0  0  0  0  0  0  # atno 12878 bound_to 12869
  106.2837  254.6889  323.8839 H   0  0  0  0  0  0  0  0  0  0  0  0  # atno 12906 bound_to 12897
  109.7572  253.3063  332.1417 LP  0  0  0  0  0  0  0  0  0  0  0  0  # atno 13465 bound_to 1235
  109.1257  254.8977  331.8800 LP  0  0  0  0  0  0  0  0  0  0  0  0  # atno 13466 bound_to 1235
  110.2495  245.6151  320.4348 LP  0  0  0  0  0  0  0  0  0  0  0  0  # atno 13468 bound_to 5549
  109.7653  246.6001  319.0949 LP  0  0  0  0  0  0  0  0  0  0  0  0  # atno 13469 bound_to 5549
  106.1209  243.0057  321.2143 LP  0  0  0  0  0  0  0  0  0  0  0  0  # atno 13470 bound_to 5551
  107.5367  243.2892  321.9772 LP  0  0  0  0  0  0  0  0  0  0  0  0  # atno 13471 bound_to 5551
  107.0559  251.5395  320.6359 LP  0  0  0  0  0  0  0  0  0  0  0  0  # atno 13472 bound_to 8509
  107.8933  252.9901  320.1949 LP  0  0  0  0  0  0  0  0  0  0  0  0  # atno 13473 bound_to 8509
  110.4600  250.8603  319.8851 LP  0  0  0  0  0  0  0  0  0  0  0  0  # atno 13474 bound_to 8534
  109.6256  256.8762  324.0322 LP  0  0  0  0  0  0  0  0  0  0  0  0  # atno 13475 bound_to 12858
  112.1998  252.2590  329.0136 LP  0  0  0  0  0  0  0  0  0  0  0  0  # atno 13476 bound_to 12869
  111.2655  250.9405  328.7784 LP  0  0  0  0  0  0  0  0  0  0  0  0  # atno 13477 bound_to 12869
  107.3715  255.2490  322.6359 LP  0  0  0  0  0  0  0  0  0  0  0  0  # atno 13478 bound_to 12897
  103.5871  252.9386  322.7557 LP  0  0  0  0  0  0  0  0  0  0  0  0  # atno 13479 bound_to 12900
  105.2632  253.2898  323.0153 LP  0  0  0  0  0  0  0  0  0  0  0  0  # atno 13480 bound_to 12900
  118.7108  242.8524  319.0573 LP  0  0  0  0  0  0  0  0  0  0  0  0  # atno 13492 bound_to 8406
  117.6606  244.2286  319.1144 LP  0  0  0  0  0  0  0  0  0  0  0  0  # atno 13493 bound_to 8406
  114.8665  242.1672  318.8168 LP  0  0  0  0  0  0  0  0  0  0  0  0  # atno 13494 bound_to 8429
  114.3389  244.7031  318.7753 LP  0  0  0  0  0  0  0  0  0  0  0  0  # atno 13495 bound_to 8451
  115.7301  247.1007  317.4985 LP  0  0  0  0  0  0  0  0  0  0  0  0  # atno 13496 bound_to 8946
  116.9145  246.0454  318.1940 LP  0  0  0  0  0  0  0  0  0  0  0  0  # atno 13497 bound_to 8946
  120.3941  244.1342  318.3265 LP  0  0  0  0  0  0  0  0  0  0  0  0  # atno 13498 bound_to 8998
  122.7757  241.4591  318.5132 LP  0  0  0  0  0  0  0  0  0  0  0  0  # atno 13499 bound_to 9001
  121.5084  242.4733  317.9087 LP  0  0  0  0  0  0  0  0  0  0  0  0  # atno 13500 bound_to 9001
  123.3916  243.2407  321.1892 LP  0  0  0  0  0  0  0  0  0  0  0  0  # atno 13501 bound_to 9022
  121.2569  242.3684  323.4919 LP  0  0  0  0  0  0  0  0  0  0  0  0  # atno 13502 bound_to 9025
  122.9652  242.6334  323.3853 LP  0  0  0  0  0  0  0  0  0  0  0  0  # atno 13503 bound_to 9025
  122.0554  239.1175  322.2245 LP  0  0  0  0  0  0  0  0  0  0  0  0  # atno 13504 bound_to 9068
  124.0266  239.5324  324.5079 LP  0  0  0  0  0  0  0  0  0  0  0  0  # atno 13505 bound_to 9071
  123.7649  238.4260  325.8146 LP  0  0  0  0  0  0  0  0  0  0  0  0  # atno 13506 bound_to 9071
  114.5991  237.8615  323.4914 LP  0  0  0  0  0  0  0  0  0  0  0  0  # atno 13507 bound_to 9079
  114.9903  238.0663  321.9193 LP  0  0  0  0  0  0  0  0  0  0  0  0  # atno 13508 bound_to 9079
  121.7302  240.9794  326.2460 LP  0  0  0  0  0  0  0  0  0  0  0  0  # atno 13509 bound_to 9106
  119.8574  238.5509  327.2875 LP  0  0  0  0  0  0  0  0  0  0  0  0  # atno 13510 bound_to 9109
  119.7589  238.4810  329.0153 LP  0  0  0  0  0  0  0  0  0  0  0  0  # atno 13511 bound_to 9109
  118.2700  238.8361  330.8684 LP  0  0  0  0  0  0  0  0  0  0  0  0  # atno 13512 bound_to 9183
  124.2481  247.5141  328.6173 LP  0  0  0  0  0  0  0  0  0  0  0  0  # atno 13519 bound_to 3592
  119.1998  247.2573  316.0443 LP  0  0  0  0  0  0  0  0  0  0  0  0  # atno 13520 bound_to 8978
  122.3800  246.3626  317.7323 LP  0  0  0  0  0  0  0  0  0  0  0  0  # atno 13521 bound_to 8981
  121.1945  246.9266  316.6025 LP  0  0  0  0  0  0  0  0  0  0  0  0  # atno 13522 bound_to 8981
  121.0123  237.5608  318.8206 LP  0  0  0  0  0  0  0  0  0  0  0  0  # atno 13523 bound_to 8351
  119.9187  237.4338  320.1577 LP  0  0  0  0  0  0  0  0  0  0  0  0  # atno 13524 bound_to 8351
  121.6941  238.1179  328.2353 LP  0  0  0  0  0  0  0  0  0  0  0  0  # atno 13525 bound_to 9136
  126.4587  237.5462  325.1573 LP  0  0  0  0  0  0  0  0  0  0  0  0  # atno 13526 bound_to 11049
  126.2269  246.9117  318.8093 LP  0  0  0  0  0  0  0  0  0  0  0  0  # atno 13527 bound_to 4888
  125.4820  245.5837  318.2194 LP  0  0  0  0  0  0  0  0  0  0  0  0  # atno 13528 bound_to 4888
  120.6511  244.3171  315.5664 LP  0  0  0  0  0  0  0  0  0  0  0  0  # atno 13529 bound_to 8983
  119.8410  245.6423  315.0623 LP  0  0  0  0  0  0  0  0  0  0  0  0  # atno 13530 bound_to 8983
  114.4735  248.3687  318.2455 LP  0  0  0  0  0  0  0  0  0  0  0  0  # atno 13531 bound_to 8454
  113.2804  248.6947  317.0330 LP  0  0  0  0  0  0  0  0  0  0  0  0  # atno 13532 bound_to 8454
  112.7804  245.0573  316.8848 LP  0  0  0  0  0  0  0  0  0  0  0  0  # atno 13533 bound_to 8432
  112.7312  243.5515  317.7392 LP  0  0  0  0  0  0  0  0  0  0  0  0  # atno 13534 bound_to 8432
  118.4827  249.3429  330.0395 LP  0  0  0  0  0  0  0  0  0  0  0  0  # atno 13535 bound_to 3502
  119.5301  249.5327  331.4059 LP  0  0  0  0  0  0  0  0  0  0  0  0  # atno 13536 bound_to 3502
  120.5198  252.3876  329.3657 LP  0  0  0  0  0  0  0  0  0  0  0  0  # atno 13537 bound_to 3542
  111.7849  247.8921  318.9320 LP  0  0  0  0  0  0  0  0  0  0  0  0  # atno 13538 bound_to 8482
  115.2093  248.3290  316.5316 LP  0  0  0  0  0  0  0  0  0  0  0  0  # atno 13539 bound_to 8943
  109.5495  248.2106  318.7898 LP  0  0  0  0  0  0  0  0  0  0  0  0  # atno 13541 bound_to 8506
  108.6304  244.6596  318.6450 LP  0  0  0  0  0  0  0  0  0  0  0  0  # atno 13542 bound_to 5571
  109.5514  254.9689  322.4078 LP  0  0  0  0  0  0  0  0  0  0  0  0  # atno 13543 bound_to 12828
  110.8131  255.9549  321.7475 LP  0  0  0  0  0  0  0  0  0  0  0  0  # atno 13544 bound_to 12828

> <Gold.Score>
     Fitness  S(hb_ext) S(vdw_ext)  S(hb_int)    S(int)      intcor
     24.24       2.34      17.40       0.00      -2.01      -0.76

> <Gold.Goldscore.Fitness>
24.2417

> <Gold.Goldscore.Internal.Vdw>
-2.4040

> <Gold.Goldscore.Internal.Torsion>
-0.3676

> <Gold.Goldscore.External.Vdw>
17.3957

> <Gold.Goldscore.Internal.HBond>
0.0000

> <Gold.Goldscore.External.HBond>
2.3357

> <Gold.Goldscore.Internal.Correction>
-0.7585

> <Gold.Goldscore.Hbonds>
donor molecule, donor type, donor heavy atom, donor atom, acceptor molecule, acceptor atom, score
      P1  H  8512  8518       L1    11  0.17
      P1  H  5578  5587       L1    17  1.00

> <Gold.Goldscore.Internal.Vdw.Weighted>
-2.4040

> <Gold.Goldscore.Internal.Torsion.Weighted>
-0.3676

> <Gold.Goldscore.External.Vdw.Weighted>
23.9190

> <Gold.Goldscore.Internal.HBond.Weighted>
0.0000

> <Gold.Goldscore.External.HBond.Weighted>
2.3357

> <Gold.Goldscore.Internal.Correction.Weighted>
-0.7585

> <Gold.Rescore>
     Score     S(PLP)   S(hbond)     S(cho)   S(metal)  DE(clash)   DE(tors)     intcor
     28.85     -24.56       2.00       0.00       0.00       0.71       0.50       ----

> <Gold.PLP.Fitness>
28.8515

> <Gold.PLP.PLP>
-24.5573

> <Gold.PLP.part.hbond>
-2.0000

> <Gold.PLP.part.metal>
0.0000

> <Gold.PLP.part.buried>
-1.7142

> <Gold.PLP.part.nonpolar>
-22.0250

> <Gold.PLP.part.repulsive>
0.4403

> <Gold.PLP.ligand.clash>
0.7076

> <Gold.PLP.ligand.torsion>
0.4992

> <Gold.PLP.Chemscore.Hbond>
2.0000

> <Gold.PLP.Chemscore.CHOScore>
0.0000

> <Gold.PLP.Chemscore.Metal>
0.0000

> <Gold.Chemscore.Hbonds>
donor molecule, donor type, donor heavy atom, donor atom, acceptor molecule, acceptor atom, score
      P1  H  5578  5587       L1    17  1.00

> <Gold.PLP.Chemscore.Internal.Correction>
   9.000000E+99

