#       Name:                CT1002167954
#       Creating user name   hitesit
#       Creation time:       Sun Apr 16 22:52:41 2023


#       File generated by GOLD software.
#

@<TRIPOS>MOLECULE
CT1002167954|ligand_prepared|mol2|1|dock7
    29    30     1
SMALL
NO_CHARGES


@<TRIPOS>ATOM
      1 C1         112.2464 242.3346 327.2833 C.3            1 RES1               0.0000
      2 C2         112.6433 243.6635 326.6085 C.ar           1 RES1               0.0000
      3 C3         111.0012 241.8389 326.5539 C.2            1 RES1               0.0000
      4 C4         113.4532 241.4121 327.1514 C.2            1 RES1               0.0000
      5 C5         111.9126 242.4726 328.7870 C.3            1 RES1               0.0000
      6 C6         112.0210 244.8549 326.9692 C.ar           1 RES1               0.0000
      7 C7         113.6300 243.7142 325.6275 C.ar           1 RES1               0.0000
      8 N8         111.1454 240.7821 325.7040 N.am           1 RES1               0.0000
      9 O9         109.9171 242.3919 326.6921 O.2            1 RES1               0.0000
     10 N10        113.3231 240.2920 326.3728 N.am           1 RES1               0.0000
     11 O11        114.5207 241.6539 327.7013 O.2            1 RES1               0.0000
     12 C12        111.7983 241.1422 329.5143 C.3            1 RES1               0.0000
     13 C13        112.3743 246.0540 326.3729 C.ar           1 RES1               0.0000
     14 C14        113.9816 244.9145 325.0323 C.ar           1 RES1               0.0000
     15 C15        112.2336 239.9513 325.6185 C.2            1 RES1               0.0000
     16 C16        113.3550 246.0848 325.4045 C.ar           1 RES1               0.0000
     17 O17        112.2120 238.9557 324.9005 O.2            1 RES1               0.0000
     18 H18        112.6947 243.0724 329.2687 H              1 RES1               0.0000
     19 H19        110.9639 243.0138 328.8898 H              1 RES1               0.0000
     20 H20        111.2452 244.8500 327.7277 H              1 RES1               0.0000
     21 H21        114.1356 242.8059 325.3181 H              1 RES1               0.0000
     22 H22        110.3728 240.5920 325.0738 H              1 RES1               0.0000
     23 H23        114.1115 239.6529 326.3540 H              1 RES1               0.0000
     24 H24        111.5631 241.2961 330.5653 H              1 RES1               0.0000
     25 H25        111.0123 240.5299 329.0772 H              1 RES1               0.0000
     26 H26        112.7328 240.5881 329.4538 H              1 RES1               0.0000
     27 H27        111.8772 246.9721 326.6685 H              1 RES1               0.0000
     28 H28        114.7536 244.9339 324.2701 H              1 RES1               0.0000
     29 H29        113.6319 247.0243 324.9378 H              1 RES1               0.0000
@<TRIPOS>BOND
    1    1    2 1     
    2    1    3 1     
    3    1    4 1     
    4    1    5 1     
    5    2    6 ar    
    6    2    7 ar    
    7    3    8 1     
    8    3    9 2     
    9    4   10 1     
   10    4   11 2     
   11    5   12 1     
   12    5   18 1     
   13    5   19 1     
   14    6   13 ar    
   15    6   20 1     
   16    7   14 ar    
   17    7   21 1     
   18    8   15 1     
   19    8   22 1     
   20   10   15 1     
   21   10   23 1     
   22   12   24 1     
   23   12   25 1     
   24   12   26 1     
   25   13   16 ar    
   26   13   27 1     
   27   14   16 ar    
   28   14   28 1     
   29   15   17 2     
   30   16   29 1     
@<TRIPOS>SUBSTRUCTURE
      1 RES1           1
@<TRIPOS>SET
DONOR_HYDROGENS      STATIC     ATOMS    <user>   **** ""
2 22 23
ATOM$RED        STATIC     ATOMS    COLORGROUP SYSTEM
2 22 23
@<TRIPOS>COMMENT
> <Gold.Version>
2022.3.0

> <Gold.Id.Protein>
unknown|5adg_clean|pdb

> <Gold.Protein.RotatedTorsions>
[ 5556 5551 5550 5547 ] final   83.09 input   60.01 | X-H torsion
[ 8542 8534 8535 8536 ] final  123.73 input   85.39 | X-H torsion
[ 12870 12858 12859 12860 ] final -170.82 input  110.07 | X-H torsion
[ 12878 12869 12868 12866 ] final  -32.43 input   59.97 | X-H torsion
[ 12906 12897 12898 12899 ] final    2.53 input   35.92 | X-H torsion
[ 8434 8429 8430 8431 ] final   30.65 input   45.97 | X-H torsion
[ 8458 8451 8452 8453 ] final  164.71 input  104.20 | X-H torsion
[ 9002 8998 8999 9000 ] final -166.44 input   46.10 | X-H torsion
[ 9036 9022 9023 9024 ] final -116.38 input   36.28 | X-H torsion
[ 9080 9068 9069 9070 ] final -162.89 input   95.83 | X-H torsion
[ 9088 9079 9078 9076 ] final  -62.69 input   59.97 | X-H torsion
[ 9114 9106 9107 9108 ] final  110.75 input   84.45 | X-H torsion
[ 9192 9183 9184 9185 ] final  178.95 input  123.29 | X-H torsion
[ 3596 3592 3593 3594 ] final   61.60 input   84.32 | X-H torsion
[ 8984 8978 8979 8980 ] final  152.70 input   29.51 | X-H torsion
[ 9140 9136 9137 9138 ] final -154.49 input  134.07 | X-H torsion
[ 11056 11049 11050 11051 ] final  -24.08 input   56.26 | X-H torsion
[ 4893 4888 4887 4884 ] final  120.35 input   60.00 | X-H torsion
[ 8988 8983 8982 8979 ] final  146.93 input   59.98 | X-H torsion
[ 3550 3542 3543 3544 ] final    7.53 input   80.85 | X-H torsion
[ 8488 8482 8483 8484 ] final  137.14 input   54.31 | X-H torsion
[ 8954 8943 8944 8945 ] final -177.32 input   47.77 | X-H torsion
[ 8514 8506 8507 8508 ] final  -76.29 input   67.56 | X-H torsion
[ 5580 5571 5572 5573 ] final  -79.62 input   48.82 | X-H torsion
[ 3570 3563 3564 3565 ] final  178.96 input  103.62 | X-H torsion
[ 9229 9212 9213 9214 ] final -128.95 input   91.82 | X-H torsion
[ 8576 8568 8569 8570 ] final   38.90 input   67.63 | X-H torsion
[ 13465 1235 1234 1233 ] final -176.45 input    0.00 | X-H torsion
[ 13468 5549 5548 5547 ] final  -49.58 input   -0.00 | X-H torsion
[ 13472 8509 8508 8507 ] final   45.48 input    0.00 | X-H torsion
[ 13479 12900 12899 12898 ] final    8.04 input   -0.00 | X-H torsion
[ 13492 8406 8405 8404 ] final  155.20 input    0.00 | X-H torsion
[ 13496 8946 8945 8944 ] final  121.89 input   -0.00 | X-H torsion
[ 13499 9001 9000 8999 ] final   49.12 input    0.00 | X-H torsion
[ 13502 9025 9024 9023 ] final -108.57 input    0.00 | X-H torsion
[ 13505 9071 9070 9069 ] final   72.12 input    0.00 | X-H torsion
[ 13510 9109 9108 9107 ] final -151.66 input    0.00 | X-H torsion
[ 13521 8981 8980 8979 ] final  160.56 input   -0.00 | X-H torsion
[ 13523 8351 8350 8349 ] final  -70.44 input   -0.00 | X-H torsion
[ 13531 8454 8453 8452 ] final -151.82 input    0.00 | X-H torsion
[ 13533 8432 8431 8430 ] final  162.29 input    0.00 | X-H torsion
[ 13535 3502 3501 3500 ] final  162.84 input    0.00 | X-H torsion
[ 13543 12828 12827 12826 ] final   83.15 input   -0.00 | X-H torsion

> <Gold.Protein.ActiveResidues>
 TRP311  MET341  HIS342  TRP414  ALA417  ARG419  CYS420  VAL421  GLY422  LEU460 
 SER462  SER482  GLN483  ARG486  ALA502  TYR567  GLY568  LEU569  PRO570  ALA571 
 VAL572  SER573  ASN574  MET575  LEU576  PHE589  SER590  GLY591  TRP592  TYR593 
 MET594  GLY595  GLU597  ILE598  ARG601  ASP602  ARG608  ILE653  VAL654  TRP683 
 PHE709  GLU710  TYR711  GLN712  ASP714  HEM750  H4B760 

> <Gold.Protein.RotatedAtoms>
  120.6851  251.9411  330.1282 H   0  0  0  0  0  0  0  0  0  0  0  0  # atno 3550 bound_to 3542
  121.7455  249.0702  330.2915 H   0  0  0  0  0  0  0  0  0  0  0  0  # atno 3570 bound_to 3563
  123.5863  248.6993  327.6383 H   0  0  0  0  0  0  0  0  0  0  0  0  # atno 3596 bound_to 3592
  126.3090  246.7556  318.6748 H   0  0  0  0  0  0  0  0  0  0  0  0  # atno 4893 bound_to 4888
  107.9477  243.2829  321.4206 H   0  0  0  0  0  0  0  0  0  0  0  0  # atno 5556 bound_to 5551
  108.5964  244.6240  318.5240 H   0  0  0  0  0  0  0  0  0  0  0  0  # atno 5580 bound_to 5571
  114.8218  242.3045  319.0052 H   0  0  0  0  0  0  0  0  0  0  0  0  # atno 8434 bound_to 8429
  115.0130  245.1771  319.5839 H   0  0  0  0  0  0  0  0  0  0  0  0  # atno 8458 bound_to 8451
  111.7071  246.3746  318.0852 H   0  0  0  0  0  0  0  0  0  0  0  0  # atno 8488 bound_to 8482
  110.0633  249.4455  317.7606 H   0  0  0  0  0  0  0  0  0  0  0  0  # atno 8514 bound_to 8506
  110.5879  250.8918  319.7127 H   0  0  0  0  0  0  0  0  0  0  0  0  # atno 8542 bound_to 8534
  110.9021  255.3471  320.7041 H   0  0  0  0  0  0  0  0  0  0  0  0  # atno 8576 bound_to 8568
  115.5300  249.6877  315.5123 H   0  0  0  0  0  0  0  0  0  0  0  0  # atno 8954 bound_to 8943
  118.0826  247.0547  316.2263 H   0  0  0  0  0  0  0  0  0  0  0  0  # atno 8984 bound_to 8978
  119.9562  243.7747  314.9724 H   0  0  0  0  0  0  0  0  0  0  0  0  # atno 8988 bound_to 8983
  120.6161  245.7148  318.5550 H   0  0  0  0  0  0  0  0  0  0  0  0  # atno 9002 bound_to 8998
  122.1159  243.0152  320.0233 H   0  0  0  0  0  0  0  0  0  0  0  0  # atno 9036 bound_to 9022
  121.4126  240.1605  322.1034 H   0  0  0  0  0  0  0  0  0  0  0  0  # atno 9080 bound_to 9068
  114.5938  237.9184  323.5234 H   0  0  0  0  0  0  0  0  0  0  0  0  # atno 9088 bound_to 9079
  121.2813  240.8922  326.4442 H   0  0  0  0  0  0  0  0  0  0  0  0  # atno 9114 bound_to 9106
  122.7631  237.4166  327.8333 H   0  0  0  0  0  0  0  0  0  0  0  0  # atno 9140 bound_to 9136
  118.7181  239.0767  330.3052 H   0  0  0  0  0  0  0  0  0  0  0  0  # atno 9192 bound_to 9183
  116.1913  237.5439  328.2100 H   0  0  0  0  0  0  0  0  0  0  0  0  # atno 9229 bound_to 9212
  125.3804  237.1730  326.0909 H   0  0  0  0  0  0  0  0  0  0  0  0  # atno 11056 bound_to 11049
  110.3568  255.7086  325.0469 H   0  0  0  0  0  0  0  0  0  0  0  0  # atno 12870 bound_to 12858
  111.0193  250.9323  329.0354 H   0  0  0  0  0  0  0  0  0  0  0  0  # atno 12878 bound_to 12869
  106.3462  254.2633  323.4557 H   0  0  0  0  0  0  0  0  0  0  0  0  # atno 12906 bound_to 12897
  108.9864  254.7381  331.6389 LP  0  0  0  0  0  0  0  0  0  0  0  0  # atno 13465 bound_to 1235
  109.8965  253.4660  332.3829 LP  0  0  0  0  0  0  0  0  0  0  0  0  # atno 13466 bound_to 1235
  109.5791  246.7209  319.3286 LP  0  0  0  0  0  0  0  0  0  0  0  0  # atno 13468 bound_to 5549
  110.4357  245.4942  320.2011 LP  0  0  0  0  0  0  0  0  0  0  0  0  # atno 13469 bound_to 5549
  106.8252  242.9922  320.2787 LP  0  0  0  0  0  0  0  0  0  0  0  0  # atno 13470 bound_to 5551
  106.3858  243.1162  321.8465 LP  0  0  0  0  0  0  0  0  0  0  0  0  # atno 13471 bound_to 5551
  107.1600  251.5505  320.7907 LP  0  0  0  0  0  0  0  0  0  0  0  0  # atno 13472 bound_to 8509
  107.7892  252.9790  320.0401 LP  0  0  0  0  0  0  0  0  0  0  0  0  # atno 13473 bound_to 8509
  109.1211  251.6341  319.1300 LP  0  0  0  0  0  0  0  0  0  0  0  0  # atno 13474 bound_to 8534
  109.4825  257.0295  324.3104 LP  0  0  0  0  0  0  0  0  0  0  0  0  # atno 13475 bound_to 12858
  111.2115  252.1996  330.0382 LP  0  0  0  0  0  0  0  0  0  0  0  0  # atno 13476 bound_to 12869
  112.2106  252.0066  328.7610 LP  0  0  0  0  0  0  0  0  0  0  0  0  # atno 13477 bound_to 12869
  107.3105  255.6643  323.0537 LP  0  0  0  0  0  0  0  0  0  0  0  0  # atno 13478 bound_to 12897
  105.2612  253.2920  323.0249 LP  0  0  0  0  0  0  0  0  0  0  0  0  # atno 13479 bound_to 12900
  103.5891  252.9364  322.7461 LP  0  0  0  0  0  0  0  0  0  0  0  0  # atno 13480 bound_to 12900
  117.8572  243.8826  318.3612 LP  0  0  0  0  0  0  0  0  0  0  0  0  # atno 13492 bound_to 8406
  118.5143  243.1984  319.8104 LP  0  0  0  0  0  0  0  0  0  0  0  0  # atno 13493 bound_to 8406
  116.5598  242.4242  318.8843 LP  0  0  0  0  0  0  0  0  0  0  0  0  # atno 13494 bound_to 8429
  114.6129  245.6618  317.9501 LP  0  0  0  0  0  0  0  0  0  0  0  0  # atno 13495 bound_to 8451
  116.4632  245.8793  317.3474 LP  0  0  0  0  0  0  0  0  0  0  0  0  # atno 13496 bound_to 8946
  116.1814  247.2668  318.3451 LP  0  0  0  0  0  0  0  0  0  0  0  0  # atno 13497 bound_to 8946
  120.1707  244.0707  318.9530 LP  0  0  0  0  0  0  0  0  0  0  0  0  # atno 13498 bound_to 8998
  122.6461  242.4594  317.7083 LP  0  0  0  0  0  0  0  0  0  0  0  0  # atno 13499 bound_to 9001
  121.6380  241.4729  318.7135 LP  0  0  0  0  0  0  0  0  0  0  0  0  # atno 13500 bound_to 9001
  123.3489  243.2499  321.2342 LP  0  0  0  0  0  0  0  0  0  0  0  0  # atno 13501 bound_to 9022
  122.8073  242.2638  323.8957 LP  0  0  0  0  0  0  0  0  0  0  0  0  # atno 13502 bound_to 9025
  121.4148  242.7380  322.9815 LP  0  0  0  0  0  0  0  0  0  0  0  0  # atno 13503 bound_to 9025
  122.9627  239.7208  322.7845 LP  0  0  0  0  0  0  0  0  0  0  0  0  # atno 13504 bound_to 9068
  124.1114  239.6904  324.7167 LP  0  0  0  0  0  0  0  0  0  0  0  0  # atno 13505 bound_to 9071
  123.6800  238.2680  325.6058 LP  0  0  0  0  0  0  0  0  0  0  0  0  # atno 13506 bound_to 9071
  114.9831  238.0072  321.9456 LP  0  0  0  0  0  0  0  0  0  0  0  0  # atno 13507 bound_to 9079
  114.7827  239.3729  322.8181 LP  0  0  0  0  0  0  0  0  0  0  0  0  # atno 13508 bound_to 9079
  121.8945  239.4242  325.7160 LP  0  0  0  0  0  0  0  0  0  0  0  0  # atno 13509 bound_to 9106
  119.7493  237.9661  328.8179 LP  0  0  0  0  0  0  0  0  0  0  0  0  # atno 13510 bound_to 9109
  119.8670  239.0657  327.4848 LP  0  0  0  0  0  0  0  0  0  0  0  0  # atno 13511 bound_to 9109
  118.1091  237.4451  330.1850 LP  0  0  0  0  0  0  0  0  0  0  0  0  # atno 13512 bound_to 9183
  124.5738  247.8340  328.7857 LP  0  0  0  0  0  0  0  0  0  0  0  0  # atno 13519 bound_to 3592
  119.3104  247.7818  317.2316 LP  0  0  0  0  0  0  0  0  0  0  0  0  # atno 13520 bound_to 8978
  122.3040  246.5428  317.8548 LP  0  0  0  0  0  0  0  0  0  0  0  0  # atno 13521 bound_to 8981
  121.2704  246.7465  316.4800 LP  0  0  0  0  0  0  0  0  0  0  0  0  # atno 13522 bound_to 8981
  120.0403  237.2277  320.1938 LP  0  0  0  0  0  0  0  0  0  0  0  0  # atno 13523 bound_to 8351
  120.8908  237.7669  318.7846 LP  0  0  0  0  0  0  0  0  0  0  0  0  # atno 13524 bound_to 8351
  122.0952  238.1684  329.2659 LP  0  0  0  0  0  0  0  0  0  0  0  0  # atno 13525 bound_to 9136
  126.1153  238.4044  325.0953 LP  0  0  0  0  0  0  0  0  0  0  0  0  # atno 13526 bound_to 11049
  125.2703  245.5650  318.2858 LP  0  0  0  0  0  0  0  0  0  0  0  0  # atno 13527 bound_to 4888
  124.7908  246.7848  319.2599 LP  0  0  0  0  0  0  0  0  0  0  0  0  # atno 13528 bound_to 4888
  120.6006  245.1278  315.6063 LP  0  0  0  0  0  0  0  0  0  0  0  0  # atno 13529 bound_to 8983
  119.3122  245.2239  314.6075 LP  0  0  0  0  0  0  0  0  0  0  0  0  # atno 13530 bound_to 8983
  113.2230  249.0864  317.5183 LP  0  0  0  0  0  0  0  0  0  0  0  0  # atno 13531 bound_to 8454
  114.5310  247.9770  317.7601 LP  0  0  0  0  0  0  0  0  0  0  0  0  # atno 13532 bound_to 8454
  112.3333  244.7451  317.9262 LP  0  0  0  0  0  0  0  0  0  0  0  0  # atno 13533 bound_to 8432
  113.1784  243.8637  316.6978 LP  0  0  0  0  0  0  0  0  0  0  0  0  # atno 13534 bound_to 8432
  119.4251  249.1740  330.0120 LP  0  0  0  0  0  0  0  0  0  0  0  0  # atno 13535 bound_to 3502
  118.5877  249.7016  331.4334 LP  0  0  0  0  0  0  0  0  0  0  0  0  # atno 13536 bound_to 3502
  119.2566  251.6353  329.1714 LP  0  0  0  0  0  0  0  0  0  0  0  0  # atno 13537 bound_to 3542
  111.6469  247.8704  318.9837 LP  0  0  0  0  0  0  0  0  0  0  0  0  # atno 13538 bound_to 8482
  115.2328  248.1757  316.3353 LP  0  0  0  0  0  0  0  0  0  0  0  0  # atno 13539 bound_to 8943
  109.7829  248.3878  319.1205 LP  0  0  0  0  0  0  0  0  0  0  0  0  # atno 13541 bound_to 8506
  108.5721  243.1768  319.5081 LP  0  0  0  0  0  0  0  0  0  0  0  0  # atno 13542 bound_to 5571
  110.8189  254.9298  322.3255 LP  0  0  0  0  0  0  0  0  0  0  0  0  # atno 13543 bound_to 12828
  109.5456  255.9941  321.8298 LP  0  0  0  0  0  0  0  0  0  0  0  0  # atno 13544 bound_to 12828

> <Gold.Score>
     Fitness  S(hb_ext) S(vdw_ext)  S(hb_int)    S(int)      intcor
     30.71       1.01      22.20       0.00      -0.82      -0.76

> <Gold.Goldscore.Fitness>
30.7076

> <Gold.Goldscore.Internal.Vdw>
-1.0036

> <Gold.Goldscore.Internal.Torsion>
-0.5771

> <Gold.Goldscore.External.Vdw>
22.1976

> <Gold.Goldscore.Internal.HBond>
0.0000

> <Gold.Goldscore.External.HBond>
1.0081

> <Gold.Goldscore.Internal.Correction>
-0.7585

> <Gold.Goldscore.Hbonds>
donor molecule, donor type, donor heavy atom, donor atom, acceptor molecule, acceptor atom, score
      P1  H  5578  5586       L1    17  0.07
      P1  H  9519  9531       L1    17  0.15

> <Gold.Goldscore.Internal.Vdw.Weighted>
-1.0036

> <Gold.Goldscore.Internal.Torsion.Weighted>
-0.5771

> <Gold.Goldscore.External.Vdw.Weighted>
30.5217

> <Gold.Goldscore.Internal.HBond.Weighted>
0.0000

> <Gold.Goldscore.External.HBond.Weighted>
1.0081

> <Gold.Goldscore.Internal.Correction.Weighted>
-0.7585

> <Gold.Rescore>
     Score     S(PLP)   S(hbond)     S(cho)   S(metal)  DE(clash)   DE(tors)     intcor
     15.91     -18.83       0.13       0.00       0.00       0.54       1.39       ----

> <Gold.PLP.Fitness>
15.9098

> <Gold.PLP.PLP>
-18.8302

> <Gold.PLP.part.hbond>
-3.3804

> <Gold.PLP.part.metal>
0.0000

> <Gold.PLP.part.buried>
-4.6694

> <Gold.PLP.part.nonpolar>
-15.8926

> <Gold.PLP.part.repulsive>
4.6421

> <Gold.PLP.ligand.clash>
0.5362

> <Gold.PLP.ligand.torsion>
1.3910

> <Gold.PLP.Chemscore.Hbond>
0.1326

> <Gold.PLP.Chemscore.CHOScore>
0.0000

> <Gold.PLP.Chemscore.Metal>
0.0000

> <Gold.PLP.Chemscore.Internal.Correction>
   9.000000E+99

