#       Name:                CT1002167954
#       Creating user name   hitesit
#       Creation time:       Sun Apr 16 22:52:42 2023


#       File generated by GOLD software.
#

@<TRIPOS>MOLECULE
CT1002167954|ligand_prepared|mol2|1|dock9
    29    30     1
SMALL
NO_CHARGES


@<TRIPOS>ATOM
      1 C1         111.9113 242.3948 328.3615 C.3            1 RES1               0.0000
      2 C2         112.4909 242.8528 327.0076 C.ar           1 RES1               0.0000
      3 C3         112.8782 241.3496 328.9100 C.2            1 RES1               0.0000
      4 C4         111.7960 243.6480 329.2222 C.2            1 RES1               0.0000
      5 C5         110.5065 241.7569 328.2560 C.3            1 RES1               0.0000
      6 C6         111.7827 243.7330 326.1949 C.ar           1 RES1               0.0000
      7 C7         113.7316 242.4067 326.5599 C.ar           1 RES1               0.0000
      8 N8         113.6816 241.7158 329.9494 N.am           1 RES1               0.0000
      9 O9         112.9625 240.2336 328.4123 O.2            1 RES1               0.0000
     10 N10        112.5853 243.7348 330.3390 N.am           1 RES1               0.0000
     11 O11        111.0410 244.5685 328.9342 O.2            1 RES1               0.0000
     12 C12        109.9495 241.2768 329.5869 C.3            1 RES1               0.0000
     13 C13        112.2974 244.1543 324.9801 C.ar           1 RES1               0.0000
     14 C14        114.2443 242.8291 325.3445 C.ar           1 RES1               0.0000
     15 C15        113.5450 242.8391 330.7248 C.2            1 RES1               0.0000
     16 C16        113.5285 243.7031 324.5543 C.ar           1 RES1               0.0000
     17 O17        114.2529 243.0134 331.7126 O.2            1 RES1               0.0000
     18 H18        109.8151 242.4939 327.8291 H              1 RES1               0.0000
     19 H19        110.5563 240.9052 327.5663 H              1 RES1               0.0000
     20 H20        110.8112 244.0969 326.5123 H              1 RES1               0.0000
     21 H21        114.3118 241.7180 327.1646 H              1 RES1               0.0000
     22 H22        114.4555 241.0974 330.1705 H              1 RES1               0.0000
     23 H23        112.4441 244.5417 330.9384 H              1 RES1               0.0000
     24 H24        108.9626 240.8380 329.4563 H              1 RES1               0.0000
     25 H25        110.5994 240.5240 330.0281 H              1 RES1               0.0000
     26 H26        109.8627 242.1032 330.2893 H              1 RES1               0.0000
     27 H27        111.7295 244.8412 324.3612 H              1 RES1               0.0000
     28 H28        115.2133 242.4709 325.0131 H              1 RES1               0.0000
     29 H29        113.9316 244.0336 323.6027 H              1 RES1               0.0000
@<TRIPOS>BOND
    1    1    2 1     
    2    1    3 1     
    3    1    4 1     
    4    1    5 1     
    5    2    6 ar    
    6    2    7 ar    
    7    3    8 1     
    8    3    9 2     
    9    4   10 1     
   10    4   11 2     
   11    5   12 1     
   12    5   18 1     
   13    5   19 1     
   14    6   13 ar    
   15    6   20 1     
   16    7   14 ar    
   17    7   21 1     
   18    8   15 1     
   19    8   22 1     
   20   10   15 1     
   21   10   23 1     
   22   12   24 1     
   23   12   25 1     
   24   12   26 1     
   25   13   16 ar    
   26   13   27 1     
   27   14   16 ar    
   28   14   28 1     
   29   15   17 2     
   30   16   29 1     
@<TRIPOS>SUBSTRUCTURE
      1 RES1           1
@<TRIPOS>SET
DONOR_HYDROGENS      STATIC     ATOMS    <user>   **** ""
2 22 23
ATOM$RED        STATIC     ATOMS    COLORGROUP SYSTEM
2 22 23
@<TRIPOS>COMMENT
> <Gold.Version>
2022.3.0

> <Gold.Id.Protein>
unknown|5adg_clean|pdb

> <Gold.Protein.RotatedTorsions>
[ 5556 5551 5550 5547 ] final  -41.08 input   60.01 | X-H torsion
[ 8542 8534 8535 8536 ] final  158.22 input   85.39 | X-H torsion
[ 12870 12858 12859 12860 ] final  -87.03 input  110.07 | X-H torsion
[ 12878 12869 12868 12866 ] final -172.32 input   59.97 | X-H torsion
[ 12906 12897 12898 12899 ] final   94.85 input   35.92 | X-H torsion
[ 8434 8429 8430 8431 ] final   72.60 input   45.97 | X-H torsion
[ 8458 8451 8452 8453 ] final    0.17 input  104.20 | X-H torsion
[ 9002 8998 8999 9000 ] final  -44.03 input   46.10 | X-H torsion
[ 9036 9022 9023 9024 ] final -100.13 input   36.28 | X-H torsion
[ 9080 9068 9069 9070 ] final   35.40 input   95.83 | X-H torsion
[ 9088 9079 9078 9076 ] final   30.81 input   59.97 | X-H torsion
[ 9114 9106 9107 9108 ] final   36.79 input   84.45 | X-H torsion
[ 9192 9183 9184 9185 ] final   59.00 input  123.29 | X-H torsion
[ 3596 3592 3593 3594 ] final  -57.75 input   84.32 | X-H torsion
[ 8984 8978 8979 8980 ] final  117.77 input   29.51 | X-H torsion
[ 9140 9136 9137 9138 ] final  108.84 input  134.07 | X-H torsion
[ 11056 11049 11050 11051 ] final   53.48 input   56.26 | X-H torsion
[ 4893 4888 4887 4884 ] final -124.11 input   60.00 | X-H torsion
[ 8988 8983 8982 8979 ] final -138.39 input   59.98 | X-H torsion
[ 3550 3542 3543 3544 ] final -156.93 input   80.85 | X-H torsion
[ 8488 8482 8483 8484 ] final  178.31 input   54.31 | X-H torsion
[ 8954 8943 8944 8945 ] final  117.21 input   47.77 | X-H torsion
[ 8514 8506 8507 8508 ] final  -36.71 input   67.56 | X-H torsion
[ 5580 5571 5572 5573 ] final  155.12 input   48.82 | X-H torsion
[ 3570 3563 3564 3565 ] final -152.67 input  103.62 | X-H torsion
[ 9229 9212 9213 9214 ] final   39.36 input   91.82 | X-H torsion
[ 8576 8568 8569 8570 ] final  174.15 input   67.63 | X-H torsion
[ 13465 1235 1234 1233 ] final  -76.39 input    0.00 | X-H torsion
[ 13468 5549 5548 5547 ] final -135.47 input   -0.00 | X-H torsion
[ 13472 8509 8508 8507 ] final  121.91 input    0.00 | X-H torsion
[ 13479 12900 12899 12898 ] final   37.39 input   -0.00 | X-H torsion
[ 13492 8406 8405 8404 ] final -112.61 input    0.00 | X-H torsion
[ 13496 8946 8945 8944 ] final  134.37 input   -0.00 | X-H torsion
[ 13499 9001 9000 8999 ] final   59.91 input    0.00 | X-H torsion
[ 13502 9025 9024 9023 ] final  -73.48 input    0.00 | X-H torsion
[ 13505 9071 9070 9069 ] final -156.36 input    0.00 | X-H torsion
[ 13510 9109 9108 9107 ] final -139.95 input    0.00 | X-H torsion
[ 13521 8981 8980 8979 ] final    3.95 input   -0.00 | X-H torsion
[ 13523 8351 8350 8349 ] final -144.15 input   -0.00 | X-H torsion
[ 13531 8454 8453 8452 ] final   24.38 input    0.00 | X-H torsion
[ 13533 8432 8431 8430 ] final  -41.86 input    0.00 | X-H torsion
[ 13535 3502 3501 3500 ] final -113.05 input    0.00 | X-H torsion
[ 13543 12828 12827 12826 ] final  -15.63 input   -0.00 | X-H torsion

> <Gold.Protein.ActiveResidues>
 TRP311  MET341  HIS342  TRP414  ALA417  ARG419  CYS420  VAL421  GLY422  LEU460 
 SER462  SER482  GLN483  ARG486  ALA502  TYR567  GLY568  LEU569  PRO570  ALA571 
 VAL572  SER573  ASN574  MET575  LEU576  PHE589  SER590  GLY591  TRP592  TYR593 
 MET594  GLY595  GLU597  ILE598  ARG601  ASP602  ARG608  ILE653  VAL654  TRP683 
 PHE709  GLU710  TYR711  GLN712  ASP714  HEM750  H4B760 

> <Gold.Protein.RotatedAtoms>
  119.1999  251.4749  329.3360 H   0  0  0  0  0  0  0  0  0  0  0  0  # atno 3550 bound_to 3542
  121.9158  249.4668  330.2252 H   0  0  0  0  0  0  0  0  0  0  0  0  # atno 3570 bound_to 3563
  124.7269  248.6874  328.6324 H   0  0  0  0  0  0  0  0  0  0  0  0  # atno 3596 bound_to 3592
  124.8437  246.8348  319.2706 H   0  0  0  0  0  0  0  0  0  0  0  0  # atno 4893 bound_to 4888
  106.7614  242.9893  320.3044 H   0  0  0  0  0  0  0  0  0  0  0  0  # atno 5556 bound_to 5551
  108.9061  243.8243  319.8510 H   0  0  0  0  0  0  0  0  0  0  0  0  # atno 5580 bound_to 5571
  115.0391  241.9589  318.5241 H   0  0  0  0  0  0  0  0  0  0  0  0  # atno 8434 bound_to 8429
  114.7388  245.8612  317.9823 H   0  0  0  0  0  0  0  0  0  0  0  0  # atno 8458 bound_to 8451
  112.2375  246.6890  318.0209 H   0  0  0  0  0  0  0  0  0  0  0  0  # atno 8488 bound_to 8482
  110.3611  249.6454  318.2365 H   0  0  0  0  0  0  0  0  0  0  0  0  # atno 8514 bound_to 8506
  110.2238  250.8204  320.0769 H   0  0  0  0  0  0  0  0  0  0  0  0  # atno 8542 bound_to 8534
  109.5923  254.8390  319.8549 H   0  0  0  0  0  0  0  0  0  0  0  0  # atno 8576 bound_to 8568
  115.3467  249.6364  316.4479 H   0  0  0  0  0  0  0  0  0  0  0  0  # atno 8954 bound_to 8943
  118.5331  247.0547  315.9510 H   0  0  0  0  0  0  0  0  0  0  0  0  # atno 8984 bound_to 8978
  119.2434  244.5133  314.4869 H   0  0  0  0  0  0  0  0  0  0  0  0  # atno 8988 bound_to 8983
  120.4739  244.2121  318.1793 H   0  0  0  0  0  0  0  0  0  0  0  0  # atno 9002 bound_to 8998
  121.9671  243.0548  320.2176 H   0  0  0  0  0  0  0  0  0  0  0  0  # atno 9036 bound_to 9022
  122.8947  239.4580  322.7186 H   0  0  0  0  0  0  0  0  0  0  0  0  # atno 9080 bound_to 9068
  114.6844  239.2447  323.2175 H   0  0  0  0  0  0  0  0  0  0  0  0  # atno 9088 bound_to 9079
  120.7872  239.9457  326.3910 H   0  0  0  0  0  0  0  0  0  0  0  0  # atno 9114 bound_to 9106
  123.0844  237.5741  329.1138 H   0  0  0  0  0  0  0  0  0  0  0  0  # atno 9140 bound_to 9136
  118.6275  237.7533  329.5530 H   0  0  0  0  0  0  0  0  0  0  0  0  # atno 9192 bound_to 9183
  117.3165  236.5850  329.1892 H   0  0  0  0  0  0  0  0  0  0  0  0  # atno 9229 bound_to 9212
  125.0642  238.2192  325.9396 H   0  0  0  0  0  0  0  0  0  0  0  0  # atno 11056 bound_to 11049
  110.2386  256.0451  323.9229 H   0  0  0  0  0  0  0  0  0  0  0  0  # atno 12870 bound_to 12858
  111.4604  252.3797  329.9331 H   0  0  0  0  0  0  0  0  0  0  0  0  # atno 12878 bound_to 12869
  107.1246  254.6022  322.5032 H   0  0  0  0  0  0  0  0  0  0  0  0  # atno 12906 bound_to 12897
  109.8129  254.5406  332.6587 LP  0  0  0  0  0  0  0  0  0  0  0  0  # atno 13465 bound_to 1235
  109.0700  253.6634  331.3631 LP  0  0  0  0  0  0  0  0  0  0  0  0  # atno 13466 bound_to 1235
  110.4038  245.9377  319.0138 LP  0  0  0  0  0  0  0  0  0  0  0  0  # atno 13468 bound_to 5549
  109.6110  246.2775  320.5159 LP  0  0  0  0  0  0  0  0  0  0  0  0  # atno 13469 bound_to 5549
  106.4349  243.1284  321.8927 LP  0  0  0  0  0  0  0  0  0  0  0  0  # atno 13470 bound_to 5551
  107.9701  243.2756  321.3560 LP  0  0  0  0  0  0  0  0  0  0  0  0  # atno 13471 bound_to 5551
  107.9059  252.2225  321.1652 LP  0  0  0  0  0  0  0  0  0  0  0  0  # atno 13472 bound_to 8509
  107.0433  252.3071  319.6656 LP  0  0  0  0  0  0  0  0  0  0  0  0  # atno 13473 bound_to 8509
  109.4812  251.7047  318.7699 LP  0  0  0  0  0  0  0  0  0  0  0  0  # atno 13474 bound_to 8534
  109.5981  256.7002  325.4101 LP  0  0  0  0  0  0  0  0  0  0  0  0  # atno 13475 bound_to 12858
  112.1290  251.7387  328.5949 LP  0  0  0  0  0  0  0  0  0  0  0  0  # atno 13476 bound_to 12869
  110.8491  251.0104  329.3007 LP  0  0  0  0  0  0  0  0  0  0  0  0  # atno 13477 bound_to 12869
  106.5509  255.3337  323.9831 LP  0  0  0  0  0  0  0  0  0  0  0  0  # atno 13478 bound_to 12897
  105.0664  253.3627  323.4118 LP  0  0  0  0  0  0  0  0  0  0  0  0  # atno 13479 bound_to 12900
  103.7838  252.8657  322.3592 LP  0  0  0  0  0  0  0  0  0  0  0  0  # atno 13480 bound_to 12900
  117.7835  244.1242  319.5833 LP  0  0  0  0  0  0  0  0  0  0  0  0  # atno 13492 bound_to 8406
  118.5880  242.9567  318.5884 LP  0  0  0  0  0  0  0  0  0  0  0  0  # atno 13493 bound_to 8406
  116.3465  242.7635  319.3565 LP  0  0  0  0  0  0  0  0  0  0  0  0  # atno 13494 bound_to 8429
  114.8783  244.9999  319.4998 LP  0  0  0  0  0  0  0  0  0  0  0  0  # atno 13495 bound_to 8451
  116.5854  245.8324  317.4826 LP  0  0  0  0  0  0  0  0  0  0  0  0  # atno 13496 bound_to 8946
  116.0592  247.3137  318.2099 LP  0  0  0  0  0  0  0  0  0  0  0  0  # atno 13497 bound_to 8946
  120.3087  245.5299  319.3178 LP  0  0  0  0  0  0  0  0  0  0  0  0  # atno 13498 bound_to 8998
  122.7670  242.3654  317.7637 LP  0  0  0  0  0  0  0  0  0  0  0  0  # atno 13499 bound_to 9001
  121.5171  241.5669  318.6581 LP  0  0  0  0  0  0  0  0  0  0  0  0  # atno 13500 bound_to 9001
  123.4960  243.2108  321.0421 LP  0  0  0  0  0  0  0  0  0  0  0  0  # atno 13501 bound_to 9022
  122.9733  242.5573  323.4970 LP  0  0  0  0  0  0  0  0  0  0  0  0  # atno 13502 bound_to 9025
  121.2488  242.4445  323.3803 LP  0  0  0  0  0  0  0  0  0  0  0  0  # atno 13503 bound_to 9025
  121.5224  240.4035  322.1867 LP  0  0  0  0  0  0  0  0  0  0  0  0  # atno 13504 bound_to 9068
  123.9291  238.7991  326.0077 LP  0  0  0  0  0  0  0  0  0  0  0  0  # atno 13505 bound_to 9071
  123.8623  239.1593  324.3148 LP  0  0  0  0  0  0  0  0  0  0  0  0  # atno 13506 bound_to 9071
  114.6628  237.6173  323.2231 LP  0  0  0  0  0  0  0  0  0  0  0  0  # atno 13507 bound_to 9079
  115.0119  238.4272  321.8487 LP  0  0  0  0  0  0  0  0  0  0  0  0  # atno 13508 bound_to 9079
  122.3734  240.3416  325.7675 LP  0  0  0  0  0  0  0  0  0  0  0  0  # atno 13509 bound_to 9106
  119.7498  238.1131  328.9158 LP  0  0  0  0  0  0  0  0  0  0  0  0  # atno 13510 bound_to 9109
  119.8666  238.9187  327.3869 LP  0  0  0  0  0  0  0  0  0  0  0  0  # atno 13511 bound_to 9109
  118.1981  238.7451  330.9239 LP  0  0  0  0  0  0  0  0  0  0  0  0  # atno 13512 bound_to 9183
  123.4452  247.8458  327.8021 LP  0  0  0  0  0  0  0  0  0  0  0  0  # atno 13519 bound_to 3592
  118.8671  247.7818  317.5024 LP  0  0  0  0  0  0  0  0  0  0  0  0  # atno 13520 bound_to 8978
  121.1711  247.0145  316.6841 LP  0  0  0  0  0  0  0  0  0  0  0  0  # atno 13521 bound_to 8981
  122.4033  246.2748  317.6508 LP  0  0  0  0  0  0  0  0  0  0  0  0  # atno 13522 bound_to 8981
  119.8670  238.1002  319.6572 LP  0  0  0  0  0  0  0  0  0  0  0  0  # atno 13523 bound_to 8351
  121.0640  236.8943  319.3212 LP  0  0  0  0  0  0  0  0  0  0  0  0  # atno 13524 bound_to 8351
  121.7846  238.0162  328.0279 LP  0  0  0  0  0  0  0  0  0  0  0  0  # atno 13525 bound_to 9136
  126.4259  237.3770  325.2439 LP  0  0  0  0  0  0  0  0  0  0  0  0  # atno 13526 bound_to 11049
  126.3346  246.7015  318.6322 LP  0  0  0  0  0  0  0  0  0  0  0  0  # atno 13527 bound_to 4888
  125.2025  245.5686  318.3134 LP  0  0  0  0  0  0  0  0  0  0  0  0  # atno 13528 bound_to 4888
  120.4863  244.0075  315.4072 LP  0  0  0  0  0  0  0  0  0  0  0  0  # atno 13529 bound_to 8983
  120.1445  245.6004  315.2957 LP  0  0  0  0  0  0  0  0  0  0  0  0  # atno 13530 bound_to 8983
  114.5407  248.0025  317.8107 LP  0  0  0  0  0  0  0  0  0  0  0  0  # atno 13531 bound_to 8454
  113.2133  249.0609  317.4678 LP  0  0  0  0  0  0  0  0  0  0  0  0  # atno 13532 bound_to 8454
  113.1652  244.1969  316.5564 LP  0  0  0  0  0  0  0  0  0  0  0  0  # atno 13533 bound_to 8432
  112.3465  244.4119  318.0676 LP  0  0  0  0  0  0  0  0  0  0  0  0  # atno 13534 bound_to 8432
  119.7903  249.4025  331.0891 LP  0  0  0  0  0  0  0  0  0  0  0  0  # atno 13535 bound_to 3502
  118.2225  249.4731  330.3562 LP  0  0  0  0  0  0  0  0  0  0  0  0  # atno 13536 bound_to 3502
  120.7139  252.0928  329.9487 LP  0  0  0  0  0  0  0  0  0  0  0  0  # atno 13537 bound_to 3542
  111.1266  247.5620  319.0468 LP  0  0  0  0  0  0  0  0  0  0  0  0  # atno 13538 bound_to 8482
  115.4123  248.2259  315.4195 LP  0  0  0  0  0  0  0  0  0  0  0  0  # atno 13539 bound_to 8943
  109.4901  248.1912  318.6525 LP  0  0  0  0  0  0  0  0  0  0  0  0  # atno 13541 bound_to 8506
  108.2725  243.9505  318.2244 LP  0  0  0  0  0  0  0  0  0  0  0  0  # atno 13542 bound_to 5571
  110.6620  256.0722  321.6938 LP  0  0  0  0  0  0  0  0  0  0  0  0  # atno 13543 bound_to 12828
  109.7025  254.8516  322.4616 LP  0  0  0  0  0  0  0  0  0  0  0  0  # atno 13544 bound_to 12828

> <Gold.Score>
     Fitness  S(hb_ext) S(vdw_ext)  S(hb_int)    S(int)      intcor
     31.60       4.42      21.33       0.00      -2.15      -0.76

> <Gold.Goldscore.Fitness>
31.5971

> <Gold.Goldscore.Internal.Vdw>
-2.5352

> <Gold.Goldscore.Internal.Torsion>
-0.3709

> <Gold.Goldscore.External.Vdw>
21.3267

> <Gold.Goldscore.Internal.HBond>
0.0000

> <Gold.Goldscore.External.HBond>
4.4204

> <Gold.Goldscore.Internal.Correction>
-0.7585

> <Gold.Goldscore.Hbonds>
donor molecule, donor type, donor heavy atom, donor atom, acceptor molecule, acceptor atom, score
      L1  H    10    23       P1 13424  0.74

> <Gold.Goldscore.Internal.Vdw.Weighted>
-2.5352

> <Gold.Goldscore.Internal.Torsion.Weighted>
-0.3709

> <Gold.Goldscore.External.Vdw.Weighted>
29.3243

> <Gold.Goldscore.Internal.HBond.Weighted>
0.0000

> <Gold.Goldscore.External.HBond.Weighted>
4.4204

> <Gold.Goldscore.Internal.Correction.Weighted>
-0.7585

> <Gold.Rescore>
     Score     S(PLP)   S(hbond)     S(cho)   S(metal)  DE(clash)   DE(tors)     intcor
     -9.74      11.92       1.21       0.00       0.00       1.37       0.03       ----

> <Gold.PLP.Fitness>
-9.7362

> <Gold.PLP.PLP>
11.9234

> <Gold.PLP.part.hbond>
-3.3953

> <Gold.PLP.part.metal>
0.0000

> <Gold.PLP.part.buried>
19.4941

> <Gold.PLP.part.nonpolar>
-18.5383

> <Gold.PLP.part.repulsive>
11.8810

> <Gold.PLP.ligand.clash>
1.3709

> <Gold.PLP.ligand.torsion>
0.0329

> <Gold.PLP.Chemscore.Hbond>
1.2080

> <Gold.PLP.Chemscore.CHOScore>
0.0000

> <Gold.PLP.Chemscore.Metal>
0.0000

> <Gold.Chemscore.Hbonds>
donor molecule, donor type, donor heavy atom, donor atom, acceptor molecule, acceptor atom, score
      L1  H    10    23       P1 13424  1.00
      P1  H  9308  9333       L1    17  0.27

> <Gold.PLP.Chemscore.Internal.Correction>
   9.000000E+99

