#       Name:                CT1002167954
#       Creating user name   hitesit
#       Creation time:       Sun Apr 16 22:52:37 2023


#       File generated by GOLD software.
#

@<TRIPOS>MOLECULE
CT1002167954|ligand_prepared|mol2|1|dock3
    29    30     1
SMALL
NO_CHARGES


@<TRIPOS>ATOM
      1 C1         111.6495 247.1632 325.2493 C.3            1 RES1               0.0000
      2 C2         113.1521 247.4299 325.0261 C.ar           1 RES1               0.0000
      3 C3         110.9018 248.1902 324.4040 C.2            1 RES1               0.0000
      4 C4         111.4061 245.7174 324.8310 C.2            1 RES1               0.0000
      5 C5         111.1995 247.3170 326.7208 C.3            1 RES1               0.0000
      6 C6         114.1107 246.5739 325.5600 C.ar           1 RES1               0.0000
      7 C7         113.5941 248.5243 324.2875 C.ar           1 RES1               0.0000
      8 N8         110.2958 247.7498 323.2644 N.am           1 RES1               0.0000
      9 O9         110.8779 249.3755 324.7118 O.2            1 RES1               0.0000
     10 N10        110.6089 245.4902 323.7398 N.am           1 RES1               0.0000
     11 O11        111.9109 244.7735 325.4264 O.2            1 RES1               0.0000
     12 C12        109.7354 246.9782 326.9529 C.3            1 RES1               0.0000
     13 C13        115.4622 246.8020 325.3604 C.ar           1 RES1               0.0000
     14 C14        114.9461 248.7507 324.0893 C.ar           1 RES1               0.0000
     15 C15        110.0677 246.4419 322.9192 C.2            1 RES1               0.0000
     16 C16        115.8808 247.8901 324.6247 C.ar           1 RES1               0.0000
     17 O17        109.4064 246.1584 321.9244 O.2            1 RES1               0.0000
     18 H18        111.8170 246.6633 327.3491 H              1 RES1               0.0000
     19 H19        111.3769 248.3521 327.0380 H              1 RES1               0.0000
     20 H20        113.8003 245.7138 326.1439 H              1 RES1               0.0000
     21 H21        112.8768 249.2152 323.8578 H              1 RES1               0.0000
     22 H22        109.9833 248.4583 322.6082 H              1 RES1               0.0000
     23 H23        110.3995 244.5218 323.5189 H              1 RES1               0.0000
     24 H24        109.4721 247.1028 328.0011 H              1 RES1               0.0000
     25 H25        109.0912 247.6264 326.3624 H              1 RES1               0.0000
     26 H26        109.5287 245.9477 326.6716 H              1 RES1               0.0000
     27 H27        116.1937 246.1225 325.7851 H              1 RES1               0.0000
     28 H28        115.2711 249.6087 323.5101 H              1 RES1               0.0000
     29 H29        116.9395 248.0683 324.4681 H              1 RES1               0.0000
@<TRIPOS>BOND
    1    1    2 1     
    2    1    3 1     
    3    1    4 1     
    4    1    5 1     
    5    2    6 ar    
    6    2    7 ar    
    7    3    8 1     
    8    3    9 2     
    9    4   10 1     
   10    4   11 2     
   11    5   12 1     
   12    5   18 1     
   13    5   19 1     
   14    6   13 ar    
   15    6   20 1     
   16    7   14 ar    
   17    7   21 1     
   18    8   15 1     
   19    8   22 1     
   20   10   15 1     
   21   10   23 1     
   22   12   24 1     
   23   12   25 1     
   24   12   26 1     
   25   13   16 ar    
   26   13   27 1     
   27   14   16 ar    
   28   14   28 1     
   29   15   17 2     
   30   16   29 1     
@<TRIPOS>SUBSTRUCTURE
      1 RES1           1
@<TRIPOS>SET
DONOR_HYDROGENS      STATIC     ATOMS    <user>   **** ""
2 22 23
ATOM$RED        STATIC     ATOMS    COLORGROUP SYSTEM
2 22 23
@<TRIPOS>COMMENT
> <Gold.Version>
2022.3.0

> <Gold.Id.Protein>
unknown|5adg_clean|pdb

> <Gold.Protein.RotatedTorsions>
[ 5556 5551 5550 5547 ] final   47.24 input   60.01 | X-H torsion
[ 8542 8534 8535 8536 ] final -124.51 input   85.39 | X-H torsion
[ 12870 12858 12859 12860 ] final   10.46 input  110.07 | X-H torsion
[ 12878 12869 12868 12866 ] final  101.61 input   59.97 | X-H torsion
[ 12906 12897 12898 12899 ] final -107.39 input   35.92 | X-H torsion
[ 8434 8429 8430 8431 ] final -104.41 input   45.97 | X-H torsion
[ 8458 8451 8452 8453 ] final  -87.43 input  104.20 | X-H torsion
[ 9002 8998 8999 9000 ] final -119.83 input   46.10 | X-H torsion
[ 9036 9022 9023 9024 ] final   36.21 input   36.28 | X-H torsion
[ 9080 9068 9069 9070 ] final  154.96 input   95.83 | X-H torsion
[ 9088 9079 9078 9076 ] final  -34.19 input   59.97 | X-H torsion
[ 9114 9106 9107 9108 ] final   11.41 input   84.45 | X-H torsion
[ 9192 9183 9184 9185 ] final -155.07 input  123.29 | X-H torsion
[ 3596 3592 3593 3594 ] final  165.62 input   84.32 | X-H torsion
[ 8984 8978 8979 8980 ] final  143.21 input   29.51 | X-H torsion
[ 9140 9136 9137 9138 ] final   85.99 input  134.07 | X-H torsion
[ 11056 11049 11050 11051 ] final  -98.53 input   56.26 | X-H torsion
[ 4893 4888 4887 4884 ] final   62.45 input   60.00 | X-H torsion
[ 8988 8983 8982 8979 ] final   60.95 input   59.98 | X-H torsion
[ 3550 3542 3543 3544 ] final  -63.07 input   80.85 | X-H torsion
[ 8488 8482 8483 8484 ] final   -2.16 input   54.31 | X-H torsion
[ 8954 8943 8944 8945 ] final  -90.45 input   47.77 | X-H torsion
[ 8514 8506 8507 8508 ] final   -7.03 input   67.56 | X-H torsion
[ 5580 5571 5572 5573 ] final -163.14 input   48.82 | X-H torsion
[ 3570 3563 3564 3565 ] final -149.95 input  103.62 | X-H torsion
[ 9229 9212 9213 9214 ] final -123.81 input   91.82 | X-H torsion
[ 8576 8568 8569 8570 ] final  -44.11 input   67.63 | X-H torsion
[ 13465 1235 1234 1233 ] final  -41.32 input    0.00 | X-H torsion
[ 13468 5549 5548 5547 ] final  -42.71 input   -0.00 | X-H torsion
[ 13472 8509 8508 8507 ] final  -97.74 input    0.00 | X-H torsion
[ 13479 12900 12899 12898 ] final   11.80 input   -0.00 | X-H torsion
[ 13492 8406 8405 8404 ] final  100.28 input    0.00 | X-H torsion
[ 13496 8946 8945 8944 ] final   90.64 input   -0.00 | X-H torsion
[ 13499 9001 9000 8999 ] final    6.09 input    0.00 | X-H torsion
[ 13502 9025 9024 9023 ] final  -22.07 input    0.00 | X-H torsion
[ 13505 9071 9070 9069 ] final -119.99 input    0.00 | X-H torsion
[ 13510 9109 9108 9107 ] final -162.64 input    0.00 | X-H torsion
[ 13521 8981 8980 8979 ] final  -51.76 input   -0.00 | X-H torsion
[ 13523 8351 8350 8349 ] final -149.62 input   -0.00 | X-H torsion
[ 13531 8454 8453 8452 ] final   15.76 input    0.00 | X-H torsion
[ 13533 8432 8431 8430 ] final  152.32 input    0.00 | X-H torsion
[ 13535 3502 3501 3500 ] final  171.75 input    0.00 | X-H torsion
[ 13543 12828 12827 12826 ] final  112.88 input   -0.00 | X-H torsion

> <Gold.Protein.ActiveResidues>
 TRP311  MET341  HIS342  TRP414  ALA417  ARG419  CYS420  VAL421  GLY422  LEU460 
 SER462  SER482  GLN483  ARG486  ALA502  TYR567  GLY568  LEU569  PRO570  ALA571 
 VAL572  SER573  ASN574  MET575  LEU576  PHE589  SER590  GLY591  TRP592  TYR593 
 MET594  GLY595  GLU597  ILE598  ARG601  ASP602  ARG608  ILE653  VAL654  TRP683 
 PHE709  GLU710  TYR711  GLN712  ASP714  HEM750  H4B760 

> <Gold.Protein.RotatedAtoms>
  119.9609  251.2608  330.3525 H   0  0  0  0  0  0  0  0  0  0  0  0  # atno 3550 bound_to 3542
  121.9350  249.5006  330.2087 H   0  0  0  0  0  0  0  0  0  0  0  0  # atno 3570 bound_to 3563
  123.7442  247.4559  328.2192 H   0  0  0  0  0  0  0  0  0  0  0  0  # atno 3596 bound_to 3592
  126.1432  245.9826  318.2319 H   0  0  0  0  0  0  0  0  0  0  0  0  # atno 4893 bound_to 4888
  107.9261  243.2128  320.8488 H   0  0  0  0  0  0  0  0  0  0  0  0  # atno 5556 bound_to 5551
  108.9760  244.4128  319.6265 H   0  0  0  0  0  0  0  0  0  0  0  0  # atno 5580 bound_to 5571
  116.3279  242.7874  319.3943 H   0  0  0  0  0  0  0  0  0  0  0  0  # atno 8434 bound_to 8429
  114.2362  244.8279  318.4251 H   0  0  0  0  0  0  0  0  0  0  0  0  # atno 8458 bound_to 8451
  111.1209  247.5757  319.0573 H   0  0  0  0  0  0  0  0  0  0  0  0  # atno 8488 bound_to 8482
  110.4571  249.5736  318.6710 H   0  0  0  0  0  0  0  0  0  0  0  0  # atno 8514 bound_to 8506
  109.1905  251.1723  319.9897 H   0  0  0  0  0  0  0  0  0  0  0  0  # atno 8542 bound_to 8534
  111.2618  254.6878  319.7986 H   0  0  0  0  0  0  0  0  0  0  0  0  # atno 8576 bound_to 8568
  115.4948  248.5310  315.1460 H   0  0  0  0  0  0  0  0  0  0  0  0  # atno 8954 bound_to 8943
  118.1887  247.0406  316.1278 H   0  0  0  0  0  0  0  0  0  0  0  0  # atno 8984 bound_to 8978
  120.6922  244.5863  315.6279 H   0  0  0  0  0  0  0  0  0  0  0  0  # atno 8988 bound_to 8983
  120.7146  245.2644  318.0254 H   0  0  0  0  0  0  0  0  0  0  0  0  # atno 9002 bound_to 8998
  123.0010  243.3061  321.4503 H   0  0  0  0  0  0  0  0  0  0  0  0  # atno 9036 bound_to 9022
  121.5193  239.5342  322.0455 H   0  0  0  0  0  0  0  0  0  0  0  0  # atno 9080 bound_to 9068
  114.5624  238.3542  323.6702 H   0  0  0  0  0  0  0  0  0  0  0  0  # atno 9088 bound_to 9079
  120.9061  239.6070  326.2380 H   0  0  0  0  0  0  0  0  0  0  0  0  # atno 9114 bound_to 9106
  122.8671  237.7463  329.3315 H   0  0  0  0  0  0  0  0  0  0  0  0  # atno 9140 bound_to 9136
  118.5008  239.0385  330.6338 H   0  0  0  0  0  0  0  0  0  0  0  0  # atno 9192 bound_to 9183
  116.1506  237.5449  328.2789 H   0  0  0  0  0  0  0  0  0  0  0  0  # atno 9229 bound_to 9212
  126.2500  237.0762  325.4827 H   0  0  0  0  0  0  0  0  0  0  0  0  # atno 11056 bound_to 11049
  109.4637  257.0472  324.3198 H   0  0  0  0  0  0  0  0  0  0  0  0  # atno 12870 bound_to 12858
  112.2094  252.1744  328.9179 H   0  0  0  0  0  0  0  0  0  0  0  0  # atno 12878 bound_to 12869
  106.7387  255.5930  323.8754 H   0  0  0  0  0  0  0  0  0  0  0  0  # atno 12906 bound_to 12897
  109.9731  254.0452  332.6921 LP  0  0  0  0  0  0  0  0  0  0  0  0  # atno 13465 bound_to 1235
  108.9098  254.1589  331.3297 LP  0  0  0  0  0  0  0  0  0  0  0  0  # atno 13466 bound_to 1235
  109.5310  246.7422  319.4179 LP  0  0  0  0  0  0  0  0  0  0  0  0  # atno 13468 bound_to 5549
  110.4838  245.4730  320.1118 LP  0  0  0  0  0  0  0  0  0  0  0  0  # atno 13469 bound_to 5549
  106.3384  242.9624  320.5932 LP  0  0  0  0  0  0  0  0  0  0  0  0  # atno 13470 bound_to 5551
  106.8943  243.2166  322.1075 LP  0  0  0  0  0  0  0  0  0  0  0  0  # atno 13471 bound_to 5551
  107.4155  252.7597  319.7072 LP  0  0  0  0  0  0  0  0  0  0  0  0  # atno 13472 bound_to 8509
  107.5338  251.7698  321.1236 LP  0  0  0  0  0  0  0  0  0  0  0  0  # atno 13473 bound_to 8509
  110.5030  251.3567  318.8561 LP  0  0  0  0  0  0  0  0  0  0  0  0  # atno 13474 bound_to 8534
  110.3563  255.7198  325.0218 LP  0  0  0  0  0  0  0  0  0  0  0  0  # atno 13475 bound_to 12858
  111.1715  250.9220  328.8637 LP  0  0  0  0  0  0  0  0  0  0  0  0  # atno 13476 bound_to 12869
  111.0525  252.0337  330.0539 LP  0  0  0  0  0  0  0  0  0  0  0  0  # atno 13477 bound_to 12869
  106.9274  254.3669  322.6442 LP  0  0  0  0  0  0  0  0  0  0  0  0  # atno 13478 bound_to 12897
  105.2477  253.3041  323.0787 LP  0  0  0  0  0  0  0  0  0  0  0  0  # atno 13479 bound_to 12900
  103.6026  252.9243  322.6923 LP  0  0  0  0  0  0  0  0  0  0  0  0  # atno 13480 bound_to 12900
  118.3365  243.2484  318.2846 LP  0  0  0  0  0  0  0  0  0  0  0  0  # atno 13492 bound_to 8406
  118.0349  243.8326  319.8870 LP  0  0  0  0  0  0  0  0  0  0  0  0  # atno 13493 bound_to 8406
  115.0816  241.9502  318.5024 LP  0  0  0  0  0  0  0  0  0  0  0  0  # atno 13494 bound_to 8429
  115.3646  245.9997  319.0714 LP  0  0  0  0  0  0  0  0  0  0  0  0  # atno 13495 bound_to 8451
  116.1413  246.1319  317.1233 LP  0  0  0  0  0  0  0  0  0  0  0  0  # atno 13496 bound_to 8946
  116.5033  247.0142  318.5692 LP  0  0  0  0  0  0  0  0  0  0  0  0  # atno 13497 bound_to 8946
  120.0750  244.5081  319.4672 LP  0  0  0  0  0  0  0  0  0  0  0  0  # atno 13498 bound_to 8998
  122.0374  242.6376  317.6740 LP  0  0  0  0  0  0  0  0  0  0  0  0  # atno 13499 bound_to 9001
  122.2467  241.2948  318.7478 LP  0  0  0  0  0  0  0  0  0  0  0  0  # atno 13500 bound_to 9001
  122.4741  242.9625  319.8237 LP  0  0  0  0  0  0  0  0  0  0  0  0  # atno 13501 bound_to 9022
  122.6614  242.9212  322.9185 LP  0  0  0  0  0  0  0  0  0  0  0  0  # atno 13502 bound_to 9025
  121.5607  242.0806  323.9587 LP  0  0  0  0  0  0  0  0  0  0  0  0  # atno 13503 bound_to 9025
  122.8590  240.3294  322.8408 LP  0  0  0  0  0  0  0  0  0  0  0  0  # atno 13504 bound_to 9068
  123.7343  238.3654  325.7505 LP  0  0  0  0  0  0  0  0  0  0  0  0  # atno 13505 bound_to 9071
  124.0572  239.5930  324.5720 LP  0  0  0  0  0  0  0  0  0  0  0  0  # atno 13506 bound_to 9071
  114.9063  237.6570  322.2403 LP  0  0  0  0  0  0  0  0  0  0  0  0  # atno 13507 bound_to 9079
  114.8912  239.2843  322.3756 LP  0  0  0  0  0  0  0  0  0  0  0  0  # atno 13508 bound_to 9079
  122.2582  240.6699  325.9159 LP  0  0  0  0  0  0  0  0  0  0  0  0  # atno 13509 bound_to 9106
  119.7511  237.8489  328.7008 LP  0  0  0  0  0  0  0  0  0  0  0  0  # atno 13510 bound_to 9109
  119.8652  239.1829  327.6020 LP  0  0  0  0  0  0  0  0  0  0  0  0  # atno 13511 bound_to 9109
  118.3226  237.4827  329.8622 LP  0  0  0  0  0  0  0  0  0  0  0  0  # atno 13512 bound_to 9183
  124.4175  249.0643  328.2109 LP  0  0  0  0  0  0  0  0  0  0  0  0  # atno 13519 bound_to 3592
  119.2060  247.7957  317.3285 LP  0  0  0  0  0  0  0  0  0  0  0  0  # atno 13520 bound_to 8978
  121.5413  246.3586  316.3879 LP  0  0  0  0  0  0  0  0  0  0  0  0  # atno 13521 bound_to 8981
  122.0331  246.9306  317.9470 LP  0  0  0  0  0  0  0  0  0  0  0  0  # atno 13522 bound_to 8981
  119.8953  238.1410  319.5912 LP  0  0  0  0  0  0  0  0  0  0  0  0  # atno 13523 bound_to 8351
  121.0358  236.8536  319.3871 LP  0  0  0  0  0  0  0  0  0  0  0  0  # atno 13524 bound_to 8351
  121.9946  237.8497  327.8175 LP  0  0  0  0  0  0  0  0  0  0  0  0  # atno 13525 bound_to 9136
  125.2613  238.4995  325.6927 LP  0  0  0  0  0  0  0  0  0  0  0  0  # atno 13526 bound_to 11049
  124.6130  245.9553  318.7846 LP  0  0  0  0  0  0  0  0  0  0  0  0  # atno 13527 bound_to 4888
  125.6151  247.1733  319.2072 LP  0  0  0  0  0  0  0  0  0  0  0  0  # atno 13528 bound_to 4888
  119.6302  245.5744  314.8907 LP  0  0  0  0  0  0  0  0  0  0  0  0  # atno 13529 bound_to 8983
  119.5414  243.9598  314.6630 LP  0  0  0  0  0  0  0  0  0  0  0  0  # atno 13530 bound_to 8983
  114.5519  248.0687  317.9222 LP  0  0  0  0  0  0  0  0  0  0  0  0  # atno 13531 bound_to 8454
  113.2021  248.9947  317.3563 LP  0  0  0  0  0  0  0  0  0  0  0  0  # atno 13532 bound_to 8454
  112.3296  244.6138  317.9994 LP  0  0  0  0  0  0  0  0  0  0  0  0  # atno 13533 bound_to 8432
  113.1821  243.9950  316.6245 LP  0  0  0  0  0  0  0  0  0  0  0  0  # atno 13534 bound_to 8432
  119.5354  249.1759  330.0890 LP  0  0  0  0  0  0  0  0  0  0  0  0  # atno 13535 bound_to 3502
  118.4774  249.6997  331.3564 LP  0  0  0  0  0  0  0  0  0  0  0  0  # atno 13536 bound_to 3502
  119.9672  252.3029  328.9513 LP  0  0  0  0  0  0  0  0  0  0  0  0  # atno 13537 bound_to 3542
  112.2220  246.6921  318.0300 LP  0  0  0  0  0  0  0  0  0  0  0  0  # atno 13538 bound_to 8482
  115.2673  249.3081  316.6939 LP  0  0  0  0  0  0  0  0  0  0  0  0  # atno 13539 bound_to 8943
  109.3956  248.2618  318.2252 LP  0  0  0  0  0  0  0  0  0  0  0  0  # atno 13541 bound_to 8506
  108.2048  243.3811  318.4415 LP  0  0  0  0  0  0  0  0  0  0  0  0  # atno 13542 bound_to 5571
  110.4456  254.7343  322.4666 LP  0  0  0  0  0  0  0  0  0  0  0  0  # atno 13543 bound_to 12828
  109.9189  256.1895  321.6888 LP  0  0  0  0  0  0  0  0  0  0  0  0  # atno 13544 bound_to 12828

> <Gold.Score>
     Fitness  S(hb_ext) S(vdw_ext)  S(hb_int)    S(int)      intcor
     38.13       4.99      27.89       0.00      -5.21      -0.76

> <Gold.Goldscore.Fitness>
38.1263

> <Gold.Goldscore.Internal.Vdw>
-5.5866

> <Gold.Goldscore.Internal.Torsion>
-0.3823

> <Gold.Goldscore.External.Vdw>
27.8891

> <Gold.Goldscore.Internal.HBond>
0.0000

> <Gold.Goldscore.External.HBond>
4.9892

> <Gold.Goldscore.Internal.Correction>
-0.7585

> <Gold.Goldscore.Hbonds>
donor molecule, donor type, donor heavy atom, donor atom, acceptor molecule, acceptor atom, score
      P1  H  5571  5580       L1    17  0.25
      L1  H     8    22       P1  8513  0.75

> <Gold.Goldscore.Internal.Vdw.Weighted>
-5.5866

> <Gold.Goldscore.Internal.Torsion.Weighted>
-0.3823

> <Gold.Goldscore.External.Vdw.Weighted>
38.3475

> <Gold.Goldscore.Internal.HBond.Weighted>
0.0000

> <Gold.Goldscore.External.HBond.Weighted>
4.9892

> <Gold.Goldscore.Internal.Correction.Weighted>
-0.7585

> <Gold.Rescore>
     Score     S(PLP)   S(hbond)     S(cho)   S(metal)  DE(clash)   DE(tors)     intcor
     39.41     -38.29       1.00       0.00       0.00       0.03       0.93       ----

> <Gold.PLP.Fitness>
39.4126

> <Gold.PLP.PLP>
-38.2896

> <Gold.PLP.part.hbond>
-1.0000

> <Gold.PLP.part.metal>
0.0000

> <Gold.PLP.part.buried>
-1.1123

> <Gold.PLP.part.nonpolar>
-39.7312

> <Gold.PLP.part.repulsive>
2.2319

> <Gold.PLP.ligand.clash>
0.0265

> <Gold.PLP.ligand.torsion>
0.9252

> <Gold.PLP.Chemscore.Hbond>
1.0000

> <Gold.PLP.Chemscore.CHOScore>
0.0000

> <Gold.PLP.Chemscore.Metal>
0.0000

> <Gold.Chemscore.Hbonds>
donor molecule, donor type, donor heavy atom, donor atom, acceptor molecule, acceptor atom, score
      L1  H     8    22       P1  8513  0.75

> <Gold.PLP.Chemscore.Internal.Correction>
   9.000000E+99

