#       Name:                CT1002167954
#       Creating user name   hitesit
#       Creation time:       Sun Apr 16 22:52:37 2023


#       File generated by GOLD software.
#

@<TRIPOS>MOLECULE
CT1002167954|ligand_prepared|mol2|1|dock2
    29    30     1
SMALL
NO_CHARGES


@<TRIPOS>ATOM
      1 C1         109.9708 246.4525 326.1841 C.3            1 RES1               0.0000
      2 C2         111.0798 245.3970 325.9979 C.ar           1 RES1               0.0000
      3 C3         110.6058 247.6110 326.9476 C.2            1 RES1               0.0000
      4 C4         109.4911 246.8189 324.7840 C.2            1 RES1               0.0000
      5 C5         108.7522 245.9433 326.9886 C.3            1 RES1               0.0000
      6 C6         112.3775 245.7821 325.6747 C.ar           1 RES1               0.0000
      7 C7         110.8215 244.0371 326.1484 C.ar           1 RES1               0.0000
      8 N8         110.8777 248.7524 326.2524 N.am           1 RES1               0.0000
      9 O9         110.8998 247.5106 328.1324 O.2            1 RES1               0.0000
     10 N10        109.7172 248.0959 324.3414 N.am           1 RES1               0.0000
     11 O11        108.9342 246.0084 324.0537 O.2            1 RES1               0.0000
     12 C12        107.7834 247.0424 327.3955 C.3            1 RES1               0.0000
     13 C13        113.3814 244.8420 325.5108 C.ar           1 RES1               0.0000
     14 C14        111.8269 243.0987 325.9838 C.ar           1 RES1               0.0000
     15 C15        110.4160 249.0703 325.0004 C.2            1 RES1               0.0000
     16 C16        113.1069 243.4999 325.6656 C.ar           1 RES1               0.0000
     17 O17        110.6247 250.1779 324.5138 O.2            1 RES1               0.0000
     18 H18        108.2134 245.2040 326.3832 H              1 RES1               0.0000
     19 H19        109.1125 245.4376 327.8930 H              1 RES1               0.0000
     20 H20        112.6118 246.8336 325.5464 H              1 RES1               0.0000
     21 H21        109.8216 243.6984 326.3975 H              1 RES1               0.0000
     22 H22        111.4801 249.4324 326.7053 H              1 RES1               0.0000
     23 H23        109.3284 248.3430 323.4369 H              1 RES1               0.0000
     24 H24        106.9473 246.6311 327.9571 H              1 RES1               0.0000
     25 H25        108.2798 247.7823 328.0199 H              1 RES1               0.0000
     26 H26        107.3860 247.5501 326.5191 H              1 RES1               0.0000
     27 H27        114.3868 245.1628 325.2591 H              1 RES1               0.0000
     28 H28        111.6062 242.0434 326.1060 H              1 RES1               0.0000
     29 H29        113.8936 242.7637 325.5376 H              1 RES1               0.0000
@<TRIPOS>BOND
    1    1    2 1     
    2    1    3 1     
    3    1    4 1     
    4    1    5 1     
    5    2    6 ar    
    6    2    7 ar    
    7    3    8 1     
    8    3    9 2     
    9    4   10 1     
   10    4   11 2     
   11    5   12 1     
   12    5   18 1     
   13    5   19 1     
   14    6   13 ar    
   15    6   20 1     
   16    7   14 ar    
   17    7   21 1     
   18    8   15 1     
   19    8   22 1     
   20   10   15 1     
   21   10   23 1     
   22   12   24 1     
   23   12   25 1     
   24   12   26 1     
   25   13   16 ar    
   26   13   27 1     
   27   14   16 ar    
   28   14   28 1     
   29   15   17 2     
   30   16   29 1     
@<TRIPOS>SUBSTRUCTURE
      1 RES1           1
@<TRIPOS>SET
DONOR_HYDROGENS      STATIC     ATOMS    <user>   **** ""
2 22 23
ATOM$RED        STATIC     ATOMS    COLORGROUP SYSTEM
2 22 23
@<TRIPOS>COMMENT
> <Gold.Version>
2022.3.0

> <Gold.Id.Protein>
unknown|5adg_clean|pdb

> <Gold.Protein.RotatedTorsions>
[ 5556 5551 5550 5547 ] final  154.70 input   60.01 | X-H torsion
[ 8542 8534 8535 8536 ] final -169.45 input   85.39 | X-H torsion
[ 12870 12858 12859 12860 ] final   78.63 input  110.07 | X-H torsion
[ 12878 12869 12868 12866 ] final   45.72 input   59.97 | X-H torsion
[ 12906 12897 12898 12899 ] final   17.12 input   35.92 | X-H torsion
[ 8434 8429 8430 8431 ] final -173.78 input   45.97 | X-H torsion
[ 8458 8451 8452 8453 ] final  -56.41 input  104.20 | X-H torsion
[ 9002 8998 8999 9000 ] final  -77.56 input   46.10 | X-H torsion
[ 9036 9022 9023 9024 ] final   -2.24 input   36.28 | X-H torsion
[ 9080 9068 9069 9070 ] final  -21.20 input   95.83 | X-H torsion
[ 9088 9079 9078 9076 ] final   79.99 input   59.97 | X-H torsion
[ 9114 9106 9107 9108 ] final  -58.13 input   84.45 | X-H torsion
[ 9192 9183 9184 9185 ] final  -73.84 input  123.29 | X-H torsion
[ 3596 3592 3593 3594 ] final  147.19 input   84.32 | X-H torsion
[ 8984 8978 8979 8980 ] final -151.67 input   29.51 | X-H torsion
[ 9140 9136 9137 9138 ] final   30.99 input  134.07 | X-H torsion
[ 11056 11049 11050 11051 ] final   15.64 input   56.26 | X-H torsion
[ 4893 4888 4887 4884 ] final   72.65 input   60.00 | X-H torsion
[ 8988 8983 8982 8979 ] final   -5.34 input   59.98 | X-H torsion
[ 3550 3542 3543 3544 ] final  169.27 input   80.85 | X-H torsion
[ 8488 8482 8483 8484 ] final   43.16 input   54.31 | X-H torsion
[ 8954 8943 8944 8945 ] final   56.69 input   47.77 | X-H torsion
[ 8514 8506 8507 8508 ] final  118.47 input   67.56 | X-H torsion
[ 5580 5571 5572 5573 ] final -162.26 input   48.82 | X-H torsion
[ 3570 3563 3564 3565 ] final -154.84 input  103.62 | X-H torsion
[ 9229 9212 9213 9214 ] final  -51.44 input   91.82 | X-H torsion
[ 8576 8568 8569 8570 ] final   58.65 input   67.63 | X-H torsion
[ 13465 1235 1234 1233 ] final -119.57 input    0.00 | X-H torsion
[ 13468 5549 5548 5547 ] final  -47.22 input   -0.00 | X-H torsion
[ 13472 8509 8508 8507 ] final  -30.43 input    0.00 | X-H torsion
[ 13479 12900 12899 12898 ] final    3.20 input   -0.00 | X-H torsion
[ 13492 8406 8405 8404 ] final  111.47 input    0.00 | X-H torsion
[ 13496 8946 8945 8944 ] final -146.19 input   -0.00 | X-H torsion
[ 13499 9001 9000 8999 ] final  127.21 input    0.00 | X-H torsion
[ 13502 9025 9024 9023 ] final  -74.65 input    0.00 | X-H torsion
[ 13505 9071 9070 9069 ] final   42.67 input    0.00 | X-H torsion
[ 13510 9109 9108 9107 ] final  155.46 input    0.00 | X-H torsion
[ 13521 8981 8980 8979 ] final   35.32 input   -0.00 | X-H torsion
[ 13523 8351 8350 8349 ] final -144.64 input   -0.00 | X-H torsion
[ 13531 8454 8453 8452 ] final   74.40 input    0.00 | X-H torsion
[ 13533 8432 8431 8430 ] final   62.83 input    0.00 | X-H torsion
[ 13535 3502 3501 3500 ] final  -84.58 input    0.00 | X-H torsion
[ 13543 12828 12827 12826 ] final -139.85 input   -0.00 | X-H torsion

> <Gold.Protein.ActiveResidues>
 TRP311  MET341  HIS342  TRP414  ALA417  ARG419  CYS420  VAL421  GLY422  LEU460 
 SER462  SER482  GLN483  ARG486  ALA502  TYR567  GLY568  LEU569  PRO570  ALA571 
 VAL572  SER573  ASN574  MET575  LEU576  PHE589  SER590  GLY591  TRP592  TYR593 
 MET594  GLY595  GLU597  ILE598  ARG601  ASP602  ARG608  ILE653  VAL654  TRP683 
 PHE709  GLU710  TYR711  GLN712  ASP714  HEM750  H4B760 

> <Gold.Protein.RotatedAtoms>
  119.3593  251.8330  329.0058 H   0  0  0  0  0  0  0  0  0  0  0  0  # atno 3550 bound_to 3542
  121.9008  249.4392  330.2372 H   0  0  0  0  0  0  0  0  0  0  0  0  # atno 3570 bound_to 3563
  123.5746  247.5747  328.0295 H   0  0  0  0  0  0  0  0  0  0  0  0  # atno 3596 bound_to 3592
  126.2342  246.1124  318.2828 H   0  0  0  0  0  0  0  0  0  0  0  0  # atno 4893 bound_to 4888
  107.0973  243.2475  322.1107 H   0  0  0  0  0  0  0  0  0  0  0  0  # atno 5556 bound_to 5551
  108.9754  244.4233  319.6177 H   0  0  0  0  0  0  0  0  0  0  0  0  # atno 5580 bound_to 5571
  116.4930  242.1949  318.6019 H   0  0  0  0  0  0  0  0  0  0  0  0  # atno 8434 bound_to 8429
  114.2967  245.1498  318.0801 H   0  0  0  0  0  0  0  0  0  0  0  0  # atno 8458 bound_to 8451
  110.8597  246.9886  318.8376 H   0  0  0  0  0  0  0  0  0  0  0  0  # atno 8488 bound_to 8482
  109.6565  248.2654  318.9807 H   0  0  0  0  0  0  0  0  0  0  0  0  # atno 8514 bound_to 8506
  109.7594  250.8938  320.2090 H   0  0  0  0  0  0  0  0  0  0  0  0  # atno 8542 bound_to 8534
  110.6179  255.4219  320.7836 H   0  0  0  0  0  0  0  0  0  0  0  0  # atno 8576 bound_to 8568
  115.2080  248.8264  316.7885 H   0  0  0  0  0  0  0  0  0  0  0  0  # atno 8954 bound_to 8943
  117.8627  247.3113  316.9747 H   0  0  0  0  0  0  0  0  0  0  0  0  # atno 8984 bound_to 8978
  120.2983  245.5056  315.4096 H   0  0  0  0  0  0  0  0  0  0  0  0  # atno 8988 bound_to 8983
  120.6313  244.6357  317.9387 H   0  0  0  0  0  0  0  0  0  0  0  0  # atno 9002 bound_to 8998
  122.4236  243.3028  321.4341 H   0  0  0  0  0  0  0  0  0  0  0  0  # atno 9036 bound_to 9022
  122.8990  240.2857  322.8677 H   0  0  0  0  0  0  0  0  0  0  0  0  # atno 9080 bound_to 9068
  114.8715  239.3147  322.4642 H   0  0  0  0  0  0  0  0  0  0  0  0  # atno 9088 bound_to 9079
  121.7605  239.3293  325.7692 H   0  0  0  0  0  0  0  0  0  0  0  0  # atno 9114 bound_to 9106
  122.1431  238.1351  329.3365 H   0  0  0  0  0  0  0  0  0  0  0  0  # atno 9140 bound_to 9136
  117.9145  238.1077  330.9572 H   0  0  0  0  0  0  0  0  0  0  0  0  # atno 9192 bound_to 9183
  116.2058  237.1938  329.2695 H   0  0  0  0  0  0  0  0  0  0  0  0  # atno 9229 bound_to 9212
  125.0688  237.6822  326.1340 H   0  0  0  0  0  0  0  0  0  0  0  0  # atno 11056 bound_to 11049
  109.4963  256.8520  325.2896 H   0  0  0  0  0  0  0  0  0  0  0  0  # atno 12870 bound_to 12858
  111.9448  251.4435  328.5103 H   0  0  0  0  0  0  0  0  0  0  0  0  # atno 12878 bound_to 12869
  106.4309  254.1852  323.2628 H   0  0  0  0  0  0  0  0  0  0  0  0  # atno 12906 bound_to 12897
  109.4412  254.9171  332.3034 LP  0  0  0  0  0  0  0  0  0  0  0  0  # atno 13465 bound_to 1235
  109.4417  253.2869  331.7183 LP  0  0  0  0  0  0  0  0  0  0  0  0  # atno 13466 bound_to 1235
  109.5618  246.7292  319.3587 LP  0  0  0  0  0  0  0  0  0  0  0  0  # atno 13468 bound_to 5549
  110.4530  245.4859  320.1711 LP  0  0  0  0  0  0  0  0  0  0  0  0  # atno 13469 bound_to 5549
  107.8416  243.1768  320.6651 LP  0  0  0  0  0  0  0  0  0  0  0  0  # atno 13470 bound_to 5551
  106.2253  242.9672  320.7655 LP  0  0  0  0  0  0  0  0  0  0  0  0  # atno 13471 bound_to 5551
  106.8941  251.9660  319.8465 LP  0  0  0  0  0  0  0  0  0  0  0  0  # atno 13472 bound_to 8509
  108.0552  252.5636  320.9843 LP  0  0  0  0  0  0  0  0  0  0  0  0  # atno 13473 bound_to 8509
  109.9404  251.6321  318.6393 LP  0  0  0  0  0  0  0  0  0  0  0  0  # atno 13474 bound_to 8534
  110.3244  255.9108  324.0730 LP  0  0  0  0  0  0  0  0  0  0  0  0  # atno 13475 bound_to 12858
  110.7508  251.2002  329.5892 LP  0  0  0  0  0  0  0  0  0  0  0  0  # atno 13476 bound_to 12869
  111.7395  252.4913  329.7387 LP  0  0  0  0  0  0  0  0  0  0  0  0  # atno 13477 bound_to 12869
  107.2279  255.7405  323.2419 LP  0  0  0  0  0  0  0  0  0  0  0  0  # atno 13478 bound_to 12897
  105.2732  253.2753  322.9547 LP  0  0  0  0  0  0  0  0  0  0  0  0  # atno 13479 bound_to 12900
  103.5770  252.9532  322.8163 LP  0  0  0  0  0  0  0  0  0  0  0  0  # atno 13480 bound_to 12900
  118.2352  243.3748  318.2373 LP  0  0  0  0  0  0  0  0  0  0  0  0  # atno 13492 bound_to 8406
  118.1362  243.7062  319.9344 LP  0  0  0  0  0  0  0  0  0  0  0  0  # atno 13493 bound_to 8406
  114.9195  242.5318  319.2801 LP  0  0  0  0  0  0  0  0  0  0  0  0  # atno 13494 bound_to 8429
  115.3060  245.6883  319.4052 LP  0  0  0  0  0  0  0  0  0  0  0  0  # atno 13495 bound_to 8451
  116.8984  246.3036  318.4341 LP  0  0  0  0  0  0  0  0  0  0  0  0  # atno 13496 bound_to 8946
  115.7462  246.8426  317.2585 LP  0  0  0  0  0  0  0  0  0  0  0  0  # atno 13497 bound_to 8946
  120.1559  245.1185  319.5514 LP  0  0  0  0  0  0  0  0  0  0  0  0  # atno 13498 bound_to 8998
  122.9246  241.6223  318.3502 LP  0  0  0  0  0  0  0  0  0  0  0  0  # atno 13499 bound_to 9001
  121.3595  242.3101  318.0716 LP  0  0  0  0  0  0  0  0  0  0  0  0  # atno 13500 bound_to 9001
  123.0448  242.9657  319.8397 LP  0  0  0  0  0  0  0  0  0  0  0  0  # atno 13501 bound_to 9022
  122.9728  242.5472  323.5116 LP  0  0  0  0  0  0  0  0  0  0  0  0  # atno 13502 bound_to 9025
  121.2493  242.4546  323.3657 LP  0  0  0  0  0  0  0  0  0  0  0  0  # atno 13503 bound_to 9025
  121.5183  239.5991  322.0418 LP  0  0  0  0  0  0  0  0  0  0  0  0  # atno 13504 bound_to 9068
  123.9677  239.4072  324.4118 LP  0  0  0  0  0  0  0  0  0  0  0  0  # atno 13505 bound_to 9071
  123.8237  238.5512  325.9107 LP  0  0  0  0  0  0  0  0  0  0  0  0  # atno 13506 bound_to 9071
  114.5611  238.2589  323.6633 LP  0  0  0  0  0  0  0  0  0  0  0  0  # atno 13507 bound_to 9079
  114.9251  237.7153  322.1670 LP  0  0  0  0  0  0  0  0  0  0  0  0  # atno 13508 bound_to 9079
  121.4301  240.9390  326.3703 LP  0  0  0  0  0  0  0  0  0  0  0  0  # atno 13509 bound_to 9106
  119.7757  237.6513  328.1144 LP  0  0  0  0  0  0  0  0  0  0  0  0  # atno 13510 bound_to 9109
  119.8406  239.3805  328.1884 LP  0  0  0  0  0  0  0  0  0  0  0  0  # atno 13511 bound_to 9109
  118.8984  238.3970  329.5446 LP  0  0  0  0  0  0  0  0  0  0  0  0  # atno 13512 bound_to 9183
  124.5853  248.9467  328.3986 LP  0  0  0  0  0  0  0  0  0  0  0  0  # atno 13519 bound_to 3592
  119.5268  247.5293  316.4951 LP  0  0  0  0  0  0  0  0  0  0  0  0  # atno 13520 bound_to 8978
  121.1974  247.2719  317.0743 LP  0  0  0  0  0  0  0  0  0  0  0  0  # atno 13521 bound_to 8981
  122.3770  246.0173  317.2605 LP  0  0  0  0  0  0  0  0  0  0  0  0  # atno 13522 bound_to 8981
  119.8693  238.1041  319.6513 LP  0  0  0  0  0  0  0  0  0  0  0  0  # atno 13523 bound_to 8351
  121.0617  236.8904  319.3270 LP  0  0  0  0  0  0  0  0  0  0  0  0  # atno 13524 bound_to 8351
  122.6946  237.4738  327.8126 LP  0  0  0  0  0  0  0  0  0  0  0  0  # atno 13525 bound_to 9136
  126.4213  237.9043  325.0530 LP  0  0  0  0  0  0  0  0  0  0  0  0  # atno 13526 bound_to 11049
  124.6809  245.8396  318.6839 LP  0  0  0  0  0  0  0  0  0  0  0  0  # atno 13527 bound_to 4888
  125.4556  247.1582  319.2566 LP  0  0  0  0  0  0  0  0  0  0  0  0  # atno 13528 bound_to 4888
  119.2136  244.7248  314.4814 LP  0  0  0  0  0  0  0  0  0  0  0  0  # atno 13529 bound_to 8983
  120.3547  243.8836  315.2920 LP  0  0  0  0  0  0  0  0  0  0  0  0  # atno 13530 bound_to 8983
  114.2078  247.8839  317.1693 LP  0  0  0  0  0  0  0  0  0  0  0  0  # atno 13531 bound_to 8454
  113.5462  249.1796  318.1092 LP  0  0  0  0  0  0  0  0  0  0  0  0  # atno 13532 bound_to 8454
  112.7680  243.5213  317.6817 LP  0  0  0  0  0  0  0  0  0  0  0  0  # atno 13533 bound_to 8432
  112.7437  245.0874  316.9423 LP  0  0  0  0  0  0  0  0  0  0  0  0  # atno 13534 bound_to 8432
  119.5334  249.5315  331.4035 LP  0  0  0  0  0  0  0  0  0  0  0  0  # atno 13535 bound_to 3502
  118.4794  249.3441  330.0419 LP  0  0  0  0  0  0  0  0  0  0  0  0  # atno 13536 bound_to 3502
  120.5576  251.7414  330.2727 LP  0  0  0  0  0  0  0  0  0  0  0  0  # atno 13537 bound_to 3542
  112.4783  247.2680  318.2456 LP  0  0  0  0  0  0  0  0  0  0  0  0  # atno 13538 bound_to 8482
  115.5481  249.0189  315.0860 LP  0  0  0  0  0  0  0  0  0  0  0  0  # atno 13539 bound_to 8943
  110.1829  249.5483  317.9206 LP  0  0  0  0  0  0  0  0  0  0  0  0  # atno 13541 bound_to 8506
  108.2055  243.3710  318.4501 LP  0  0  0  0  0  0  0  0  0  0  0  0  # atno 13542 bound_to 5571
  109.3185  255.4861  322.1351 LP  0  0  0  0  0  0  0  0  0  0  0  0  # atno 13543 bound_to 12828
  111.0460  255.4377  322.0202 LP  0  0  0  0  0  0  0  0  0  0  0  0  # atno 13544 bound_to 12828

> <Gold.Score>
     Fitness  S(hb_ext) S(vdw_ext)  S(hb_int)    S(int)      intcor
     31.94      10.80      15.50       0.00      -0.16      -0.79

> <Gold.Goldscore.Fitness>
31.9379

> <Gold.Goldscore.Internal.Vdw>
-0.3952

> <Gold.Goldscore.Internal.Torsion>
-0.5548

> <Gold.Goldscore.External.Vdw>
15.4960

> <Gold.Goldscore.Internal.HBond>
0.0000

> <Gold.Goldscore.External.HBond>
10.7960

> <Gold.Goldscore.Internal.Correction>
-0.7850

> <Gold.Goldscore.Hbonds>
donor molecule, donor type, donor heavy atom, donor atom, acceptor molecule, acceptor atom, score
      L1  H     8    22       P1 13316  0.80
      L1  H    10    23       P1  8513  1.00

> <Gold.Goldscore.Internal.Vdw.Weighted>
-0.3952

> <Gold.Goldscore.Internal.Torsion.Weighted>
-0.5548

> <Gold.Goldscore.External.Vdw.Weighted>
21.3069

> <Gold.Goldscore.Internal.HBond.Weighted>
0.0000

> <Gold.Goldscore.External.HBond.Weighted>
10.7960

> <Gold.Goldscore.Internal.Correction.Weighted>
-0.7850

> <Gold.Rescore>
     Score     S(PLP)   S(hbond)     S(cho)   S(metal)  DE(clash)   DE(tors)     intcor
     25.64     -25.76       0.70       0.00       0.00       0.00       1.11       ----

> <Gold.PLP.Fitness>
25.6406

> <Gold.PLP.PLP>
-25.7638

> <Gold.PLP.part.hbond>
-1.0000

> <Gold.PLP.part.metal>
0.0000

> <Gold.PLP.part.buried>
-5.4463

> <Gold.PLP.part.nonpolar>
-20.6363

> <Gold.PLP.part.repulsive>
1.1847

> <Gold.PLP.ligand.clash>
0.0000

> <Gold.PLP.ligand.torsion>
1.1116

> <Gold.PLP.Chemscore.Hbond>
0.7000

> <Gold.PLP.Chemscore.CHOScore>
0.0000

> <Gold.PLP.Chemscore.Metal>
0.0000

> <Gold.Chemscore.Hbonds>
donor molecule, donor type, donor heavy atom, donor atom, acceptor molecule, acceptor atom, score
      L1  H     8    22       P1 13316  0.78
      L1  H    10    23       P1  8513  1.00

> <Gold.PLP.Chemscore.Internal.Correction>
   9.000000E+99

