#       Name:                CT1002167954
#       Creating user name   hitesit
#       Creation time:       Sun Apr 16 22:52:43 2023


#       File generated by GOLD software.
#

@<TRIPOS>MOLECULE
CT1002167954|ligand_prepared|mol2|1|dock10
    29    30     1
SMALL
NO_CHARGES


@<TRIPOS>ATOM
      1 C1         117.5056 245.1082 323.8375 C.3            1 RES1               0.0000
      2 C2         116.4739 244.0710 324.3260 C.ar           1 RES1               0.0000
      3 C3         118.7750 244.8645 324.6484 C.2            1 RES1               0.0000
      4 C4         117.6696 244.8741 322.3399 C.2            1 RES1               0.0000
      5 C5         117.0635 246.5753 324.0462 C.3            1 RES1               0.0000
      6 C6         115.5601 244.3962 325.3240 C.ar           1 RES1               0.0000
      7 C7         116.4220 242.7881 323.7873 C.ar           1 RES1               0.0000
      8 N8         119.8248 244.2678 324.0147 N.am           1 RES1               0.0000
      9 O9         118.8400 245.1555 325.8364 O.2            1 RES1               0.0000
     10 N10        118.8851 244.4308 321.8886 N.am           1 RES1               0.0000
     11 O11        116.7521 245.0536 321.5485 O.2            1 RES1               0.0000
     12 C12        117.9196 247.5858 323.2991 C.3            1 RES1               0.0000
     13 C13        114.6263 243.4734 325.7654 C.ar           1 RES1               0.0000
     14 C14        115.4876 241.8667 324.2304 C.ar           1 RES1               0.0000
     15 C15        119.9607 244.0877 322.6616 C.2            1 RES1               0.0000
     16 C16        114.5891 242.2084 325.2188 C.ar           1 RES1               0.0000
     17 O17        121.0021 243.6446 322.1859 O.2            1 RES1               0.0000
     18 H18        116.0229 246.6810 323.7153 H              1 RES1               0.0000
     19 H19        117.0995 246.8059 325.1181 H              1 RES1               0.0000
     20 H20        115.5759 245.3861 325.7677 H              1 RES1               0.0000
     21 H21        117.1197 242.4969 323.0095 H              1 RES1               0.0000
     22 H22        120.5785 243.9235 324.6010 H              1 RES1               0.0000
     23 H23        118.9987 244.3492 320.8832 H              1 RES1               0.0000
     24 H24        117.5666 248.5989 323.4799 H              1 RES1               0.0000
     25 H25        118.9570 247.5258 323.6217 H              1 RES1               0.0000
     26 H26        117.8868 247.4016 322.2273 H              1 RES1               0.0000
     27 H27        113.9224 243.7468 326.5445 H              1 RES1               0.0000
     28 H28        115.4623 240.8720 323.7978 H              1 RES1               0.0000
     29 H29        113.8573 241.4858 325.5645 H              1 RES1               0.0000
@<TRIPOS>BOND
    1    1    2 1     
    2    1    3 1     
    3    1    4 1     
    4    1    5 1     
    5    2    6 ar    
    6    2    7 ar    
    7    3    8 1     
    8    3    9 2     
    9    4   10 1     
   10    4   11 2     
   11    5   12 1     
   12    5   18 1     
   13    5   19 1     
   14    6   13 ar    
   15    6   20 1     
   16    7   14 ar    
   17    7   21 1     
   18    8   15 1     
   19    8   22 1     
   20   10   15 1     
   21   10   23 1     
   22   12   24 1     
   23   12   25 1     
   24   12   26 1     
   25   13   16 ar    
   26   13   27 1     
   27   14   16 ar    
   28   14   28 1     
   29   15   17 2     
   30   16   29 1     
@<TRIPOS>SUBSTRUCTURE
      1 RES1           1
@<TRIPOS>SET
DONOR_HYDROGENS      STATIC     ATOMS    <user>   **** ""
2 22 23
ATOM$RED        STATIC     ATOMS    COLORGROUP SYSTEM
2 22 23
@<TRIPOS>COMMENT
> <Gold.Version>
2022.3.0

> <Gold.Id.Protein>
unknown|5adg_clean|pdb

> <Gold.Protein.RotatedTorsions>
[ 5556 5551 5550 5547 ] final   78.97 input   60.01 | X-H torsion
[ 8542 8534 8535 8536 ] final   94.90 input   85.39 | X-H torsion
[ 12870 12858 12859 12860 ] final  -24.54 input  110.07 | X-H torsion
[ 12878 12869 12868 12866 ] final  -44.46 input   59.97 | X-H torsion
[ 12906 12897 12898 12899 ] final  150.23 input   35.92 | X-H torsion
[ 8434 8429 8430 8431 ] final -153.56 input   45.97 | X-H torsion
[ 8458 8451 8452 8453 ] final  150.73 input  104.20 | X-H torsion
[ 9002 8998 8999 9000 ] final  136.78 input   46.10 | X-H torsion
[ 9036 9022 9023 9024 ] final  -12.65 input   36.28 | X-H torsion
[ 9080 9068 9069 9070 ] final   91.96 input   95.83 | X-H torsion
[ 9088 9079 9078 9076 ] final  122.60 input   59.97 | X-H torsion
[ 9114 9106 9107 9108 ] final   53.69 input   84.45 | X-H torsion
[ 9192 9183 9184 9185 ] final -106.01 input  123.29 | X-H torsion
[ 3596 3592 3593 3594 ] final    9.95 input   84.32 | X-H torsion
[ 8984 8978 8979 8980 ] final   -8.25 input   29.51 | X-H torsion
[ 9140 9136 9137 9138 ] final  151.37 input  134.07 | X-H torsion
[ 11056 11049 11050 11051 ] final  115.18 input   56.26 | X-H torsion
[ 4893 4888 4887 4884 ] final  -21.59 input   60.00 | X-H torsion
[ 8988 8983 8982 8979 ] final   48.15 input   59.98 | X-H torsion
[ 3550 3542 3543 3544 ] final   79.15 input   80.85 | X-H torsion
[ 8488 8482 8483 8484 ] final   93.38 input   54.31 | X-H torsion
[ 8954 8943 8944 8945 ] final   14.95 input   47.77 | X-H torsion
[ 8514 8506 8507 8508 ] final  -46.36 input   67.56 | X-H torsion
[ 5580 5571 5572 5573 ] final  153.86 input   48.82 | X-H torsion
[ 3570 3563 3564 3565 ] final  -12.05 input  103.62 | X-H torsion
[ 9229 9212 9213 9214 ] final  112.56 input   91.82 | X-H torsion
[ 8576 8568 8569 8570 ] final  -40.76 input   67.63 | X-H torsion
[ 13465 1235 1234 1233 ] final  106.70 input    0.00 | X-H torsion
[ 13468 5549 5548 5547 ] final  119.44 input   -0.00 | X-H torsion
[ 13472 8509 8508 8507 ] final   92.54 input    0.00 | X-H torsion
[ 13479 12900 12899 12898 ] final  147.57 input   -0.00 | X-H torsion
[ 13492 8406 8405 8404 ] final  -35.95 input    0.00 | X-H torsion
[ 13496 8946 8945 8944 ] final   -3.16 input   -0.00 | X-H torsion
[ 13499 9001 9000 8999 ] final -167.24 input    0.00 | X-H torsion
[ 13502 9025 9024 9023 ] final -141.65 input    0.00 | X-H torsion
[ 13505 9071 9070 9069 ] final   27.03 input    0.00 | X-H torsion
[ 13510 9109 9108 9107 ] final   -8.35 input    0.00 | X-H torsion
[ 13521 8981 8980 8979 ] final  -38.56 input   -0.00 | X-H torsion
[ 13523 8351 8350 8349 ] final -111.80 input   -0.00 | X-H torsion
[ 13531 8454 8453 8452 ] final   -0.79 input    0.00 | X-H torsion
[ 13533 8432 8431 8430 ] final  152.47 input    0.00 | X-H torsion
[ 13535 3502 3501 3500 ] final   28.78 input    0.00 | X-H torsion
[ 13543 12828 12827 12826 ] final   96.16 input   -0.00 | X-H torsion

> <Gold.Protein.ActiveResidues>
 TRP311  MET341  HIS342  TRP414  ALA417  ARG419  CYS420  VAL421  GLY422  LEU460 
 SER462  SER482  GLN483  ARG486  ALA502  TYR567  GLY568  LEU569  PRO570  ALA571 
 VAL572  SER573  ASN574  MET575  LEU576  PHE589  SER590  GLY591  TRP592  TYR593 
 MET594  GLY595  GLU597  ILE598  ARG601  ASP602  ARG608  ILE653  VAL654  TRP683 
 PHE709  GLU710  TYR711  GLN712  ASP714  HEM750  H4B760 

> <Gold.Protein.RotatedAtoms>
  120.4351  252.4169  329.2478 H   0  0  0  0  0  0  0  0  0  0  0  0  # atno 3550 bound_to 3542
  122.4713  249.1465  328.6748 H   0  0  0  0  0  0  0  0  0  0  0  0  # atno 3570 bound_to 3563
  124.1396  249.1050  327.9736 H   0  0  0  0  0  0  0  0  0  0  0  0  # atno 3596 bound_to 3592
  124.9581  245.6353  318.4454 H   0  0  0  0  0  0  0  0  0  0  0  0  # atno 4893 bound_to 4888
  107.9635  243.2774  321.3554 H   0  0  0  0  0  0  0  0  0  0  0  0  # atno 5556 bound_to 5551
  108.9011  243.8053  319.8513 H   0  0  0  0  0  0  0  0  0  0  0  0  # atno 5580 bound_to 5571
  116.5730  242.3837  318.8336 H   0  0  0  0  0  0  0  0  0  0  0  0  # atno 8434 bound_to 8429
  115.1339  245.3567  319.5794 H   0  0  0  0  0  0  0  0  0  0  0  0  # atno 8458 bound_to 8451
  111.1338  246.4501  318.3965 H   0  0  0  0  0  0  0  0  0  0  0  0  # atno 8488 bound_to 8482
  110.3029  249.6267  318.1017 H   0  0  0  0  0  0  0  0  0  0  0  0  # atno 8514 bound_to 8506
  110.6957  251.0531  319.3217 H   0  0  0  0  0  0  0  0  0  0  0  0  # atno 8542 bound_to 8534
  111.2811  254.7145  319.8385 H   0  0  0  0  0  0  0  0  0  0  0  0  # atno 8576 bound_to 8568
  115.2131  248.2692  316.4966 H   0  0  0  0  0  0  0  0  0  0  0  0  # atno 8954 bound_to 8943
  119.4785  247.7352  317.0007 H   0  0  0  0  0  0  0  0  0  0  0  0  # atno 8984 bound_to 8978
  120.6852  244.7943  315.6427 H   0  0  0  0  0  0  0  0  0  0  0  0  # atno 8988 bound_to 8983
  120.3248  245.5546  319.3307 H   0  0  0  0  0  0  0  0  0  0  0  0  # atno 9002 bound_to 8998
  122.2806  243.2888  321.3656 H   0  0  0  0  0  0  0  0  0  0  0  0  # atno 9036 bound_to 9022
  122.2627  239.0604  322.3325 H   0  0  0  0  0  0  0  0  0  0  0  0  # atno 9080 bound_to 9068
  114.9906  238.8706  321.9626 H   0  0  0  0  0  0  0  0  0  0  0  0  # atno 9088 bound_to 9079
  120.7945  240.1971  326.4614 H   0  0  0  0  0  0  0  0  0  0  0  0  # atno 9114 bound_to 9106
  123.1964  237.3601  328.5151 H   0  0  0  0  0  0  0  0  0  0  0  0  # atno 9140 bound_to 9136
  118.0796  238.5649  330.9988 H   0  0  0  0  0  0  0  0  0  0  0  0  # atno 9192 bound_to 9183
  117.5265  236.7943  328.1686 H   0  0  0  0  0  0  0  0  0  0  0  0  # atno 9229 bound_to 9212
  125.6258  238.6380  325.3694 H   0  0  0  0  0  0  0  0  0  0  0  0  # atno 11056 bound_to 11049
  109.6993  256.7854  323.9225 H   0  0  0  0  0  0  0  0  0  0  0  0  # atno 12870 bound_to 12858
  110.9099  250.9725  329.1933 H   0  0  0  0  0  0  0  0  0  0  0  0  # atno 12878 bound_to 12869
  107.3876  255.3605  322.6815 H   0  0  0  0  0  0  0  0  0  0  0  0  # atno 12906 bound_to 12897
  109.0492  253.7030  331.3499 LP  0  0  0  0  0  0  0  0  0  0  0  0  # atno 13465 bound_to 1235
  109.8337  254.5010  332.6719 LP  0  0  0  0  0  0  0  0  0  0  0  0  # atno 13466 bound_to 1235
  110.3464  245.5463  320.3306 LP  0  0  0  0  0  0  0  0  0  0  0  0  # atno 13468 bound_to 5549
  109.6685  246.6689  319.1991 LP  0  0  0  0  0  0  0  0  0  0  0  0  # atno 13469 bound_to 5549
  106.7606  242.9857  320.2986 LP  0  0  0  0  0  0  0  0  0  0  0  0  # atno 13470 bound_to 5551
  106.4344  243.1283  321.8923 LP  0  0  0  0  0  0  0  0  0  0  0  0  # atno 13471 bound_to 5551
  107.6407  251.8725  321.1694 LP  0  0  0  0  0  0  0  0  0  0  0  0  # atno 13472 bound_to 8509
  107.3085  252.6571  319.6614 LP  0  0  0  0  0  0  0  0  0  0  0  0  # atno 13473 bound_to 8509
  109.0145  251.4746  319.5167 LP  0  0  0  0  0  0  0  0  0  0  0  0  # atno 13474 bound_to 8534
  110.1257  255.9759  325.4106 LP  0  0  0  0  0  0  0  0  0  0  0  0  # atno 13475 bound_to 12858
  111.3609  252.3189  329.9885 LP  0  0  0  0  0  0  0  0  0  0  0  0  # atno 13476 bound_to 12869
  112.1712  251.8468  328.6517 LP  0  0  0  0  0  0  0  0  0  0  0  0  # atno 13477 bound_to 12869
  106.2944  254.5938  323.8091 LP  0  0  0  0  0  0  0  0  0  0  0  0  # atno 13478 bound_to 12897
  103.6734  253.1028  323.3153 LP  0  0  0  0  0  0  0  0  0  0  0  0  # atno 13479 bound_to 12900
  105.1769  253.1256  322.4557 LP  0  0  0  0  0  0  0  0  0  0  0  0  # atno 13480 bound_to 12900
  118.4278  243.3204  319.8877 LP  0  0  0  0  0  0  0  0  0  0  0  0  # atno 13492 bound_to 8406
  117.9437  243.7606  318.2840 LP  0  0  0  0  0  0  0  0  0  0  0  0  # atno 13493 bound_to 8406
  114.8409  242.3465  319.0527 LP  0  0  0  0  0  0  0  0  0  0  0  0  # atno 13494 bound_to 8429
  114.4959  245.4881  317.9546 LP  0  0  0  0  0  0  0  0  0  0  0  0  # atno 13495 bound_to 8451
  115.7657  247.2112  317.6649 LP  0  0  0  0  0  0  0  0  0  0  0  0  # atno 13496 bound_to 8946
  116.8790  245.9349  318.0276 LP  0  0  0  0  0  0  0  0  0  0  0  0  # atno 13497 bound_to 8946
  120.4535  244.2263  318.1998 LP  0  0  0  0  0  0  0  0  0  0  0  0  # atno 13498 bound_to 8998
  122.1473  241.2989  318.7629 LP  0  0  0  0  0  0  0  0  0  0  0  0  # atno 13499 bound_to 9001
  122.1368  242.6335  317.6589 LP  0  0  0  0  0  0  0  0  0  0  0  0  # atno 13500 bound_to 9001
  123.1861  242.9795  319.9075 LP  0  0  0  0  0  0  0  0  0  0  0  0  # atno 13501 bound_to 9022
  122.4168  242.0645  324.1213 LP  0  0  0  0  0  0  0  0  0  0  0  0  # atno 13502 bound_to 9025
  121.8053  242.9373  322.7559 LP  0  0  0  0  0  0  0  0  0  0  0  0  # atno 13503 bound_to 9025
  122.1366  240.7899  322.5619 LP  0  0  0  0  0  0  0  0  0  0  0  0  # atno 13504 bound_to 9068
  123.8812  239.2057  324.3255 LP  0  0  0  0  0  0  0  0  0  0  0  0  # atno 13505 bound_to 9071
  123.9103  238.7527  325.9970 LP  0  0  0  0  0  0  0  0  0  0  0  0  # atno 13506 bound_to 9071
  114.5989  238.9318  323.5411 LP  0  0  0  0  0  0  0  0  0  0  0  0  # atno 13507 bound_to 9079
  114.7674  237.4895  322.7942 LP  0  0  0  0  0  0  0  0  0  0  0  0  # atno 13508 bound_to 9079
  122.3664  240.0979  325.6993 LP  0  0  0  0  0  0  0  0  0  0  0  0  # atno 13509 bound_to 9106
  119.8531  239.3560  327.9460 LP  0  0  0  0  0  0  0  0  0  0  0  0  # atno 13510 bound_to 9109
  119.7633  237.6758  328.3567 LP  0  0  0  0  0  0  0  0  0  0  0  0  # atno 13511 bound_to 9109
  118.7363  237.9479  329.5037 LP  0  0  0  0  0  0  0  0  0  0  0  0  # atno 13512 bound_to 9183
  124.0263  247.4326  328.4539 LP  0  0  0  0  0  0  0  0  0  0  0  0  # atno 13519 bound_to 3592
  117.9368  247.1122  316.4695 LP  0  0  0  0  0  0  0  0  0  0  0  0  # atno 13520 bound_to 8978
  121.4158  246.5129  316.3962 LP  0  0  0  0  0  0  0  0  0  0  0  0  # atno 13521 bound_to 8981
  122.1586  246.7763  317.9386 LP  0  0  0  0  0  0  0  0  0  0  0  0  # atno 13522 bound_to 8981
  119.8164  237.7621  319.9976 LP  0  0  0  0  0  0  0  0  0  0  0  0  # atno 13523 bound_to 8351
  121.1146  237.2325  318.9807 LP  0  0  0  0  0  0  0  0  0  0  0  0  # atno 13524 bound_to 8351
  121.6763  238.2230  328.6068 LP  0  0  0  0  0  0  0  0  0  0  0  0  # atno 13525 bound_to 9136
  125.8743  236.9656  325.8039 LP  0  0  0  0  0  0  0  0  0  0  0  0  # atno 13526 bound_to 11049
  125.0648  247.0121  319.3064 LP  0  0  0  0  0  0  0  0  0  0  0  0  # atno 13527 bound_to 4888
  126.3570  246.4662  318.4704 LP  0  0  0  0  0  0  0  0  0  0  0  0  # atno 13528 bound_to 4888
  119.4902  245.4728  314.7712 LP  0  0  0  0  0  0  0  0  0  0  0  0  # atno 13529 bound_to 8983
  119.6884  243.8519  314.7675 LP  0  0  0  0  0  0  0  0  0  0  0  0  # atno 13530 bound_to 8983
  114.5308  248.2236  318.1163 LP  0  0  0  0  0  0  0  0  0  0  0  0  # atno 13531 bound_to 8454
  113.2232  248.8398  317.1621 LP  0  0  0  0  0  0  0  0  0  0  0  0  # atno 13532 bound_to 8454
  112.3296  244.6158  317.9985 LP  0  0  0  0  0  0  0  0  0  0  0  0  # atno 13533 bound_to 8432
  113.1821  243.9929  316.6255 LP  0  0  0  0  0  0  0  0  0  0  0  0  # atno 13534 bound_to 8432
  118.1800  249.6272  330.8995 LP  0  0  0  0  0  0  0  0  0  0  0  0  # atno 13535 bound_to 3502
  119.8327  249.2484  330.5458 LP  0  0  0  0  0  0  0  0  0  0  0  0  # atno 13536 bound_to 3502
  119.5019  251.1685  330.0352 LP  0  0  0  0  0  0  0  0  0  0  0  0  # atno 13537 bound_to 3542
  112.2094  247.7963  318.6784 LP  0  0  0  0  0  0  0  0  0  0  0  0  # atno 13538 bound_to 8482
  115.5431  249.5643  315.3717 LP  0  0  0  0  0  0  0  0  0  0  0  0  # atno 13539 bound_to 8943
  109.5472  248.2095  318.7850 LP  0  0  0  0  0  0  0  0  0  0  0  0  # atno 13541 bound_to 8506
  108.2773  243.9688  318.2241 LP  0  0  0  0  0  0  0  0  0  0  0  0  # atno 13542 bound_to 5571
  110.6712  254.8229  322.3980 LP  0  0  0  0  0  0  0  0  0  0  0  0  # atno 13543 bound_to 12828
  109.6933  256.1009  321.7573 LP  0  0  0  0  0  0  0  0  0  0  0  0  # atno 13544 bound_to 12828

> <Gold.Score>
     Fitness  S(hb_ext) S(vdw_ext)  S(hb_int)    S(int)      intcor
     42.38       1.93      29.82       0.00      -0.55      -0.76

> <Gold.Goldscore.Fitness>
42.3822

> <Gold.Goldscore.Internal.Vdw>
-0.6891

> <Gold.Goldscore.Internal.Torsion>
-0.6166

> <Gold.Goldscore.External.Vdw>
29.8158

> <Gold.Goldscore.Internal.HBond>
0.0000

> <Gold.Goldscore.External.HBond>
1.9326

> <Gold.Goldscore.Internal.Correction>
-0.7585

> <Gold.Goldscore.Hbonds>
donor molecule, donor type, donor heavy atom, donor atom, acceptor molecule, acceptor atom, score
      P1  H  8451  8458       L1    11  0.57
      P1  H  9022  9036       L1    17  0.36
      L1  H    10    23       P1  8406  0.04

> <Gold.Goldscore.Internal.Vdw.Weighted>
-0.6891

> <Gold.Goldscore.Internal.Torsion.Weighted>
-0.6166

> <Gold.Goldscore.External.Vdw.Weighted>
40.9967

> <Gold.Goldscore.Internal.HBond.Weighted>
0.0000

> <Gold.Goldscore.External.HBond.Weighted>
1.9326

> <Gold.Goldscore.Internal.Correction.Weighted>
-0.7585

> <Gold.Rescore>
     Score     S(PLP)   S(hbond)     S(cho)   S(metal)  DE(clash)   DE(tors)     intcor
     37.58     -33.28       2.30       0.00       0.00       0.00       1.29       ----

> <Gold.PLP.Fitness>
37.5804

> <Gold.PLP.PLP>
-33.2802

> <Gold.PLP.part.hbond>
-4.0000

> <Gold.PLP.part.metal>
0.0000

> <Gold.PLP.part.buried>
11.2060

> <Gold.PLP.part.nonpolar>
-44.3189

> <Gold.PLP.part.repulsive>
1.8756

> <Gold.PLP.ligand.clash>
0.0000

> <Gold.PLP.ligand.torsion>
1.2939

> <Gold.PLP.Chemscore.Hbond>
2.2960

> <Gold.PLP.Chemscore.CHOScore>
0.0000

> <Gold.PLP.Chemscore.Metal>
0.0000

> <Gold.Chemscore.Hbonds>
donor molecule, donor type, donor heavy atom, donor atom, acceptor molecule, acceptor atom, score
      L1  H    10    23       P1  8406  0.16
      P1  H  9022  9036       L1    17  0.84

> <Gold.PLP.Chemscore.Internal.Correction>
   9.000000E+99

