#       Name:                CT1002167954
#       Creating user name   hitesit
#       Creation time:       Sun Apr 16 22:53:12 2023


#       File generated by GOLD software.
#

@<TRIPOS>MOLECULE
CT1002167954|ligand_prepared|mol2|1|dock2
    29    30     1
SMALL
NO_CHARGES


@<TRIPOS>ATOM
      1 C1          10.0782  12.8649  11.7907 C.3            1 RES1               0.0000
      2 C2          10.8007  13.0563  10.4416 C.ar           1 RES1               0.0000
      3 C3           9.4467  14.2110  12.1333 C.2            1 RES1               0.0000
      4 C4           9.0702  11.7407  11.5791 C.2            1 RES1               0.0000
      5 C5          11.0165  12.4534  12.9491 C.3            1 RES1               0.0000
      6 C6          12.0963  12.5824  10.2581 C.ar           1 RES1               0.0000
      7 C7          10.1847  13.7012   9.3724 C.ar           1 RES1               0.0000
      8 N8           8.0945  14.3271  11.9992 N.am           1 RES1               0.0000
      9 O9          10.1294  15.1678  12.4780 O.2            1 RES1               0.0000
     10 N10          7.7376  12.0493  11.6614 N.am           1 RES1               0.0000
     11 O11          9.4176  10.5939  11.3253 O.2            1 RES1               0.0000
     12 C12         10.3483  12.4704  14.3149 C.3            1 RES1               0.0000
     13 C13         12.7513  12.7447   9.0486 C.ar           1 RES1               0.0000
     14 C14         10.8417  13.8626   8.1637 C.ar           1 RES1               0.0000
     15 C15          7.2037  13.2976  11.8314 C.2            1 RES1               0.0000
     16 C16         12.1245  13.3844   8.0006 C.ar           1 RES1               0.0000
     17 O17          5.9934  13.5032  11.8404 O.2            1 RES1               0.0000
     18 H18         11.3959  11.4428  12.7542 H              1 RES1               0.0000
     19 H19         11.8750  13.1361  12.9676 H              1 RES1               0.0000
     20 H20         12.6065  12.0786  11.0723 H              1 RES1               0.0000
     21 H21          9.1763  14.0865   9.4782 H              1 RES1               0.0000
     22 H22          7.7102  15.2662  12.0259 H              1 RES1               0.0000
     23 H23          7.0830  11.2768  11.5894 H              1 RES1               0.0000
     24 H24         11.0503  12.1740  15.0915 H              1 RES1               0.0000
     25 H25          9.9812  13.4668  14.5524 H              1 RES1               0.0000
     26 H26          9.5049  11.7835  14.3402 H              1 RES1               0.0000
     27 H27         13.7613  12.3677   8.9258 H              1 RES1               0.0000
     28 H28         10.3447  14.3672   7.3418 H              1 RES1               0.0000
     29 H29         12.6377  13.5110   7.0530 H              1 RES1               0.0000
@<TRIPOS>BOND
    1    1    2 1     
    2    1    3 1     
    3    1    4 1     
    4    1    5 1     
    5    2    6 ar    
    6    2    7 ar    
    7    3    8 1     
    8    3    9 2     
    9    4   10 1     
   10    4   11 2     
   11    5   12 1     
   12    5   18 1     
   13    5   19 1     
   14    6   13 ar    
   15    6   20 1     
   16    7   14 ar    
   17    7   21 1     
   18    8   15 1     
   19    8   22 1     
   20   10   15 1     
   21   10   23 1     
   22   12   24 1     
   23   12   25 1     
   24   12   26 1     
   25   13   16 ar    
   26   13   27 1     
   27   14   16 ar    
   28   14   28 1     
   29   15   17 2     
   30   16   29 1     
@<TRIPOS>SUBSTRUCTURE
      1 RES1           1
@<TRIPOS>SET
DONOR_HYDROGENS      STATIC     ATOMS    <user>   **** ""
2 22 23
ATOM$RED        STATIC     ATOMS    COLORGROUP SYSTEM
2 22 23
@<TRIPOS>COMMENT
> <Gold.Version>
2022.3.0

> <Gold.Id.Protein>
unknown|3mvj_clean|pdb

> <Gold.Protein.RotatedTorsions>
[ 9935 9915 9914 9913 ] final  -98.29 input   59.98 | X-H torsion
[ 10984 10935 10934 10932 ] final   87.59 input   60.03 | X-H torsion
[ 9832 9816 9817 9818 ] final -119.63 input   89.09 | X-H torsion
[ 9883 9871 9872 9873 ] final  120.73 input -126.12 | X-H torsion
[ 9925 9907 9908 9909 ] final  158.35 input  109.17 | X-H torsion
[ 9887 9876 9875 9872 ] final  172.10 input   59.96 | X-H torsion
[ 10746 10695 10694 10692 ] final  138.63 input   59.99 | X-H torsion
[ 11686 11631 11630 11629 ] final  145.90 input   60.02 | X-H torsion
[ 9775 9759 9760 9761 ] final  167.15 input  126.36 | X-H torsion
[ 11605 11587 11588 11589 ] final  -53.27 input  114.14 | X-H torsion
[ 11559 11538 11537 11535 ] final  -35.49 input   60.01 | X-H torsion
[ 11374 11358 11359 11360 ] final -167.57 input   98.08 | X-H torsion
[ 11434 11416 11417 11418 ] final  101.13 input  102.35 | X-H torsion
[ 11551 11527 11528 11529 ] final  119.71 input  127.83 | X-H torsion
[ 11812 11800 11801 11802 ] final   89.87 input  127.47 | X-H torsion
[ 11650 11632 11633 11634 ] final   83.41 input  113.96 | X-H torsion
[ 11482 11466 11467 11468 ] final  117.05 input  126.08 | X-H torsion
[ 11767 11753 11754 11755 ] final    5.24 input  105.73 | X-H torsion
[ 11713 11697 11698 11699 ] final   11.97 input  116.95 | X-H torsion
[ 11576 11526 11525 11523 ] final  -84.30 input   60.00 | X-H torsion
[ 9362 9334 9332 9329 ] final -135.41 input   60.01 | X-H torsion
[ 7768 7713 7712 7711 ] final   70.80 input   60.03 | X-H torsion
[ 15484 15454 15453 15451 ] final -112.61 input   59.98 | X-H torsion
[ 5787 5760 5759 5756 ] final  154.02 input   59.99 | X-H torsion
[ 1829 1810 1808 1805 ] final  -30.94 input   60.00 | X-H torsion
[ 8490 8455 8453 8450 ] final   84.70 input   60.02 | X-H torsion
[ 1885 1872 1871 1868 ] final  121.25 input   59.98 | X-H torsion
[ 9510 9468 9467 9465 ] final  160.23 input   60.02 | X-H torsion
[ 3466 3411 3410 3409 ] final  145.98 input   59.97 | X-H torsion
[ 16458 9819 9818 9817 ] final  -35.05 input    0.00 | X-H torsion
[ 16464 9874 9873 9872 ] final   92.93 input    0.00 | X-H torsion
[ 16467 9762 9761 9760 ] final  154.72 input    0.00 | X-H torsion
[ 16495 9617 9616 9615 ] final   33.60 input    0.00 | X-H torsion
[ 16497 9705 9704 9703 ] final -118.29 input    0.00 | X-H torsion
[ 16500 11530 11529 11528 ] final  157.14 input    0.00 | X-H torsion
[ 16504 11361 11360 11359 ] final -142.43 input    0.00 | X-H torsion
[ 16511 11318 11317 11316 ] final   67.36 input    0.00 | X-H torsion
[ 16520 11590 11589 11588 ] final -107.34 input    0.00 | X-H torsion
[ 16523 11756 11755 11754 ] final  162.38 input    0.00 | X-H torsion
[ 16543 11419 11418 11417 ] final -165.40 input   -0.00 | X-H torsion
[ 16547 11469 11468 11467 ] final   97.49 input    0.00 | X-H torsion
[ 16571 11269 11268 11267 ] final  -75.47 input   -0.00 | X-H torsion

> <Gold.Protein.ActiveResidues>
 THR48   LEU49   GLY50   THR51   GLY52   SER53   PHE54   GLY55   ARG56   VAL57  
 LYS78   LYS81   LEU82   LYS83   GLN84   HIS87   GLU127  PHE129  SER130  LEU132 
 ARG133  ARG134  ILE135  GLY136  ARG137  ARG165  ASP166  LEU167  LYS168  PRO169 
 GLU170  ASN171  LEU172  LEU173  THR183  ASP184  GLY186  PHE187  TPO197  LEU198 
 CYS199  GLY200  THR201  PRO202  GLU203  TYR204  LEU205  PRO207  ILE209  ILE210 
 LEU211  SER212  LYS213  VAL226  LEU227  TYR229  GLU230  ALA233  GLY234  TYR235 
 PRO236  PRO237  PHE238  PHE239  ALA240  ASP241  GLN242  PRO243  ILE244  GLN245 
 ILE246  TYR247  GLU248  LYS249  ILE250  VAL251  SER252  ARG256  PHE257  PRO258 
 SER259  PHE327  ASP328  TYR330 

> <Gold.Protein.RotatedAtoms>
   15.1058    6.4716   10.3507 H   0  0  0  0  0  0  0  0  0  0  0  0  # atno 1829 bound_to 1810
    6.4458    9.4273    9.7787 H   0  0  0  0  0  0  0  0  0  0  0  0  # atno 1885 bound_to 1872
    0.3246   12.1346   -6.7440 H   0  0  0  0  0  0  0  0  0  0  0  0  # atno 3466 bound_to 3411
    1.8446   11.7269   -6.2233 H   0  0  0  0  0  0  0  0  0  0  0  0  # atno 3467 bound_to 3411
    0.6010   10.6394   -6.0857 H   0  0  0  0  0  0  0  0  0  0  0  0  # atno 3468 bound_to 3411
   17.2506   12.0350   24.7327 H   0  0  0  0  0  0  0  0  0  0  0  0  # atno 5787 bound_to 5760
    6.0634   13.3735   14.8200 H   0  0  0  0  0  0  0  0  0  0  0  0  # atno 7768 bound_to 7713
    7.5324   13.0937   14.1056 H   0  0  0  0  0  0  0  0  0  0  0  0  # atno 7769 bound_to 7713
    7.2893   12.6777   15.6915 H   0  0  0  0  0  0  0  0  0  0  0  0  # atno 7770 bound_to 7713
   14.6024   18.2627   13.9697 H   0  0  0  0  0  0  0  0  0  0  0  0  # atno 8490 bound_to 8455
    5.1375   14.1658   14.2365 H   0  0  0  0  0  0  0  0  0  0  0  0  # atno 9362 bound_to 9334
    4.5989   18.5698   22.6301 H   0  0  0  0  0  0  0  0  0  0  0  0  # atno 9510 bound_to 9468
    8.4376    6.8322   41.0363 H   0  0  0  0  0  0  0  0  0  0  0  0  # atno 9775 bound_to 9759
    5.5279    7.8333   39.2734 H   0  0  0  0  0  0  0  0  0  0  0  0  # atno 9832 bound_to 9816
    4.2476   10.2994   40.3694 H   0  0  0  0  0  0  0  0  0  0  0  0  # atno 9883 bound_to 9871
    4.6768   13.5545   39.4607 H   0  0  0  0  0  0  0  0  0  0  0  0  # atno 9887 bound_to 9876
    3.0073    9.7078   43.1793 H   0  0  0  0  0  0  0  0  0  0  0  0  # atno 9925 bound_to 9907
   -2.2352    6.9169   43.1442 H   0  0  0  0  0  0  0  0  0  0  0  0  # atno 9935 bound_to 9915
   -1.0813    8.0955   42.9779 H   0  0  0  0  0  0  0  0  0  0  0  0  # atno 9936 bound_to 9915
   -1.2047    6.8913   41.8457 H   0  0  0  0  0  0  0  0  0  0  0  0  # atno 9937 bound_to 9915
   -4.5951   17.5818   31.0941 H   0  0  0  0  0  0  0  0  0  0  0  0  # atno 10746 bound_to 10695
   -3.3589   13.7942   33.6905 H   0  0  0  0  0  0  0  0  0  0  0  0  # atno 10984 bound_to 10935
   11.4268    5.8409   30.2078 H   0  0  0  0  0  0  0  0  0  0  0  0  # atno 11374 bound_to 11358
   10.2743    3.1136   29.1499 H   0  0  0  0  0  0  0  0  0  0  0  0  # atno 11434 bound_to 11416
   11.0847    1.8507   30.8206 H   0  0  0  0  0  0  0  0  0  0  0  0  # atno 11482 bound_to 11466
    9.8889    3.2015   32.9164 H   0  0  0  0  0  0  0  0  0  0  0  0  # atno 11551 bound_to 11527
   13.1155    7.9314   35.4835 H   0  0  0  0  0  0  0  0  0  0  0  0  # atno 11559 bound_to 11538
   -3.3298   11.7915   11.5158 H   0  0  0  0  0  0  0  0  0  0  0  0  # atno 11576 bound_to 11526
    7.1856    1.9325   34.2559 H   0  0  0  0  0  0  0  0  0  0  0  0  # atno 11605 bound_to 11587
    7.7063   -0.3644   33.5975 H   0  0  0  0  0  0  0  0  0  0  0  0  # atno 11650 bound_to 11632
   -9.2620    8.6417   26.9143 H   0  0  0  0  0  0  0  0  0  0  0  0  # atno 11686 bound_to 11631
   -8.7036    8.0330   25.4778 H   0  0  0  0  0  0  0  0  0  0  0  0  # atno 11687 bound_to 11631
   -7.8749    9.2491   26.2393 H   0  0  0  0  0  0  0  0  0  0  0  0  # atno 11688 bound_to 11631
    6.7953   -1.0065   35.9328 H   0  0  0  0  0  0  0  0  0  0  0  0  # atno 11713 bound_to 11697
    5.7111   -0.7469   37.2725 H   0  0  0  0  0  0  0  0  0  0  0  0  # atno 11767 bound_to 11753
    4.3372   -1.5476   36.7553 H   0  0  0  0  0  0  0  0  0  0  0  0  # atno 11812 bound_to 11800
   15.1971    7.9007   18.6214 H   0  0  0  0  0  0  0  0  0  0  0  0  # atno 15484 bound_to 15454
    1.5617    9.9626   40.3080 LP  0  0  0  0  0  0  0  0  0  0  0  0  # atno 16458 bound_to 9819
    2.0033   10.4965   41.8954 LP  0  0  0  0  0  0  0  0  0  0  0  0  # atno 16459 bound_to 9819
   -3.2383   15.2711   33.0178 LP  0  0  0  0  0  0  0  0  0  0  0  0  # atno 16460 bound_to 10935
   -2.1954   14.8168   34.1894 LP  0  0  0  0  0  0  0  0  0  0  0  0  # atno 16461 bound_to 10935
    5.3041    7.6108   40.9910 LP  0  0  0  0  0  0  0  0  0  0  0  0  # atno 16462 bound_to 9816
    4.7256    9.4861   41.8412 LP  0  0  0  0  0  0  0  0  0  0  0  0  # atno 16463 bound_to 9871
    1.7253   12.6745   43.1433 LP  0  0  0  0  0  0  0  0  0  0  0  0  # atno 16464 bound_to 9874
    3.0012   13.1904   44.1950 LP  0  0  0  0  0  0  0  0  0  0  0  0  # atno 16465 bound_to 9874
    3.8018   11.1223   43.8296 LP  0  0  0  0  0  0  0  0  0  0  0  0  # atno 16466 bound_to 9907
    4.8060    9.3467   38.0599 LP  0  0  0  0  0  0  0  0  0  0  0  0  # atno 16467 bound_to 9762
    6.5035    9.6903   38.0782 LP  0  0  0  0  0  0  0  0  0  0  0  0  # atno 16468 bound_to 9762
    5.1135   12.0035   39.6890 LP  0  0  0  0  0  0  0  0  0  0  0  0  # atno 16469 bound_to 9876
    5.8250   13.1910   40.5552 LP  0  0  0  0  0  0  0  0  0  0  0  0  # atno 16470 bound_to 9876
   -3.7122   16.2714   30.7070 LP  0  0  0  0  0  0  0  0  0  0  0  0  # atno 16477 bound_to 10695
   -4.9845   16.7056   29.7799 LP  0  0  0  0  0  0  0  0  0  0  0  0  # atno 16478 bound_to 10695
    4.8868    4.9555   40.9270 LP  0  0  0  0  0  0  0  0  0  0  0  0  # atno 16495 bound_to 9617
    5.5183    6.2811   41.8457 LP  0  0  0  0  0  0  0  0  0  0  0  0  # atno 16496 bound_to 9617
    6.5262    9.8640   40.9519 LP  0  0  0  0  0  0  0  0  0  0  0  0  # atno 16497 bound_to 9705
    8.1445   10.3850   41.2832 LP  0  0  0  0  0  0  0  0  0  0  0  0  # atno 16498 bound_to 9705
    7.2100    7.9761   41.5301 LP  0  0  0  0  0  0  0  0  0  0  0  0  # atno 16499 bound_to 9759
    5.6265    1.7836   35.4834 LP  0  0  0  0  0  0  0  0  0  0  0  0  # atno 16500 bound_to 11530
    7.0579    2.0674   36.4165 LP  0  0  0  0  0  0  0  0  0  0  0  0  # atno 16501 bound_to 11530
    7.6994    2.5901   31.4453 LP  0  0  0  0  0  0  0  0  0  0  0  0  # atno 16504 bound_to 11361
    7.0565    4.1637   31.1131 LP  0  0  0  0  0  0  0  0  0  0  0  0  # atno 16505 bound_to 11361
    7.3122    2.1349   32.5217 LP  0  0  0  0  0  0  0  0  0  0  0  0  # atno 16508 bound_to 11587
   12.4134    8.9555   34.4321 LP  0  0  0  0  0  0  0  0  0  0  0  0  # atno 16509 bound_to 11538
   13.3469    7.7322   33.8854 LP  0  0  0  0  0  0  0  0  0  0  0  0  # atno 16510 bound_to 11538
   11.2821    4.6205   32.9334 LP  0  0  0  0  0  0  0  0  0  0  0  0  # atno 16511 bound_to 11318
   10.8183    3.2377   31.9992 LP  0  0  0  0  0  0  0  0  0  0  0  0  # atno 16512 bound_to 11318
   11.1454    4.2097   29.6765 LP  0  0  0  0  0  0  0  0  0  0  0  0  # atno 16513 bound_to 11358
    8.9285    3.5407   30.1777 LP  0  0  0  0  0  0  0  0  0  0  0  0  # atno 16514 bound_to 11416
    9.8869    1.6685   33.7469 LP  0  0  0  0  0  0  0  0  0  0  0  0  # atno 16515 bound_to 11527
    4.9387   -0.8243   35.5736 LP  0  0  0  0  0  0  0  0  0  0  0  0  # atno 16520 bound_to 11590
    4.0342   -1.2036   34.1459 LP  0  0  0  0  0  0  0  0  0  0  0  0  # atno 16521 bound_to 11590
    3.0291   -0.6828   37.5273 LP  0  0  0  0  0  0  0  0  0  0  0  0  # atno 16522 bound_to 11800
    1.7247   -1.6607   38.9078 LP  0  0  0  0  0  0  0  0  0  0  0  0  # atno 16523 bound_to 11756
    2.6702   -0.7194   40.0122 LP  0  0  0  0  0  0  0  0  0  0  0  0  # atno 16524 bound_to 11756
    8.7563   -0.3314   32.3127 LP  0  0  0  0  0  0  0  0  0  0  0  0  # atno 16543 bound_to 11419
    7.8667   -0.4458   30.8310 LP  0  0  0  0  0  0  0  0  0  0  0  0  # atno 16544 bound_to 11419
    6.0081   -0.7341   33.4365 LP  0  0  0  0  0  0  0  0  0  0  0  0  # atno 16545 bound_to 11632
    9.7012    0.7873   30.9705 LP  0  0  0  0  0  0  0  0  0  0  0  0  # atno 16546 bound_to 11466
    9.6356    0.4105   35.3792 LP  0  0  0  0  0  0  0  0  0  0  0  0  # atno 16547 bound_to 11469
    8.5561   -0.0376   34.1010 LP  0  0  0  0  0  0  0  0  0  0  0  0  # atno 16548 bound_to 11469
    6.2912    0.7828   37.8867 LP  0  0  0  0  0  0  0  0  0  0  0  0  # atno 16549 bound_to 11753
    8.5054   -1.3942   35.8514 LP  0  0  0  0  0  0  0  0  0  0  0  0  # atno 16550 bound_to 11697
   -3.4921   10.1889   11.7478 LP  0  0  0  0  0  0  0  0  0  0  0  0  # atno 16565 bound_to 11526
   -2.7171   11.1029   12.8571 LP  0  0  0  0  0  0  0  0  0  0  0  0  # atno 16566 bound_to 11526
    4.5647   15.6496   13.8911 LP  0  0  0  0  0  0  0  0  0  0  0  0  # atno 16567 bound_to 9334
    4.1208   14.3680   12.9816 LP  0  0  0  0  0  0  0  0  0  0  0  0  # atno 16568 bound_to 9334
   11.4952    2.8227   28.9556 LP  0  0  0  0  0  0  0  0  0  0  0  0  # atno 16571 bound_to 11269
   12.8180    2.1503   29.8489 LP  0  0  0  0  0  0  0  0  0  0  0  0  # atno 16572 bound_to 11269
   15.0660    8.7560   17.2436 LP  0  0  0  0  0  0  0  0  0  0  0  0  # atno 16581 bound_to 15454
   16.3044    9.0397   18.2695 LP  0  0  0  0  0  0  0  0  0  0  0  0  # atno 16582 bound_to 15454
   16.2836   13.1307   25.4480 LP  0  0  0  0  0  0  0  0  0  0  0  0  # atno 16589 bound_to 5760
   16.1902   12.8835   23.8366 LP  0  0  0  0  0  0  0  0  0  0  0  0  # atno 16590 bound_to 5760
   15.0477    5.0400   11.1229 LP  0  0  0  0  0  0  0  0  0  0  0  0  # atno 16601 bound_to 1810
   16.4670    5.8338   10.9746 LP  0  0  0  0  0  0  0  0  0  0  0  0  # atno 16602 bound_to 1810
   14.3833   19.3959   15.1168 LP  0  0  0  0  0  0  0  0  0  0  0  0  # atno 16609 bound_to 8455
   15.7187   18.4563   15.1378 LP  0  0  0  0  0  0  0  0  0  0  0  0  # atno 16610 bound_to 8455
    6.9863    7.9010    9.6175 LP  0  0  0  0  0  0  0  0  0  0  0  0  # atno 16611 bound_to 1872
    5.9012    8.5024    8.5557 LP  0  0  0  0  0  0  0  0  0  0  0  0  # atno 16612 bound_to 1872
    4.7435   16.9601   22.4429 LP  0  0  0  0  0  0  0  0  0  0  0  0  # atno 16621 bound_to 9468
    3.4338   17.5836   23.1930 LP  0  0  0  0  0  0  0  0  0  0  0  0  # atno 16622 bound_to 9468

> <Gold.Score>
     Fitness  S(hb_ext) S(vdw_ext)  S(hb_int)    S(int)      intcor
     38.65       6.78      23.65       0.00      -0.65      -0.78

> <Gold.Goldscore.Fitness>
38.6523

> <Gold.Goldscore.Internal.Vdw>
-0.9309

> <Gold.Goldscore.Internal.Torsion>
-0.4946

> <Gold.Goldscore.External.Vdw>
23.6508

> <Gold.Goldscore.Internal.HBond>
0.0000

> <Gold.Goldscore.External.HBond>
6.7826

> <Gold.Goldscore.Internal.Correction>
-0.7752

> <Gold.Goldscore.Hbonds>
donor molecule, donor type, donor heavy atom, donor atom, acceptor molecule, acceptor atom, score
      P1  H  1867  1886       L1    11  0.49
      P1  H  7864  7898       L1     9  0.01
      L1  H     8    22       P1  7619  0.96

> <Gold.Goldscore.Internal.Vdw.Weighted>
-0.9309

> <Gold.Goldscore.Internal.Torsion.Weighted>
-0.4946

> <Gold.Goldscore.External.Vdw.Weighted>
32.5199

> <Gold.Goldscore.Internal.HBond.Weighted>
0.0000

> <Gold.Goldscore.External.HBond.Weighted>
6.7826

> <Gold.Goldscore.Internal.Correction.Weighted>
-0.7752

> <Gold.Rescore>
     Score     S(PLP)   S(hbond)     S(cho)   S(metal)  DE(clash)   DE(tors)     intcor
     31.43     -24.80       2.25       0.00       0.00       0.00       0.05       ----

> <Gold.PLP.Fitness>
31.4333

> <Gold.PLP.PLP>
-24.7986

> <Gold.PLP.part.hbond>
-3.5966

> <Gold.PLP.part.metal>
0.0000

> <Gold.PLP.part.buried>
-1.0615

> <Gold.PLP.part.nonpolar>
-23.8661

> <Gold.PLP.part.repulsive>
4.3651

> <Gold.PLP.ligand.clash>
0.0000

> <Gold.PLP.ligand.torsion>
0.0532

> <Gold.PLP.Chemscore.Hbond>
2.2470

> <Gold.PLP.Chemscore.CHOScore>
0.0000

> <Gold.PLP.Chemscore.Metal>
0.0000

> <Gold.Chemscore.Hbonds>
donor molecule, donor type, donor heavy atom, donor atom, acceptor molecule, acceptor atom, score
      L1  H     8    22       P1  7619  0.67
      P1  H  1867  1886       L1    11  1.00
      P1  H  7864  7898       L1     9  0.26

> <Gold.PLP.Chemscore.Internal.Correction>
   9.000000E+99

#       Name:                CT1002167954
#       Creating user name   hitesit
#       Creation time:       Sun Apr 16 22:53:16 2023


#       File generated by GOLD software.
#

@<TRIPOS>MOLECULE
CT1002167954|ligand_prepared|mol2|1|dock4
    29    30     1
SMALL
NO_CHARGES


@<TRIPOS>ATOM
      1 C1          10.4144  12.9318  12.0279 C.3            1 RES1               0.0000
      2 C2          11.1303  13.0195  10.6646 C.ar           1 RES1               0.0000
      3 C3           9.8073  14.3083  12.2823 C.2            1 RES1               0.0000
      4 C4           9.3869  11.8128  11.8989 C.2            1 RES1               0.0000
      5 C5          11.3541  12.5840  13.2058 C.3            1 RES1               0.0000
      6 C6          12.4609  12.6322  10.5367 C.ar           1 RES1               0.0000
      7 C7          10.4738  13.4823   9.5273 C.ar           1 RES1               0.0000
      8 N8           8.4562  14.4375  12.1487 N.am           1 RES1               0.0000
      9 O9          10.5077  15.2748  12.5573 O.2            1 RES1               0.0000
     10 N10          8.0601  12.1483  11.9681 N.am           1 RES1               0.0000
     11 O11          9.7138  10.6458  11.7213 O.2            1 RES1               0.0000
     12 C12         10.6666  12.5936  14.5621 C.3            1 RES1               0.0000
     13 C13         13.1108  12.7022   9.3156 C.ar           1 RES1               0.0000
     14 C14         11.1256  13.5517   8.3072 C.ar           1 RES1               0.0000
     15 C15          7.5476  13.4140  12.0564 C.2            1 RES1               0.0000
     16 C16         12.4436  13.1615   8.2001 C.ar           1 RES1               0.0000
     17 O17          6.3409  13.6398  12.0587 O.2            1 RES1               0.0000
     18 H18         11.7823  11.5888  13.0340 H              1 RES1               0.0000
     19 H19         12.1800  13.3058  13.2237 H              1 RES1               0.0000
     20 H20         13.0030  12.2705  11.4041 H              1 RES1               0.0000
     21 H21          9.4371  13.7956   9.5882 H              1 RES1               0.0000
     22 H22          8.0873  15.3825  12.1141 H              1 RES1               0.0000
     23 H23          7.3926  11.3838  11.9525 H              1 RES1               0.0000
     24 H24         11.3704  12.3432  15.3531 H              1 RES1               0.0000
     25 H25         10.2507  13.5758  14.7768 H              1 RES1               0.0000
     26 H26          9.8554  11.8689  14.5883 H              1 RES1               0.0000
     27 H27         14.1485  12.3952   9.2369 H              1 RES1               0.0000
     28 H28         10.5968  13.9144   7.4320 H              1 RES1               0.0000
     29 H29         12.9528  13.2159   7.2435 H              1 RES1               0.0000
@<TRIPOS>BOND
    1    1    2 1     
    2    1    3 1     
    3    1    4 1     
    4    1    5 1     
    5    2    6 ar    
    6    2    7 ar    
    7    3    8 1     
    8    3    9 2     
    9    4   10 1     
   10    4   11 2     
   11    5   12 1     
   12    5   18 1     
   13    5   19 1     
   14    6   13 ar    
   15    6   20 1     
   16    7   14 ar    
   17    7   21 1     
   18    8   15 1     
   19    8   22 1     
   20   10   15 1     
   21   10   23 1     
   22   12   24 1     
   23   12   25 1     
   24   12   26 1     
   25   13   16 ar    
   26   13   27 1     
   27   14   16 ar    
   28   14   28 1     
   29   15   17 2     
   30   16   29 1     
@<TRIPOS>SUBSTRUCTURE
      1 RES1           1
@<TRIPOS>SET
DONOR_HYDROGENS      STATIC     ATOMS    <user>   **** ""
2 22 23
ATOM$RED        STATIC     ATOMS    COLORGROUP SYSTEM
2 22 23
@<TRIPOS>COMMENT
> <Gold.Version>
2022.3.0

> <Gold.Id.Protein>
unknown|3mvj_clean|pdb

> <Gold.Protein.RotatedTorsions>
[ 9935 9915 9914 9913 ] final -117.92 input   59.98 | X-H torsion
[ 10984 10935 10934 10932 ] final   97.47 input   60.03 | X-H torsion
[ 9832 9816 9817 9818 ] final  -88.86 input   89.09 | X-H torsion
[ 9883 9871 9872 9873 ] final   70.66 input -126.12 | X-H torsion
[ 9925 9907 9908 9909 ] final   -1.95 input  109.17 | X-H torsion
[ 9887 9876 9875 9872 ] final  139.43 input   59.96 | X-H torsion
[ 10746 10695 10694 10692 ] final   30.54 input   59.99 | X-H torsion
[ 11686 11631 11630 11629 ] final  -14.89 input   60.02 | X-H torsion
[ 9775 9759 9760 9761 ] final -107.56 input  126.36 | X-H torsion
[ 11605 11587 11588 11589 ] final -140.51 input  114.14 | X-H torsion
[ 11559 11538 11537 11535 ] final   26.42 input   60.01 | X-H torsion
[ 11374 11358 11359 11360 ] final -104.17 input   98.08 | X-H torsion
[ 11434 11416 11417 11418 ] final   60.13 input  102.35 | X-H torsion
[ 11551 11527 11528 11529 ] final -157.70 input  127.83 | X-H torsion
[ 11812 11800 11801 11802 ] final   95.28 input  127.47 | X-H torsion
[ 11650 11632 11633 11634 ] final  127.80 input  113.96 | X-H torsion
[ 11482 11466 11467 11468 ] final  -73.69 input  126.08 | X-H torsion
[ 11767 11753 11754 11755 ] final   32.66 input  105.73 | X-H torsion
[ 11713 11697 11698 11699 ] final  -18.08 input  116.95 | X-H torsion
[ 11576 11526 11525 11523 ] final  139.09 input   60.00 | X-H torsion
[ 9362 9334 9332 9329 ] final    0.77 input   60.01 | X-H torsion
[ 7768 7713 7712 7711 ] final -130.21 input   60.03 | X-H torsion
[ 15484 15454 15453 15451 ] final  127.55 input   59.98 | X-H torsion
[ 5787 5760 5759 5756 ] final  -77.91 input   59.99 | X-H torsion
[ 1829 1810 1808 1805 ] final    2.56 input   60.00 | X-H torsion
[ 8490 8455 8453 8450 ] final   -4.52 input   60.02 | X-H torsion
[ 1885 1872 1871 1868 ] final  119.15 input   59.98 | X-H torsion
[ 9510 9468 9467 9465 ] final  -94.56 input   60.02 | X-H torsion
[ 3466 3411 3410 3409 ] final  -76.40 input   59.97 | X-H torsion
[ 16458 9819 9818 9817 ] final  -46.78 input    0.00 | X-H torsion
[ 16464 9874 9873 9872 ] final  149.16 input    0.00 | X-H torsion
[ 16467 9762 9761 9760 ] final  -23.76 input    0.00 | X-H torsion
[ 16495 9617 9616 9615 ] final -115.19 input    0.00 | X-H torsion
[ 16497 9705 9704 9703 ] final   25.72 input    0.00 | X-H torsion
[ 16500 11530 11529 11528 ] final -108.30 input    0.00 | X-H torsion
[ 16504 11361 11360 11359 ] final  -20.09 input    0.00 | X-H torsion
[ 16511 11318 11317 11316 ] final    2.64 input    0.00 | X-H torsion
[ 16520 11590 11589 11588 ] final   78.28 input    0.00 | X-H torsion
[ 16523 11756 11755 11754 ] final  -42.42 input    0.00 | X-H torsion
[ 16543 11419 11418 11417 ] final  -88.02 input   -0.00 | X-H torsion
[ 16547 11469 11468 11467 ] final  -85.29 input    0.00 | X-H torsion
[ 16571 11269 11268 11267 ] final -116.58 input   -0.00 | X-H torsion

> <Gold.Protein.ActiveResidues>
 THR48   LEU49   GLY50   THR51   GLY52   SER53   PHE54   GLY55   ARG56   VAL57  
 LYS78   LYS81   LEU82   LYS83   GLN84   HIS87   GLU127  PHE129  SER130  LEU132 
 ARG133  ARG134  ILE135  GLY136  ARG137  ARG165  ASP166  LEU167  LYS168  PRO169 
 GLU170  ASN171  LEU172  LEU173  THR183  ASP184  GLY186  PHE187  TPO197  LEU198 
 CYS199  GLY200  THR201  PRO202  GLU203  TYR204  LEU205  PRO207  ILE209  ILE210 
 LEU211  SER212  LYS213  VAL226  LEU227  TYR229  GLU230  ALA233  GLY234  TYR235 
 PRO236  PRO237  PHE238  PHE239  ALA240  ASP241  GLN242  PRO243  ILE244  GLN245 
 ILE246  TYR247  GLU248  LYS249  ILE250  VAL251  SER252  ARG256  PHE257  PRO258 
 SER259  PHE327  ASP328  TYR330 

> <Gold.Protein.RotatedAtoms>
   15.6269    6.6086   10.3811 H   0  0  0  0  0  0  0  0  0  0  0  0  # atno 1829 bound_to 1810
    6.4686    9.4141    9.8007 H   0  0  0  0  0  0  0  0  0  0  0  0  # atno 1885 bound_to 1872
    1.8494   11.4547   -6.1150 H   0  0  0  0  0  0  0  0  0  0  0  0  # atno 3466 bound_to 3411
    0.3504   10.7509   -6.1884 H   0  0  0  0  0  0  0  0  0  0  0  0  # atno 3467 bound_to 3411
    0.5702   12.2952   -6.7494 H   0  0  0  0  0  0  0  0  0  0  0  0  # atno 3468 bound_to 3411
   16.1165   12.9666   23.9088 H   0  0  0  0  0  0  0  0  0  0  0  0  # atno 5787 bound_to 5760
    7.8503   12.8304   14.5934 H   0  0  0  0  0  0  0  0  0  0  0  0  # atno 7768 bound_to 7713
    6.6827   12.8626   15.7691 H   0  0  0  0  0  0  0  0  0  0  0  0  # atno 7769 bound_to 7713
    6.3515   13.4518   14.2557 H   0  0  0  0  0  0  0  0  0  0  0  0  # atno 7770 bound_to 7713
   14.1318   19.2372   14.7164 H   0  0  0  0  0  0  0  0  0  0  0  0  # atno 8490 bound_to 8455
    4.0486   14.6216   12.9609 H   0  0  0  0  0  0  0  0  0  0  0  0  # atno 9362 bound_to 9334
    3.4450   17.8251   23.2005 H   0  0  0  0  0  0  0  0  0  0  0  0  # atno 9510 bound_to 9468
    8.4357    8.0286   41.1423 H   0  0  0  0  0  0  0  0  0  0  0  0  # atno 9775 bound_to 9759
    5.6712    8.2330   39.4701 H   0  0  0  0  0  0  0  0  0  0  0  0  # atno 9832 bound_to 9816
    3.6846   10.0024   40.7647 H   0  0  0  0  0  0  0  0  0  0  0  0  # atno 9883 bound_to 9871
    4.5398   13.0863   39.2624 H   0  0  0  0  0  0  0  0  0  0  0  0  # atno 9887 bound_to 9876
    3.9870   10.9227   43.9551 H   0  0  0  0  0  0  0  0  0  0  0  0  # atno 9925 bound_to 9907
   -2.2167    6.7055   42.8962 H   0  0  0  0  0  0  0  0  0  0  0  0  # atno 9935 bound_to 9915
   -1.3058    8.0545   43.2109 H   0  0  0  0  0  0  0  0  0  0  0  0  # atno 9936 bound_to 9915
   -0.9985    7.1438   41.8606 H   0  0  0  0  0  0  0  0  0  0  0  0  # atno 9937 bound_to 9915
   -3.6860   16.3939   30.8567 H   0  0  0  0  0  0  0  0  0  0  0  0  # atno 10746 bound_to 10695
   -3.2499   13.7618   33.8050 H   0  0  0  0  0  0  0  0  0  0  0  0  # atno 10984 bound_to 10935
   11.5153    5.1324   30.7720 H   0  0  0  0  0  0  0  0  0  0  0  0  # atno 11374 bound_to 11358
   10.4212    3.0315   29.7438 H   0  0  0  0  0  0  0  0  0  0  0  0  # atno 11434 bound_to 11416
    9.7860    0.6462   30.9342 H   0  0  0  0  0  0  0  0  0  0  0  0  # atno 11482 bound_to 11466
   10.5114    2.8182   33.8114 H   0  0  0  0  0  0  0  0  0  0  0  0  # atno 11551 bound_to 11527
   13.5040    7.4575   34.7408 H   0  0  0  0  0  0  0  0  0  0  0  0  # atno 11559 bound_to 11538
   -3.3782   10.1162   11.9833 H   0  0  0  0  0  0  0  0  0  0  0  0  # atno 11576 bound_to 11526
    6.7452    2.7624   33.4657 H   0  0  0  0  0  0  0  0  0  0  0  0  # atno 11605 bound_to 11587
    7.5673   -0.6593   33.0180 H   0  0  0  0  0  0  0  0  0  0  0  0  # atno 11650 bound_to 11632
   -7.8437    8.8719   25.6904 H   0  0  0  0  0  0  0  0  0  0  0  0  # atno 11686 bound_to 11631
   -8.7917    9.1003   27.0301 H   0  0  0  0  0  0  0  0  0  0  0  0  # atno 11687 bound_to 11631
   -9.2048    7.9514   25.9101 H   0  0  0  0  0  0  0  0  0  0  0  0  # atno 11688 bound_to 11631
    6.8203   -1.4626   36.0254 H   0  0  0  0  0  0  0  0  0  0  0  0  # atno 11713 bound_to 11697
    5.6306   -0.4780   36.9613 H   0  0  0  0  0  0  0  0  0  0  0  0  # atno 11767 bound_to 11753
    4.3129   -1.5124   36.6836 H   0  0  0  0  0  0  0  0  0  0  0  0  # atno 11812 bound_to 11800
   15.0690    8.7510   17.2488 H   0  0  0  0  0  0  0  0  0  0  0  0  # atno 15484 bound_to 15454
    1.6084   10.1262   40.2596 LP  0  0  0  0  0  0  0  0  0  0  0  0  # atno 16458 bound_to 9819
    1.9567   10.3329   41.9437 LP  0  0  0  0  0  0  0  0  0  0  0  0  # atno 16459 bound_to 9819
   -3.3495   15.1597   32.9777 LP  0  0  0  0  0  0  0  0  0  0  0  0  # atno 16460 bound_to 10935
   -2.1940   14.9608   34.1143 LP  0  0  0  0  0  0  0  0  0  0  0  0  # atno 16461 bound_to 10935
    5.1635    7.2188   40.7981 LP  0  0  0  0  0  0  0  0  0  0  0  0  # atno 16462 bound_to 9816
    5.2743    9.7756   41.4559 LP  0  0  0  0  0  0  0  0  0  0  0  0  # atno 16463 bound_to 9871
    1.7040   12.4310   43.9221 LP  0  0  0  0  0  0  0  0  0  0  0  0  # atno 16464 bound_to 9874
    3.0224   13.4338   43.4162 LP  0  0  0  0  0  0  0  0  0  0  0  0  # atno 16465 bound_to 9874
    2.8455    9.9364   43.0724 LP  0  0  0  0  0  0  0  0  0  0  0  0  # atno 16466 bound_to 9907
    6.5065    9.6748   38.0616 LP  0  0  0  0  0  0  0  0  0  0  0  0  # atno 16467 bound_to 9762
    4.8030    9.3622   38.0765 LP  0  0  0  0  0  0  0  0  0  0  0  0  # atno 16468 bound_to 9762
    5.4862   12.0334   40.0650 LP  0  0  0  0  0  0  0  0  0  0  0  0  # atno 16469 bound_to 9876
    5.5902   13.6326   40.3789 LP  0  0  0  0  0  0  0  0  0  0  0  0  # atno 16470 bound_to 9876
   -4.8670   16.5521   29.7492 LP  0  0  0  0  0  0  0  0  0  0  0  0  # atno 16477 bound_to 10695
   -4.7459   17.6221   30.9769 LP  0  0  0  0  0  0  0  0  0  0  0  0  # atno 16478 bound_to 10695
    5.8527    6.1691   41.5412 LP  0  0  0  0  0  0  0  0  0  0  0  0  # atno 16495 bound_to 9617
    4.5525    5.0675   41.2314 LP  0  0  0  0  0  0  0  0  0  0  0  0  # atno 16496 bound_to 9617
    7.8556   10.4493   41.7290 LP  0  0  0  0  0  0  0  0  0  0  0  0  # atno 16497 bound_to 9705
    6.8151    9.7996   40.5061 LP  0  0  0  0  0  0  0  0  0  0  0  0  # atno 16498 bound_to 9705
    7.2118    6.8120   41.4269 LP  0  0  0  0  0  0  0  0  0  0  0  0  # atno 16499 bound_to 9759
    6.6020    1.0996   35.9303 LP  0  0  0  0  0  0  0  0  0  0  0  0  # atno 16500 bound_to 11530
    6.0824    2.7514   35.9696 LP  0  0  0  0  0  0  0  0  0  0  0  0  # atno 16501 bound_to 11530
    7.5274    4.0566   31.7945 LP  0  0  0  0  0  0  0  0  0  0  0  0  # atno 16504 bound_to 11361
    7.2285    2.6971   30.7639 LP  0  0  0  0  0  0  0  0  0  0  0  0  # atno 16505 bound_to 11361
    7.7383    1.3320   33.2861 LP  0  0  0  0  0  0  0  0  0  0  0  0  # atno 16508 bound_to 11587
   12.5863    8.6602   35.3396 LP  0  0  0  0  0  0  0  0  0  0  0  0  # atno 16509 bound_to 11538
   12.7827    8.5049   33.7260 LP  0  0  0  0  0  0  0  0  0  0  0  0  # atno 16510 bound_to 11538
   11.8593    3.9127   32.7746 LP  0  0  0  0  0  0  0  0  0  0  0  0  # atno 16511 bound_to 11318
   10.2411    3.9455   32.1580 LP  0  0  0  0  0  0  0  0  0  0  0  0  # atno 16512 bound_to 11318
   11.0562    4.9232   29.1083 LP  0  0  0  0  0  0  0  0  0  0  0  0  # atno 16513 bound_to 11358
    8.7842    3.6213   29.5947 LP  0  0  0  0  0  0  0  0  0  0  0  0  # atno 16514 bound_to 11416
    9.2699    2.0484   32.8598 LP  0  0  0  0  0  0  0  0  0  0  0  0  # atno 16515 bound_to 11527
    4.0724   -1.2794   34.1469 LP  0  0  0  0  0  0  0  0  0  0  0  0  # atno 16520 bound_to 11590
    4.9004   -0.7485   35.5726 LP  0  0  0  0  0  0  0  0  0  0  0  0  # atno 16521 bound_to 11590
    3.0528   -0.7171   37.5972 LP  0  0  0  0  0  0  0  0  0  0  0  0  # atno 16522 bound_to 11800
    2.8252   -1.0563   40.0415 LP  0  0  0  0  0  0  0  0  0  0  0  0  # atno 16523 bound_to 11756
    1.5698   -1.3238   38.8786 LP  0  0  0  0  0  0  0  0  0  0  0  0  # atno 16524 bound_to 11756
    7.8847    0.2304   32.0015 LP  0  0  0  0  0  0  0  0  0  0  0  0  # atno 16543 bound_to 11419
    8.7383   -1.0076   31.1421 LP  0  0  0  0  0  0  0  0  0  0  0  0  # atno 16544 bound_to 11419
    6.1448   -0.4441   34.0063 LP  0  0  0  0  0  0  0  0  0  0  0  0  # atno 16545 bound_to 11632
   10.9541    1.9492   30.8609 LP  0  0  0  0  0  0  0  0  0  0  0  0  # atno 16546 bound_to 11466
    8.5299   -0.0076   34.1140 LP  0  0  0  0  0  0  0  0  0  0  0  0  # atno 16547 bound_to 11469
    9.6618    0.3805   35.3662 LP  0  0  0  0  0  0  0  0  0  0  0  0  # atno 16548 bound_to 11469
    6.3698    0.5202   38.1906 LP  0  0  0  0  0  0  0  0  0  0  0  0  # atno 16549 bound_to 11753
    8.4816   -0.9599   35.7632 LP  0  0  0  0  0  0  0  0  0  0  0  0  # atno 16550 bound_to 11697
   -2.7095   11.3654   12.7838 LP  0  0  0  0  0  0  0  0  0  0  0  0  # atno 16565 bound_to 11526
   -3.4509   11.6137   11.3502 LP  0  0  0  0  0  0  0  0  0  0  0  0  # atno 16566 bound_to 11526
    5.0506   13.9787   14.0708 LP  0  0  0  0  0  0  0  0  0  0  0  0  # atno 16567 bound_to 9334
    4.7308   15.5800   14.0857 LP  0  0  0  0  0  0  0  0  0  0  0  0  # atno 16568 bound_to 9334
   11.5428    3.0896   29.4999 LP  0  0  0  0  0  0  0  0  0  0  0  0  # atno 16571 bound_to 11269
   12.7704    1.8834   29.3046 LP  0  0  0  0  0  0  0  0  0  0  0  0  # atno 16572 bound_to 11269
   16.3042    9.0411   18.2673 LP  0  0  0  0  0  0  0  0  0  0  0  0  # atno 16581 bound_to 15454
   15.1953    7.8981   18.6285 LP  0  0  0  0  0  0  0  0  0  0  0  0  # atno 16582 bound_to 15454
   17.2430   12.0187   24.6014 LP  0  0  0  0  0  0  0  0  0  0  0  0  # atno 16589 bound_to 5760
   16.3730   13.0573   25.5130 LP  0  0  0  0  0  0  0  0  0  0  0  0  # atno 16590 bound_to 5760
   14.6949    5.3676   10.8712 LP  0  0  0  0  0  0  0  0  0  0  0  0  # atno 16601 bound_to 1810
   16.2953    5.3682   11.1957 LP  0  0  0  0  0  0  0  0  0  0  0  0  # atno 16602 bound_to 1810
   15.5396   18.8271   15.4219 LP  0  0  0  0  0  0  0  0  0  0  0  0  # atno 16609 bound_to 8455
   15.0364   18.0434   14.0805 LP  0  0  0  0  0  0  0  0  0  0  0  0  # atno 16610 bound_to 8455
    6.9745    7.8818    9.5913 LP  0  0  0  0  0  0  0  0  0  0  0  0  # atno 16611 bound_to 1872
    5.8901    8.5349    8.5597 LP  0  0  0  0  0  0  0  0  0  0  0  0  # atno 16612 bound_to 1872
    4.7845   18.4552   22.5254 LP  0  0  0  0  0  0  0  0  0  0  0  0  # atno 16621 bound_to 9468
    4.5550   16.8385   22.5360 LP  0  0  0  0  0  0  0  0  0  0  0  0  # atno 16622 bound_to 9468

> <Gold.Score>
     Fitness  S(hb_ext) S(vdw_ext)  S(hb_int)    S(int)      intcor
     38.39       6.75      23.58       0.00      -0.79      -0.76

> <Gold.Goldscore.Fitness>
38.3911

> <Gold.Goldscore.Internal.Vdw>
-1.1488

> <Gold.Goldscore.Internal.Torsion>
-0.3959

> <Gold.Goldscore.External.Vdw>
23.5823

> <Gold.Goldscore.Internal.HBond>
0.0000

> <Gold.Goldscore.External.HBond>
6.7516

> <Gold.Goldscore.Internal.Correction>
-0.7585

> <Gold.Goldscore.Hbonds>
donor molecule, donor type, donor heavy atom, donor atom, acceptor molecule, acceptor atom, score
      P1  H  7713  7770       L1    17  0.03
      P1  H  1867  1886       L1    11  0.28
      L1  H     8    22       P1  7619  1.00

> <Gold.Goldscore.Internal.Vdw.Weighted>
-1.1488

> <Gold.Goldscore.Internal.Torsion.Weighted>
-0.3959

> <Gold.Goldscore.External.Vdw.Weighted>
32.4257

> <Gold.Goldscore.Internal.HBond.Weighted>
0.0000

> <Gold.Goldscore.External.HBond.Weighted>
6.7516

> <Gold.Goldscore.Internal.Correction.Weighted>
-0.7585

> <Gold.Rescore>
     Score     S(PLP)   S(hbond)     S(cho)   S(metal)  DE(clash)   DE(tors)     intcor
     30.13     -23.53       2.35       0.00       0.00       0.00       0.22       ----

> <Gold.PLP.Fitness>
30.1320

> <Gold.PLP.PLP>
-23.5308

> <Gold.PLP.part.hbond>
-4.4388

> <Gold.PLP.part.metal>
0.0000

> <Gold.PLP.part.buried>
1.8965

> <Gold.PLP.part.nonpolar>
-25.3585

> <Gold.PLP.part.repulsive>
6.3231

> <Gold.PLP.ligand.clash>
0.0000

> <Gold.PLP.ligand.torsion>
0.2236

> <Gold.PLP.Chemscore.Hbond>
2.3494

> <Gold.PLP.Chemscore.CHOScore>
0.0000

> <Gold.PLP.Chemscore.Metal>
0.0000

> <Gold.Chemscore.Hbonds>
donor molecule, donor type, donor heavy atom, donor atom, acceptor molecule, acceptor atom, score
      L1  H     8    22       P1  7619  0.71
      P1  H  7713  7770       L1    17  0.23
      P1  H  1867  1886       L1    11  1.00
      P1  H  7864  7898       L1     9  0.07

> <Gold.PLP.Chemscore.Internal.Correction>
   9.000000E+99

#       Name:                CT1002167954
#       Creating user name   hitesit
#       Creation time:       Sun Apr 16 22:53:26 2023


#       File generated by GOLD software.
#

@<TRIPOS>MOLECULE
CT1002167954|ligand_prepared|mol2|1|dock9
    29    30     1
SMALL
NO_CHARGES


@<TRIPOS>ATOM
      1 C1          13.5080  12.7335  14.2078 C.3            1 RES1               0.0000
      2 C2          13.9329  12.4966  12.7442 C.ar           1 RES1               0.0000
      3 C3          12.3469  13.7225  14.1621 C.2            1 RES1               0.0000
      4 C4          13.1385  11.3659  14.7716 C.2            1 RES1               0.0000
      5 C5          14.6262  13.3295  15.0943 C.3            1 RES1               0.0000
      6 C6          15.1413  11.8726  12.4493 C.ar           1 RES1               0.0000
      7 C7          13.1271  12.8932  11.6802 C.ar           1 RES1               0.0000
      8 N8          11.0952  13.2390  14.4057 N.am           1 RES1               0.0000
      9 O9          12.5221  14.9009  13.8778 O.2            1 RES1               0.0000
     10 N10         11.8317  11.1472  15.1210 N.am           1 RES1               0.0000
     11 O11         13.9640  10.4703  14.9008 O.2            1 RES1               0.0000
     12 C12         15.4215  14.4349  14.4177 C.3            1 RES1               0.0000
     13 C13         15.5290  11.6505  11.1383 C.ar           1 RES1               0.0000
     14 C14         13.5168  12.6703  10.3699 C.ar           1 RES1               0.0000
     15 C15         10.7874  12.0115  14.9349 C.2            1 RES1               0.0000
     16 C16         14.7170  12.0487  10.0979 C.ar           1 RES1               0.0000
     17 O17          9.6301  11.7219  15.2247 O.2            1 RES1               0.0000
     18 H18         14.1749  13.7293  16.0107 H              1 RES1               0.0000
     19 H19         15.3145  12.5254  15.3828 H              1 RES1               0.0000
     20 H20         15.7946  11.5544  13.2549 H              1 RES1               0.0000
     21 H21         12.1792  13.3850  11.8704 H              1 RES1               0.0000
     22 H22         10.3159  13.8463  14.1728 H              1 RES1               0.0000
     23 H23         11.6176  10.2577  15.5607 H              1 RES1               0.0000
     24 H24         16.1926  14.8179  15.0828 H              1 RES1               0.0000
     25 H25         15.9048  14.0657  13.5156 H              1 RES1               0.0000
     26 H26         14.7720  15.2625  14.1398 H              1 RES1               0.0000
     27 H27         16.4751  11.1621  10.9295 H              1 RES1               0.0000
     28 H28         12.8749  12.9860   9.5541 H              1 RES1               0.0000
     29 H29         15.0207  11.8743   9.0710 H              1 RES1               0.0000
@<TRIPOS>BOND
    1    1    2 1     
    2    1    3 1     
    3    1    4 1     
    4    1    5 1     
    5    2    6 ar    
    6    2    7 ar    
    7    3    8 1     
    8    3    9 2     
    9    4   10 1     
   10    4   11 2     
   11    5   12 1     
   12    5   18 1     
   13    5   19 1     
   14    6   13 ar    
   15    6   20 1     
   16    7   14 ar    
   17    7   21 1     
   18    8   15 1     
   19    8   22 1     
   20   10   15 1     
   21   10   23 1     
   22   12   24 1     
   23   12   25 1     
   24   12   26 1     
   25   13   16 ar    
   26   13   27 1     
   27   14   16 ar    
   28   14   28 1     
   29   15   17 2     
   30   16   29 1     
@<TRIPOS>SUBSTRUCTURE
      1 RES1           1
@<TRIPOS>SET
DONOR_HYDROGENS      STATIC     ATOMS    <user>   **** ""
2 22 23
ATOM$RED        STATIC     ATOMS    COLORGROUP SYSTEM
2 22 23
@<TRIPOS>COMMENT
> <Gold.Version>
2022.3.0

> <Gold.Id.Protein>
unknown|3mvj_clean|pdb

> <Gold.Protein.RotatedTorsions>
[ 9935 9915 9914 9913 ] final  160.34 input   59.98 | X-H torsion
[ 10984 10935 10934 10932 ] final -141.57 input   60.03 | X-H torsion
[ 9832 9816 9817 9818 ] final -169.91 input   89.09 | X-H torsion
[ 9883 9871 9872 9873 ] final  160.04 input -126.12 | X-H torsion
[ 9925 9907 9908 9909 ] final   73.70 input  109.17 | X-H torsion
[ 9887 9876 9875 9872 ] final  124.15 input   59.96 | X-H torsion
[ 10746 10695 10694 10692 ] final   37.12 input   59.99 | X-H torsion
[ 11686 11631 11630 11629 ] final    4.84 input   60.02 | X-H torsion
[ 9775 9759 9760 9761 ] final  -31.10 input  126.36 | X-H torsion
[ 11605 11587 11588 11589 ] final   63.06 input  114.14 | X-H torsion
[ 11559 11538 11537 11535 ] final  -67.24 input   60.01 | X-H torsion
[ 11374 11358 11359 11360 ] final   40.10 input   98.08 | X-H torsion
[ 11434 11416 11417 11418 ] final  -95.77 input  102.35 | X-H torsion
[ 11551 11527 11528 11529 ] final -164.98 input  127.83 | X-H torsion
[ 11812 11800 11801 11802 ] final   62.48 input  127.47 | X-H torsion
[ 11650 11632 11633 11634 ] final -110.59 input  113.96 | X-H torsion
[ 11482 11466 11467 11468 ] final  -72.32 input  126.08 | X-H torsion
[ 11767 11753 11754 11755 ] final  104.28 input  105.73 | X-H torsion
[ 11713 11697 11698 11699 ] final  -83.19 input  116.95 | X-H torsion
[ 11576 11526 11525 11523 ] final   87.82 input   60.00 | X-H torsion
[ 9362 9334 9332 9329 ] final  -69.08 input   60.01 | X-H torsion
[ 7768 7713 7712 7711 ] final  142.46 input   60.03 | X-H torsion
[ 15484 15454 15453 15451 ] final    7.27 input   59.98 | X-H torsion
[ 5787 5760 5759 5756 ] final -148.75 input   59.99 | X-H torsion
[ 1829 1810 1808 1805 ] final -178.68 input   60.00 | X-H torsion
[ 8490 8455 8453 8450 ] final   41.40 input   60.02 | X-H torsion
[ 1885 1872 1871 1868 ] final    1.40 input   59.98 | X-H torsion
[ 9510 9468 9467 9465 ] final  -31.34 input   60.02 | X-H torsion
[ 3466 3411 3410 3409 ] final  -15.86 input   59.97 | X-H torsion
[ 16458 9819 9818 9817 ] final  -96.11 input    0.00 | X-H torsion
[ 16464 9874 9873 9872 ] final  144.18 input    0.00 | X-H torsion
[ 16467 9762 9761 9760 ] final  100.19 input    0.00 | X-H torsion
[ 16495 9617 9616 9615 ] final   59.55 input    0.00 | X-H torsion
[ 16497 9705 9704 9703 ] final  156.28 input    0.00 | X-H torsion
[ 16500 11530 11529 11528 ] final  165.43 input    0.00 | X-H torsion
[ 16504 11361 11360 11359 ] final -117.36 input    0.00 | X-H torsion
[ 16511 11318 11317 11316 ] final  127.09 input    0.00 | X-H torsion
[ 16520 11590 11589 11588 ] final -173.30 input    0.00 | X-H torsion
[ 16523 11756 11755 11754 ] final   -5.67 input    0.00 | X-H torsion
[ 16543 11419 11418 11417 ] final   57.56 input   -0.00 | X-H torsion
[ 16547 11469 11468 11467 ] final    6.72 input    0.00 | X-H torsion
[ 16571 11269 11268 11267 ] final  167.89 input   -0.00 | X-H torsion

> <Gold.Protein.ActiveResidues>
 THR48   LEU49   GLY50   THR51   GLY52   SER53   PHE54   GLY55   ARG56   VAL57  
 LYS78   LYS81   LEU82   LYS83   GLN84   HIS87   GLU127  PHE129  SER130  LEU132 
 ARG133  ARG134  ILE135  GLY136  ARG137  ARG165  ASP166  LEU167  LYS168  PRO169 
 GLU170  ASN171  LEU172  LEU173  THR183  ASP184  GLY186  PHE187  TPO197  LEU198 
 CYS199  GLY200  THR201  PRO202  GLU203  TYR204  LEU205  PRO207  ILE209  ILE210 
 LEU211  SER212  LYS213  VAL226  LEU227  TYR229  GLU230  ALA233  GLY234  TYR235 
 PRO236  PRO237  PHE238  PHE239  ALA240  ASP241  GLN242  PRO243  ILE244  GLN245 
 ILE246  TYR247  GLU248  LYS249  ILE250  VAL251  SER252  ARG256  PHE257  PRO258 
 SER259  PHE327  ASP328  TYR330 

> <Gold.Protein.RotatedAtoms>
   15.4709    4.9596   11.2556 H   0  0  0  0  0  0  0  0  0  0  0  0  # atno 1829 bound_to 1810
    6.9846    7.9082    9.6162 H   0  0  0  0  0  0  0  0  0  0  0  0  # atno 1885 bound_to 1872
    1.2688   10.7016   -5.9533 H   0  0  0  0  0  0  0  0  0  0  0  0  # atno 3466 bound_to 3411
   -0.0020   11.5545   -6.5901 H   0  0  0  0  0  0  0  0  0  0  0  0  # atno 3467 bound_to 3411
    1.5031   12.2447   -6.5095 H   0  0  0  0  0  0  0  0  0  0  0  0  # atno 3468 bound_to 3411
   16.8957   12.2119   23.9286 H   0  0  0  0  0  0  0  0  0  0  0  0  # atno 5787 bound_to 5760
    6.8121   13.3781   13.9870 H   0  0  0  0  0  0  0  0  0  0  0  0  # atno 7768 bound_to 7713
    7.8134   12.6814   15.1090 H   0  0  0  0  0  0  0  0  0  0  0  0  # atno 7769 bound_to 7713
    6.2597   13.0851   15.5218 H   0  0  0  0  0  0  0  0  0  0  0  0  # atno 7770 bound_to 7713
   14.1588   18.7524   14.1709 H   0  0  0  0  0  0  0  0  0  0  0  0  # atno 8490 bound_to 8455
    4.5871   13.8280   13.4409 H   0  0  0  0  0  0  0  0  0  0  0  0  # atno 9362 bound_to 9334
    3.7746   16.9328   22.9602 H   0  0  0  0  0  0  0  0  0  0  0  0  # atno 9510 bound_to 9468
    7.4009    8.1721   41.4772 H   0  0  0  0  0  0  0  0  0  0  0  0  # atno 9775 bound_to 9759
    5.2480    7.1681   39.4743 H   0  0  0  0  0  0  0  0  0  0  0  0  # atno 9832 bound_to 9816
    4.8388   10.3318   40.4331 H   0  0  0  0  0  0  0  0  0  0  0  0  # atno 9883 bound_to 9871
    4.5476   12.8387   39.2376 H   0  0  0  0  0  0  0  0  0  0  0  0  # atno 9887 bound_to 9876
    3.9690    9.8415   43.8693 H   0  0  0  0  0  0  0  0  0  0  0  0  # atno 9925 bound_to 9907
   -1.4327    6.6952   41.9190 H   0  0  0  0  0  0  0  0  0  0  0  0  # atno 9935 bound_to 9915
   -2.1739    7.1597   43.3273 H   0  0  0  0  0  0  0  0  0  0  0  0  # atno 9936 bound_to 9915
   -0.9137    8.0499   42.7216 H   0  0  0  0  0  0  0  0  0  0  0  0  # atno 9937 bound_to 9915
   -3.6829   16.4672   30.9351 H   0  0  0  0  0  0  0  0  0  0  0  0  # atno 10746 bound_to 10695
   -2.1986   14.9711   34.1013 H   0  0  0  0  0  0  0  0  0  0  0  0  # atno 10984 bound_to 10935
   11.1175    4.4405   29.3297 H   0  0  0  0  0  0  0  0  0  0  0  0  # atno 11374 bound_to 11358
    8.8073    3.5978   29.9581 H   0  0  0  0  0  0  0  0  0  0  0  0  # atno 11434 bound_to 11416
    9.7717    0.6598   30.9422 H   0  0  0  0  0  0  0  0  0  0  0  0  # atno 11482 bound_to 11466
   10.4956    2.9074   33.7470 H   0  0  0  0  0  0  0  0  0  0  0  0  # atno 11551 bound_to 11527
   12.8104    8.3412   35.5166 H   0  0  0  0  0  0  0  0  0  0  0  0  # atno 11559 bound_to 11538
   -2.9728   10.3471   12.6456 H   0  0  0  0  0  0  0  0  0  0  0  0  # atno 11576 bound_to 11526
    7.7094    1.4115   32.9369 H   0  0  0  0  0  0  0  0  0  0  0  0  # atno 11605 bound_to 11587
    6.0551   -0.8122   33.2437 H   0  0  0  0  0  0  0  0  0  0  0  0  # atno 11650 bound_to 11632
   -7.8084    9.0824   25.9395 H   0  0  0  0  0  0  0  0  0  0  0  0  # atno 11686 bound_to 11631
   -9.0463    8.8941   27.0248 H   0  0  0  0  0  0  0  0  0  0  0  0  # atno 11687 bound_to 11631
   -8.9853    7.9472   25.6664 H   0  0  0  0  0  0  0  0  0  0  0  0  # atno 11688 bound_to 11631
    7.5670   -2.0731   36.1013 H   0  0  0  0  0  0  0  0  0  0  0  0  # atno 11713 bound_to 11697
    5.8047    0.5394   36.8910 H   0  0  0  0  0  0  0  0  0  0  0  0  # atno 11767 bound_to 11753
    4.3670   -1.6611   37.1574 H   0  0  0  0  0  0  0  0  0  0  0  0  # atno 11812 bound_to 11800
   16.3003    9.0334   18.2682 H   0  0  0  0  0  0  0  0  0  0  0  0  # atno 15484 bound_to 15454
    1.8569   10.7812   40.4382 LP  0  0  0  0  0  0  0  0  0  0  0  0  # atno 16458 bound_to 9819
    1.7082    9.6780   41.7651 LP  0  0  0  0  0  0  0  0  0  0  0  0  # atno 16459 bound_to 9819
   -3.2423   13.7548   33.8187 LP  0  0  0  0  0  0  0  0  0  0  0  0  # atno 16460 bound_to 10935
   -3.3597   15.1479   32.9749 LP  0  0  0  0  0  0  0  0  0  0  0  0  # atno 16461 bound_to 10935
    5.5786    8.2632   40.7939 LP  0  0  0  0  0  0  0  0  0  0  0  0  # atno 16462 bound_to 9816
    4.1494    9.4546   41.7790 LP  0  0  0  0  0  0  0  0  0  0  0  0  # atno 16463 bound_to 9871
    1.6781   12.4350   43.8516 LP  0  0  0  0  0  0  0  0  0  0  0  0  # atno 16464 bound_to 9874
    3.0483   13.4298   43.4868 LP  0  0  0  0  0  0  0  0  0  0  0  0  # atno 16465 bound_to 9874
    2.8631   10.9918   43.1561 LP  0  0  0  0  0  0  0  0  0  0  0  0  # atno 16466 bound_to 9907
    5.2642    8.9429   37.5532 LP  0  0  0  0  0  0  0  0  0  0  0  0  # atno 16467 bound_to 9762
    6.0453   10.0941   38.5850 LP  0  0  0  0  0  0  0  0  0  0  0  0  # atno 16468 bound_to 9762
    5.6365   12.1476   40.2299 LP  0  0  0  0  0  0  0  0  0  0  0  0  # atno 16469 bound_to 9876
    5.4321   13.7677   40.2390 LP  0  0  0  0  0  0  0  0  0  0  0  0  # atno 16470 bound_to 9876
   -4.7938   16.4726   29.7467 LP  0  0  0  0  0  0  0  0  0  0  0  0  # atno 16477 bound_to 10695
   -4.8223   17.6278   30.9004 LP  0  0  0  0  0  0  0  0  0  0  0  0  # atno 16478 bound_to 10695
    4.5977    5.0359   41.1742 LP  0  0  0  0  0  0  0  0  0  0  0  0  # atno 16495 bound_to 9617
    5.8074    6.2007   41.5984 LP  0  0  0  0  0  0  0  0  0  0  0  0  # atno 16496 bound_to 9617
    7.4990    9.9102   40.2946 LP  0  0  0  0  0  0  0  0  0  0  0  0  # atno 16497 bound_to 9705
    7.1717   10.3388   41.9405 LP  0  0  0  0  0  0  0  0  0  0  0  0  # atno 16498 bound_to 9705
    8.2187    6.6724   41.1010 LP  0  0  0  0  0  0  0  0  0  0  0  0  # atno 16499 bound_to 9759
    5.6633    1.6641   35.4801 LP  0  0  0  0  0  0  0  0  0  0  0  0  # atno 16500 bound_to 11530
    7.0211    2.1870   36.4198 LP  0  0  0  0  0  0  0  0  0  0  0  0  # atno 16501 bound_to 11530
    7.8304    2.7940   31.7327 LP  0  0  0  0  0  0  0  0  0  0  0  0  # atno 16504 bound_to 11361
    6.9256    3.9597   30.8257 LP  0  0  0  0  0  0  0  0  0  0  0  0  # atno 16505 bound_to 11361
    6.8054    2.6389   33.7977 LP  0  0  0  0  0  0  0  0  0  0  0  0  # atno 16508 bound_to 11587
   12.5644    8.7831   33.9701 LP  0  0  0  0  0  0  0  0  0  0  0  0  # atno 16509 bound_to 11538
   13.5032    7.4919   34.3140 LP  0  0  0  0  0  0  0  0  0  0  0  0  # atno 16510 bound_to 11538
   10.4888    4.5753   32.5978 LP  0  0  0  0  0  0  0  0  0  0  0  0  # atno 16511 bound_to 11318
   11.6115    3.2829   32.3348 LP  0  0  0  0  0  0  0  0  0  0  0  0  # atno 16512 bound_to 11318
   11.4569    5.6201   30.5608 LP  0  0  0  0  0  0  0  0  0  0  0  0  # atno 16513 bound_to 11358
   10.3685    3.0654   29.3844 LP  0  0  0  0  0  0  0  0  0  0  0  0  # atno 16514 bound_to 11416
    9.2855    1.9600   32.9237 LP  0  0  0  0  0  0  0  0  0  0  0  0  # atno 16515 bound_to 11527
    5.0071   -1.6521   35.1274 LP  0  0  0  0  0  0  0  0  0  0  0  0  # atno 16520 bound_to 11590
    3.9657   -0.3758   34.5921 LP  0  0  0  0  0  0  0  0  0  0  0  0  # atno 16521 bound_to 11590
    3.0001   -0.5720   37.1349 LP  0  0  0  0  0  0  0  0  0  0  0  0  # atno 16522 bound_to 11800
    2.5620   -0.5847   39.9607 LP  0  0  0  0  0  0  0  0  0  0  0  0  # atno 16523 bound_to 11756
    1.8329   -1.7953   38.9593 LP  0  0  0  0  0  0  0  0  0  0  0  0  # atno 16524 bound_to 11756
    8.3519   -0.8540   30.8426 LP  0  0  0  0  0  0  0  0  0  0  0  0  # atno 16543 bound_to 11419
    8.2711    0.0768   32.3010 LP  0  0  0  0  0  0  0  0  0  0  0  0  # atno 16544 bound_to 11419
    7.6316   -0.2937   33.7844 LP  0  0  0  0  0  0  0  0  0  0  0  0  # atno 16545 bound_to 11632
   10.9678    1.9362   30.8533 LP  0  0  0  0  0  0  0  0  0  0  0  0  # atno 16546 bound_to 11466
    9.6435   -0.4313   34.4784 LP  0  0  0  0  0  0  0  0  0  0  0  0  # atno 16547 bound_to 11469
    8.5482    0.8042   35.0018 LP  0  0  0  0  0  0  0  0  0  0  0  0  # atno 16548 bound_to 11469
    6.1997   -0.4735   38.2592 LP  0  0  0  0  0  0  0  0  0  0  0  0  # atno 16549 bound_to 11753
    7.7707   -0.3786   35.6910 LP  0  0  0  0  0  0  0  0  0  0  0  0  # atno 16550 bound_to 11697
   -2.9183   11.9170   12.2203 LP  0  0  0  0  0  0  0  0  0  0  0  0  # atno 16565 bound_to 11526
   -3.6504   10.8294   11.2468 LP  0  0  0  0  0  0  0  0  0  0  0  0  # atno 16566 bound_to 11526
    5.1321   14.9886   14.4434 LP  0  0  0  0  0  0  0  0  0  0  0  0  # atno 16567 bound_to 9334
    4.1074   15.3689   13.2301 LP  0  0  0  0  0  0  0  0  0  0  0  0  # atno 16568 bound_to 9334
   12.2961    2.8113   30.1928 LP  0  0  0  0  0  0  0  0  0  0  0  0  # atno 16571 bound_to 11269
   12.0170    2.1617   28.6116 LP  0  0  0  0  0  0  0  0  0  0  0  0  # atno 16572 bound_to 11269
   15.1918    7.8973   18.6257 LP  0  0  0  0  0  0  0  0  0  0  0  0  # atno 16581 bound_to 15454
   15.0673    8.7573   17.2432 LP  0  0  0  0  0  0  0  0  0  0  0  0  # atno 16582 bound_to 15454
   16.9363   12.5117   25.5273 LP  0  0  0  0  0  0  0  0  0  0  0  0  # atno 16589 bound_to 5760
   15.8949   13.3244   24.5673 LP  0  0  0  0  0  0  0  0  0  0  0  0  # atno 16590 bound_to 5760
   16.3753    6.2137   10.7473 LP  0  0  0  0  0  0  0  0  0  0  0  0  # atno 16601 bound_to 1810
   14.7719    6.1820   10.4393 LP  0  0  0  0  0  0  0  0  0  0  0  0  # atno 16602 bound_to 1810
   14.9673   19.2857   15.4784 LP  0  0  0  0  0  0  0  0  0  0  0  0  # atno 16609 bound_to 8455
   15.5816   18.0731   14.5735 LP  0  0  0  0  0  0  0  0  0  0  0  0  # atno 16610 bound_to 8455
    5.9019    8.5002    8.5555 LP  0  0  0  0  0  0  0  0  0  0  0  0  # atno 16611 bound_to 1872
    6.4428    9.4336    9.7814 LP  0  0  0  0  0  0  0  0  0  0  0  0  # atno 16612 bound_to 1872
    3.9217   18.5527   22.9976 LP  0  0  0  0  0  0  0  0  0  0  0  0  # atno 16621 bound_to 9468
    5.0857   17.6398   22.3058 LP  0  0  0  0  0  0  0  0  0  0  0  0  # atno 16622 bound_to 9468

> <Gold.Score>
     Fitness  S(hb_ext) S(vdw_ext)  S(hb_int)    S(int)      intcor
     36.61       6.04      24.42       0.00      -3.01      -0.76

> <Gold.Goldscore.Fitness>
36.6136

> <Gold.Goldscore.Internal.Vdw>
-2.9312

> <Gold.Goldscore.Internal.Torsion>
-0.8375

> <Gold.Goldscore.External.Vdw>
24.4239

> <Gold.Goldscore.Internal.HBond>
0.0000

> <Gold.Goldscore.External.HBond>
6.0411

> <Gold.Goldscore.Internal.Correction>
-0.7585

> <Gold.Goldscore.Hbonds>
donor molecule, donor type, donor heavy atom, donor atom, acceptor molecule, acceptor atom, score
      P1  H  7713  7769       L1    17  1.00
      P1  H  1804  1825       L1    11  0.02

> <Gold.Goldscore.Internal.Vdw.Weighted>
-2.9312

> <Gold.Goldscore.Internal.Torsion.Weighted>
-0.8375

> <Gold.Goldscore.External.Vdw.Weighted>
33.5828

> <Gold.Goldscore.Internal.HBond.Weighted>
0.0000

> <Gold.Goldscore.External.HBond.Weighted>
6.0411

> <Gold.Goldscore.Internal.Correction.Weighted>
-0.7585

> <Gold.Rescore>
     Score     S(PLP)   S(hbond)     S(cho)   S(metal)  DE(clash)   DE(tors)     intcor
     21.29     -21.63       0.51       0.00       0.00       1.26       0.31       ----

> <Gold.PLP.Fitness>
21.2921

> <Gold.PLP.PLP>
-21.6307

> <Gold.PLP.part.hbond>
-2.0000

> <Gold.PLP.part.metal>
0.0000

> <Gold.PLP.part.buried>
1.0874

> <Gold.PLP.part.nonpolar>
-26.7232

> <Gold.PLP.part.repulsive>
5.6365

> <Gold.PLP.ligand.clash>
1.2558

> <Gold.PLP.ligand.torsion>
0.3128

> <Gold.PLP.Chemscore.Hbond>
0.5143

> <Gold.PLP.Chemscore.CHOScore>
0.0000

> <Gold.PLP.Chemscore.Metal>
0.0000

> <Gold.Chemscore.Hbonds>
donor molecule, donor type, donor heavy atom, donor atom, acceptor molecule, acceptor atom, score
      P1  H  7713  7769       L1    17  1.00
      P1  H  1804  1825       L1    11  0.38

> <Gold.PLP.Chemscore.Internal.Correction>
   9.000000E+99

#       Name:                CT1002167954
#       Creating user name   hitesit
#       Creation time:       Sun Apr 16 22:53:22 2023


#       File generated by GOLD software.
#

@<TRIPOS>MOLECULE
CT1002167954|ligand_prepared|mol2|1|dock7
    29    30     1
SMALL
NO_CHARGES


@<TRIPOS>ATOM
      1 C1          13.3002  12.4652  13.9123 C.3            1 RES1               0.0000
      2 C2          13.7775  12.3201  12.4529 C.ar           1 RES1               0.0000
      3 C3          12.1553  11.4720  14.0894 C.2            1 RES1               0.0000
      4 C4          14.5142  12.1778  14.7888 C.2            1 RES1               0.0000
      5 C5          12.7821  13.8795  14.2626 C.3            1 RES1               0.0000
      6 C6          12.9975  12.7932  11.4019 C.ar           1 RES1               0.0000
      7 C7          14.9945  11.7191  12.1426 C.ar           1 RES1               0.0000
      8 N8          12.4043  10.3433  14.8132 N.am           1 RES1               0.0000
      9 O9          11.0623  11.6574  13.5686 O.2            1 RES1               0.0000
     10 N10         14.4822  11.0626  15.5845 N.am           1 RES1               0.0000
     11 O11         15.5050  12.8979  14.7851 O.2            1 RES1               0.0000
     12 C12         13.6691  15.0023  13.7481 C.3            1 RES1               0.0000
     13 C13         13.4200  12.6725  10.0885 C.ar           1 RES1               0.0000
     14 C14         15.4150  11.5991  10.8283 C.ar           1 RES1               0.0000
     15 C15         13.4949  10.1157  15.6135 C.2            1 RES1               0.0000
     16 C16         14.6291  12.0758   9.8008 C.ar           1 RES1               0.0000
     17 O17         13.5629   9.1112  16.3161 O.2            1 RES1               0.0000
     18 H18         11.7770  14.0020  13.8406 H              1 RES1               0.0000
     19 H19         12.7005  13.9657  15.3532 H              1 RES1               0.0000
     20 H20         12.0419  13.2634  11.6088 H              1 RES1               0.0000
     21 H21         15.6287  11.3358  12.9347 H              1 RES1               0.0000
     22 H22         11.7160   9.5996  14.7538 H              1 RES1               0.0000
     23 H23         15.2670  10.9258  16.2136 H              1 RES1               0.0000
     24 H24         13.2602  15.9728  14.0211 H              1 RES1               0.0000
     25 H25         14.6701  14.9262  14.1676 H              1 RES1               0.0000
     26 H26         13.7520  14.9623  12.6639 H              1 RES1               0.0000
     27 H27         12.7972  13.0480   9.2833 H              1 RES1               0.0000
     28 H28         16.3671  11.1283  10.6066 H              1 RES1               0.0000
     29 H29         14.9601  11.9817   8.7718 H              1 RES1               0.0000
@<TRIPOS>BOND
    1    1    2 1     
    2    1    3 1     
    3    1    4 1     
    4    1    5 1     
    5    2    6 ar    
    6    2    7 ar    
    7    3    8 1     
    8    3    9 2     
    9    4   10 1     
   10    4   11 2     
   11    5   12 1     
   12    5   18 1     
   13    5   19 1     
   14    6   13 ar    
   15    6   20 1     
   16    7   14 ar    
   17    7   21 1     
   18    8   15 1     
   19    8   22 1     
   20   10   15 1     
   21   10   23 1     
   22   12   24 1     
   23   12   25 1     
   24   12   26 1     
   25   13   16 ar    
   26   13   27 1     
   27   14   16 ar    
   28   14   28 1     
   29   15   17 2     
   30   16   29 1     
@<TRIPOS>SUBSTRUCTURE
      1 RES1           1
@<TRIPOS>SET
DONOR_HYDROGENS      STATIC     ATOMS    <user>   **** ""
2 22 23
ATOM$RED        STATIC     ATOMS    COLORGROUP SYSTEM
2 22 23
@<TRIPOS>COMMENT
> <Gold.Version>
2022.3.0

> <Gold.Id.Protein>
unknown|3mvj_clean|pdb

> <Gold.Protein.RotatedTorsions>
[ 9935 9915 9914 9913 ] final  112.50 input   59.98 | X-H torsion
[ 10984 10935 10934 10932 ] final  177.76 input   60.03 | X-H torsion
[ 9832 9816 9817 9818 ] final -117.68 input   89.09 | X-H torsion
[ 9883 9871 9872 9873 ] final   -0.11 input -126.12 | X-H torsion
[ 9925 9907 9908 9909 ] final  178.64 input  109.17 | X-H torsion
[ 9887 9876 9875 9872 ] final  167.61 input   59.96 | X-H torsion
[ 10746 10695 10694 10692 ] final  -83.51 input   59.99 | X-H torsion
[ 11686 11631 11630 11629 ] final  145.10 input   60.02 | X-H torsion
[ 9775 9759 9760 9761 ] final -145.80 input  126.36 | X-H torsion
[ 11605 11587 11588 11589 ] final  -96.45 input  114.14 | X-H torsion
[ 11559 11538 11537 11535 ] final  -64.97 input   60.01 | X-H torsion
[ 11374 11358 11359 11360 ] final  159.91 input   98.08 | X-H torsion
[ 11434 11416 11417 11418 ] final  -60.21 input  102.35 | X-H torsion
[ 11551 11527 11528 11529 ] final  111.66 input  127.83 | X-H torsion
[ 11812 11800 11801 11802 ] final  101.57 input  127.47 | X-H torsion
[ 11650 11632 11633 11634 ] final   75.74 input  113.96 | X-H torsion
[ 11482 11466 11467 11468 ] final  123.18 input  126.08 | X-H torsion
[ 11767 11753 11754 11755 ] final  -17.01 input  105.73 | X-H torsion
[ 11713 11697 11698 11699 ] final -138.25 input  116.95 | X-H torsion
[ 11576 11526 11525 11523 ] final  -53.12 input   60.00 | X-H torsion
[ 9362 9334 9332 9329 ] final -133.91 input   60.01 | X-H torsion
[ 7768 7713 7712 7711 ] final  152.10 input   60.03 | X-H torsion
[ 15484 15454 15453 15451 ] final  143.38 input   59.98 | X-H torsion
[ 5787 5760 5759 5756 ] final  -45.55 input   59.99 | X-H torsion
[ 1829 1810 1808 1805 ] final  -55.07 input   60.00 | X-H torsion
[ 8490 8455 8453 8450 ] final   37.84 input   60.02 | X-H torsion
[ 1885 1872 1871 1868 ] final   35.12 input   59.98 | X-H torsion
[ 9510 9468 9467 9465 ] final   39.53 input   60.02 | X-H torsion
[ 3466 3411 3410 3409 ] final   98.41 input   59.97 | X-H torsion
[ 16458 9819 9818 9817 ] final  -76.79 input    0.00 | X-H torsion
[ 16464 9874 9873 9872 ] final  -30.20 input    0.00 | X-H torsion
[ 16467 9762 9761 9760 ] final   37.49 input    0.00 | X-H torsion
[ 16495 9617 9616 9615 ] final -119.36 input    0.00 | X-H torsion
[ 16497 9705 9704 9703 ] final  -15.78 input    0.00 | X-H torsion
[ 16500 11530 11529 11528 ] final  -96.05 input    0.00 | X-H torsion
[ 16504 11361 11360 11359 ] final  171.35 input    0.00 | X-H torsion
[ 16511 11318 11317 11316 ] final   59.48 input    0.00 | X-H torsion
[ 16520 11590 11589 11588 ] final  123.89 input    0.00 | X-H torsion
[ 16523 11756 11755 11754 ] final   57.83 input    0.00 | X-H torsion
[ 16543 11419 11418 11417 ] final   56.18 input   -0.00 | X-H torsion
[ 16547 11469 11468 11467 ] final   54.56 input    0.00 | X-H torsion
[ 16571 11269 11268 11267 ] final  126.20 input   -0.00 | X-H torsion

> <Gold.Protein.ActiveResidues>
 THR48   LEU49   GLY50   THR51   GLY52   SER53   PHE54   GLY55   ARG56   VAL57  
 LYS78   LYS81   LEU82   LYS83   GLN84   HIS87   GLU127  PHE129  SER130  LEU132 
 ARG133  ARG134  ILE135  GLY136  ARG137  ARG165  ASP166  LEU167  LYS168  PRO169 
 GLU170  ASN171  LEU172  LEU173  THR183  ASP184  GLY186  PHE187  TPO197  LEU198 
 CYS199  GLY200  THR201  PRO202  GLU203  TYR204  LEU205  PRO207  ILE209  ILE210 
 LEU211  SER212  LYS213  VAL226  LEU227  TYR229  GLU230  ALA233  GLY234  TYR235 
 PRO236  PRO237  PHE238  PHE239  ALA240  ASP241  GLN242  PRO243  ILE244  GLN245 
 ILE246  TYR247  GLU248  LYS249  ILE250  VAL251  SER252  ARG256  PHE257  PRO258 
 SER259  PHE327  ASP328  TYR330 

> <Gold.Protein.RotatedAtoms>
   14.8108    6.2253   10.4261 H   0  0  0  0  0  0  0  0  0  0  0  0  # atno 1829 bound_to 1810
    7.0660    8.3237    9.9561 H   0  0  0  0  0  0  0  0  0  0  0  0  # atno 1885 bound_to 1872
   -0.0102   11.4648   -6.5573 H   0  0  0  0  0  0  0  0  0  0  0  0  # atno 3466 bound_to 3411
    1.4269   12.2909   -6.5453 H   0  0  0  0  0  0  0  0  0  0  0  0  # atno 3467 bound_to 3411
    1.3534   10.7454   -5.9504 H   0  0  0  0  0  0  0  0  0  0  0  0  # atno 3468 bound_to 3411
   15.9208   13.2408   24.3071 H   0  0  0  0  0  0  0  0  0  0  0  0  # atno 5787 bound_to 5760
    6.9644   13.3344   13.9596 H   0  0  0  0  0  0  0  0  0  0  0  0  # atno 7768 bound_to 7713
    7.7480   12.6583   15.2541 H   0  0  0  0  0  0  0  0  0  0  0  0  # atno 7769 bound_to 7713
    6.1728   13.1520   15.4041 H   0  0  0  0  0  0  0  0  0  0  0  0  # atno 7770 bound_to 7713
   14.1383   18.7954   14.2042 H   0  0  0  0  0  0  0  0  0  0  0  0  # atno 8490 bound_to 8455
    5.1306   14.1467   14.2226 H   0  0  0  0  0  0  0  0  0  0  0  0  # atno 9362 bound_to 9334
    4.7302   16.9588   22.4465 H   0  0  0  0  0  0  0  0  0  0  0  0  # atno 9510 bound_to 9468
    8.6579    7.5045   41.0269 H   0  0  0  0  0  0  0  0  0  0  0  0  # atno 9775 bound_to 9759
    5.5384    7.8609   39.2788 H   0  0  0  0  0  0  0  0  0  0  0  0  # atno 9832 bound_to 9816
    3.8859    9.5133   41.6431 H   0  0  0  0  0  0  0  0  0  0  0  0  # atno 9883 bound_to 9871
    4.6466   13.4993   39.4232 H   0  0  0  0  0  0  0  0  0  0  0  0  # atno 9887 bound_to 9876
    2.8235    9.9317   43.0643 H   0  0  0  0  0  0  0  0  0  0  0  0  # atno 9925 bound_to 9907
   -0.9175    7.2754   41.9023 H   0  0  0  0  0  0  0  0  0  0  0  0  # atno 9935 bound_to 9915
   -2.1769    6.6270   42.7635 H   0  0  0  0  0  0  0  0  0  0  0  0  # atno 9936 bound_to 9915
   -1.4260    8.0027   43.3027 H   0  0  0  0  0  0  0  0  0  0  0  0  # atno 9937 bound_to 9915
   -4.7968   16.4842   29.7512 H   0  0  0  0  0  0  0  0  0  0  0  0  # atno 10746 bound_to 10695
   -2.3317   14.3668   34.3032 H   0  0  0  0  0  0  0  0  0  0  0  0  # atno 10984 bound_to 10935
   11.3143    5.8690   29.7368 H   0  0  0  0  0  0  0  0  0  0  0  0  # atno 11374 bound_to 11358
    9.1054    3.4698   30.3876 H   0  0  0  0  0  0  0  0  0  0  0  0  # atno 11434 bound_to 11416
   11.1324    1.7755   30.7866 H   0  0  0  0  0  0  0  0  0  0  0  0  # atno 11482 bound_to 11466
    9.8017    3.1530   32.8448 H   0  0  0  0  0  0  0  0  0  0  0  0  # atno 11551 bound_to 11527
   12.8319    8.3117   35.5237 H   0  0  0  0  0  0  0  0  0  0  0  0  # atno 11559 bound_to 11538
   -3.0783   11.9527   11.9207 H   0  0  0  0  0  0  0  0  0  0  0  0  # atno 11576 bound_to 11526
    6.8625    2.4640   34.0511 H   0  0  0  0  0  0  0  0  0  0  0  0  # atno 11605 bound_to 11587
    7.6785   -0.3198   33.7029 H   0  0  0  0  0  0  0  0  0  0  0  0  # atno 11650 bound_to 11632
   -9.2553    8.6515   26.9203 H   0  0  0  0  0  0  0  0  0  0  0  0  # atno 11686 bound_to 11631
   -8.7147    8.0282   25.4833 H   0  0  0  0  0  0  0  0  0  0  0  0  # atno 11687 bound_to 11631
   -7.8705    9.2442   26.2277 H   0  0  0  0  0  0  0  0  0  0  0  0  # atno 11688 bound_to 11631
    8.3424   -1.7952   35.9914 H   0  0  0  0  0  0  0  0  0  0  0  0  # atno 11713 bound_to 11697
    5.8258   -0.8388   37.5804 H   0  0  0  0  0  0  0  0  0  0  0  0  # atno 11767 bound_to 11753
    4.2775   -1.4671   36.6055 H   0  0  0  0  0  0  0  0  0  0  0  0  # atno 11812 bound_to 11800
   14.9129    8.5652   17.3355 H   0  0  0  0  0  0  0  0  0  0  0  0  # atno 15484 bound_to 15454
    1.7556   10.5482   40.2968 LP  0  0  0  0  0  0  0  0  0  0  0  0  # atno 16458 bound_to 9819
    1.8095    9.9110   41.9065 LP  0  0  0  0  0  0  0  0  0  0  0  0  # atno 16459 bound_to 9819
   -3.6057   14.0306   33.3482 LP  0  0  0  0  0  0  0  0  0  0  0  0  # atno 16460 bound_to 10935
   -2.8624   15.4807   33.2421 LP  0  0  0  0  0  0  0  0  0  0  0  0  # atno 16461 bound_to 10935
    5.2937    7.5838   40.9857 LP  0  0  0  0  0  0  0  0  0  0  0  0  # atno 16462 bound_to 9816
    5.0781   10.2523   40.5997 LP  0  0  0  0  0  0  0  0  0  0  0  0  # atno 16463 bound_to 9871
    3.0187   13.4341   43.4072 LP  0  0  0  0  0  0  0  0  0  0  0  0  # atno 16464 bound_to 9874
    1.7077   12.4307   43.9311 LP  0  0  0  0  0  0  0  0  0  0  0  0  # atno 16465 bound_to 9874
    3.9812   10.9037   43.9419 LP  0  0  0  0  0  0  0  0  0  0  0  0  # atno 16466 bound_to 9907
    6.1543    9.0776   37.5158 LP  0  0  0  0  0  0  0  0  0  0  0  0  # atno 16467 bound_to 9762
    5.1552    9.9594   38.6223 LP  0  0  0  0  0  0  0  0  0  0  0  0  # atno 16468 bound_to 9762
    5.1657   11.9897   39.7393 LP  0  0  0  0  0  0  0  0  0  0  0  0  # atno 16469 bound_to 9876
    5.8033   13.2604   40.5427 LP  0  0  0  0  0  0  0  0  0  0  0  0  # atno 16470 bound_to 9876
   -4.8150   17.6277   30.9081 LP  0  0  0  0  0  0  0  0  0  0  0  0  # atno 16477 bound_to 10695
   -3.6784   16.4555   30.9322 LP  0  0  0  0  0  0  0  0  0  0  0  0  # atno 16478 bound_to 10695
    5.8172    6.1945   41.5867 LP  0  0  0  0  0  0  0  0  0  0  0  0  # atno 16495 bound_to 9617
    4.5879    5.0421   41.1860 LP  0  0  0  0  0  0  0  0  0  0  0  0  # atno 16496 bound_to 9617
    7.2873   10.3704   41.9465 LP  0  0  0  0  0  0  0  0  0  0  0  0  # atno 16497 bound_to 9705
    7.3834    9.8785   40.2886 LP  0  0  0  0  0  0  0  0  0  0  0  0  # atno 16498 bound_to 9705
    6.9956    7.3219   41.5392 LP  0  0  0  0  0  0  0  0  0  0  0  0  # atno 16499 bound_to 9759
    6.7440    1.1626   36.0304 LP  0  0  0  0  0  0  0  0  0  0  0  0  # atno 16500 bound_to 11530
    5.9404    2.6885   35.8695 LP  0  0  0  0  0  0  0  0  0  0  0  0  # atno 16501 bound_to 11530
    7.3257    2.6113   30.8778 LP  0  0  0  0  0  0  0  0  0  0  0  0  # atno 16504 bound_to 11361
    7.4302    4.1424   31.6806 LP  0  0  0  0  0  0  0  0  0  0  0  0  # atno 16505 bound_to 11361
    7.6248    1.6207   32.7198 LP  0  0  0  0  0  0  0  0  0  0  0  0  # atno 16508 bound_to 11587
   12.5489    8.8021   33.9983 LP  0  0  0  0  0  0  0  0  0  0  0  0  # atno 16509 bound_to 11538
   13.4971    7.5026   34.2787 LP  0  0  0  0  0  0  0  0  0  0  0  0  # atno 16510 bound_to 11538
   11.3875    4.5667   32.9454 LP  0  0  0  0  0  0  0  0  0  0  0  0  # atno 16511 bound_to 11318
   10.7129    3.2914   31.9871 LP  0  0  0  0  0  0  0  0  0  0  0  0  # atno 16512 bound_to 11318
   11.2587    4.1814   30.1508 LP  0  0  0  0  0  0  0  0  0  0  0  0  # atno 16513 bound_to 11358
   10.0759    3.1910   28.9628 LP  0  0  0  0  0  0  0  0  0  0  0  0  # atno 16514 bound_to 11416
    9.9733    1.7166   33.8179 LP  0  0  0  0  0  0  0  0  0  0  0  0  # atno 16515 bound_to 11527
    4.4905   -1.7434   34.3930 LP  0  0  0  0  0  0  0  0  0  0  0  0  # atno 16520 bound_to 11590
    4.4824   -0.2845   35.3265 LP  0  0  0  0  0  0  0  0  0  0  0  0  # atno 16521 bound_to 11590
    3.0874   -0.7614   37.6735 LP  0  0  0  0  0  0  0  0  0  0  0  0  # atno 16522 bound_to 11800
    1.8581   -0.3946   39.4138 LP  0  0  0  0  0  0  0  0  0  0  0  0  # atno 16523 bound_to 11756
    2.5368   -1.9854   39.5062 LP  0  0  0  0  0  0  0  0  0  0  0  0  # atno 16524 bound_to 11756
    8.3351   -0.8439   30.8355 LP  0  0  0  0  0  0  0  0  0  0  0  0  # atno 16543 bound_to 11419
    8.2879    0.0667   32.3081 LP  0  0  0  0  0  0  0  0  0  0  0  0  # atno 16544 bound_to 11419
    6.0354   -0.7779   33.3329 LP  0  0  0  0  0  0  0  0  0  0  0  0  # atno 16545 bound_to 11632
    9.6552    0.8598   31.0033 LP  0  0  0  0  0  0  0  0  0  0  0  0  # atno 16546 bound_to 11466
    9.8690   -0.0682   35.0357 LP  0  0  0  0  0  0  0  0  0  0  0  0  # atno 16547 bound_to 11469
    8.3227    0.4412   34.4446 LP  0  0  0  0  0  0  0  0  0  0  0  0  # atno 16548 bound_to 11469
    6.1792    0.8726   37.5860 LP  0  0  0  0  0  0  0  0  0  0  0  0  # atno 16549 bound_to 11753
    7.0324   -0.6433   35.7956 LP  0  0  0  0  0  0  0  0  0  0  0  0  # atno 16550 bound_to 11697
   -3.6300   10.5175   11.3876 LP  0  0  0  0  0  0  0  0  0  0  0  0  # atno 16565 bound_to 11526
   -2.8326   10.6118   12.8095 LP  0  0  0  0  0  0  0  0  0  0  0  0  # atno 16566 bound_to 11526
    4.5802   15.6461   13.9100 LP  0  0  0  0  0  0  0  0  0  0  0  0  # atno 16567 bound_to 9334
    4.1123   14.3906   12.9766 LP  0  0  0  0  0  0  0  0  0  0  0  0  # atno 16568 bound_to 9334
   12.7064    2.3705   30.0612 LP  0  0  0  0  0  0  0  0  0  0  0  0  # atno 16571 bound_to 11269
   11.6067    2.6025   28.7433 LP  0  0  0  0  0  0  0  0  0  0  0  0  # atno 16572 bound_to 11269
   16.2539    9.1578   18.0409 LP  0  0  0  0  0  0  0  0  0  0  0  0  # atno 16581 bound_to 15454
   15.4029    7.9686   18.7676 LP  0  0  0  0  0  0  0  0  0  0  0  0  # atno 16582 bound_to 15454
   17.0599   12.0949   24.1149 LP  0  0  0  0  0  0  0  0  0  0  0  0  # atno 16589 bound_to 5760
   16.7532   12.7049   25.5983 LP  0  0  0  0  0  0  0  0  0  0  0  0  # atno 16590 bound_to 5760
   15.4127    4.9536   11.2444 LP  0  0  0  0  0  0  0  0  0  0  0  0  # atno 16601 bound_to 1810
   16.3991    6.1682   10.7771 LP  0  0  0  0  0  0  0  0  0  0  0  0  # atno 16602 bound_to 1810
   15.0184   19.2603   15.4916 LP  0  0  0  0  0  0  0  0  0  0  0  0  # atno 16609 bound_to 8455
   15.5511   18.0552   14.5268 LP  0  0  0  0  0  0  0  0  0  0  0  0  # atno 16610 bound_to 8455
    6.1676    8.0283    8.6319 LP  0  0  0  0  0  0  0  0  0  0  0  0  # atno 16611 bound_to 1872
    6.0951    9.4869    9.3626 LP  0  0  0  0  0  0  0  0  0  0  0  0  # atno 16612 bound_to 1872
    3.4329   17.5949   23.1943 LP  0  0  0  0  0  0  0  0  0  0  0  0  # atno 16621 bound_to 9468
    4.6121   18.5714   22.6265 LP  0  0  0  0  0  0  0  0  0  0  0  0  # atno 16622 bound_to 9468

> <Gold.Score>
     Fitness  S(hb_ext) S(vdw_ext)  S(hb_int)    S(int)      intcor
     35.03       2.12      26.21       0.00      -3.12      -0.76

> <Gold.Goldscore.Fitness>
35.0319

> <Gold.Goldscore.Internal.Vdw>
-3.1659

> <Gold.Goldscore.Internal.Torsion>
-0.7155

> <Gold.Goldscore.External.Vdw>
26.2062

> <Gold.Goldscore.Internal.HBond>
0.0000

> <Gold.Goldscore.External.HBond>
2.1212

> <Gold.Goldscore.Internal.Correction>
-0.7585

> <Gold.Goldscore.Hbonds>
donor molecule, donor type, donor heavy atom, donor atom, acceptor molecule, acceptor atom, score
      P1  H 15454 15484       L1    17  1.00
      P1  H  1804  1825       L1    17  0.06

> <Gold.Goldscore.Internal.Vdw.Weighted>
-3.1659

> <Gold.Goldscore.Internal.Torsion.Weighted>
-0.7155

> <Gold.Goldscore.External.Vdw.Weighted>
36.0335

> <Gold.Goldscore.Internal.HBond.Weighted>
0.0000

> <Gold.Goldscore.External.HBond.Weighted>
2.1212

> <Gold.Goldscore.Internal.Correction.Weighted>
-0.7585

> <Gold.Rescore>
     Score     S(PLP)   S(hbond)     S(cho)   S(metal)  DE(clash)   DE(tors)     intcor
     36.54     -34.66       1.15       0.00       0.00       1.35       0.12       ----

> <Gold.PLP.Fitness>
36.5439

> <Gold.PLP.PLP>
-34.6598

> <Gold.PLP.part.hbond>
-3.0000

> <Gold.PLP.part.metal>
0.0000

> <Gold.PLP.part.buried>
-2.4855

> <Gold.PLP.part.nonpolar>
-30.3970

> <Gold.PLP.part.repulsive>
0.5591

> <Gold.PLP.ligand.clash>
1.3477

> <Gold.PLP.ligand.torsion>
0.1157

> <Gold.PLP.Chemscore.Hbond>
1.1544

> <Gold.PLP.Chemscore.CHOScore>
0.0000

> <Gold.PLP.Chemscore.Metal>
0.0000

> <Gold.Chemscore.Hbonds>
donor molecule, donor type, donor heavy atom, donor atom, acceptor molecule, acceptor atom, score
      P1  H 15454 15484       L1    17  1.00

> <Gold.PLP.Chemscore.Internal.Correction>
   9.000000E+99

#       Name:                CT1002167954
#       Creating user name   hitesit
#       Creation time:       Sun Apr 16 22:53:09 2023


#       File generated by GOLD software.
#

@<TRIPOS>MOLECULE
CT1002167954|ligand_prepared|mol2|1|dock1
    29    30     1
SMALL
NO_CHARGES


@<TRIPOS>ATOM
      1 C1          10.1481  13.4881   9.9778 C.3            1 RES1               0.0000
      2 C2          11.4657  13.0002  10.6138 C.ar           1 RES1               0.0000
      3 C3           9.3232  12.2375   9.6884 C.2            1 RES1               0.0000
      4 C4           9.5104  14.4335  10.9898 C.2            1 RES1               0.0000
      5 C5          10.3429  14.2650   8.6549 C.3            1 RES1               0.0000
      6 C6          11.5379  12.7328  11.9776 C.ar           1 RES1               0.0000
      7 C7          12.6147  12.8106   9.8505 C.ar           1 RES1               0.0000
      8 N8           8.2531  11.9856  10.4955 N.am           1 RES1               0.0000
      9 O9           9.6303  11.4631   8.7905 O.2            1 RES1               0.0000
     10 N10          8.3240  14.0560  11.5624 N.am           1 RES1               0.0000
     11 O11         10.0329  15.4944  11.3089 O.2            1 RES1               0.0000
     12 C12          9.1290  15.0806   8.2384 C.3            1 RES1               0.0000
     13 C13         12.7151  12.2891  12.5569 C.ar           1 RES1               0.0000
     14 C14         13.7910  12.3671  10.4319 C.ar           1 RES1               0.0000
     15 C15          7.6821  12.8608  11.3841 C.2            1 RES1               0.0000
     16 C16         13.8422  12.1055  11.7846 C.ar           1 RES1               0.0000
     17 O17          6.6463  12.5721  11.9764 O.2            1 RES1               0.0000
     18 H18         11.2008  14.9397   8.7648 H              1 RES1               0.0000
     19 H19         10.5786  13.5501   7.8570 H              1 RES1               0.0000
     20 H20         10.6618  12.8737  12.6018 H              1 RES1               0.0000
     21 H21         12.5980  13.0111   8.7846 H              1 RES1               0.0000
     22 H22          7.8393  11.0608  10.4328 H              1 RES1               0.0000
     23 H23          7.8781  14.7282  12.1785 H              1 RES1               0.0000
     24 H24          9.3190  15.6055   7.3046 H              1 RES1               0.0000
     25 H25          8.2629  14.4378   8.0957 H              1 RES1               0.0000
     26 H26          8.8814  15.8192   8.9981 H              1 RES1               0.0000
     27 H27         12.7505  12.0859  13.6222 H              1 RES1               0.0000
     28 H28         14.6757  12.2246   9.8203 H              1 RES1               0.0000
     29 H29         14.7641  11.7575  12.2386 H              1 RES1               0.0000
@<TRIPOS>BOND
    1    1    2 1     
    2    1    3 1     
    3    1    4 1     
    4    1    5 1     
    5    2    6 ar    
    6    2    7 ar    
    7    3    8 1     
    8    3    9 2     
    9    4   10 1     
   10    4   11 2     
   11    5   12 1     
   12    5   18 1     
   13    5   19 1     
   14    6   13 ar    
   15    6   20 1     
   16    7   14 ar    
   17    7   21 1     
   18    8   15 1     
   19    8   22 1     
   20   10   15 1     
   21   10   23 1     
   22   12   24 1     
   23   12   25 1     
   24   12   26 1     
   25   13   16 ar    
   26   13   27 1     
   27   14   16 ar    
   28   14   28 1     
   29   15   17 2     
   30   16   29 1     
@<TRIPOS>SUBSTRUCTURE
      1 RES1           1
@<TRIPOS>SET
DONOR_HYDROGENS      STATIC     ATOMS    <user>   **** ""
2 22 23
ATOM$RED        STATIC     ATOMS    COLORGROUP SYSTEM
2 22 23
@<TRIPOS>COMMENT
> <Gold.Version>
2022.3.0

> <Gold.Id.Protein>
unknown|3mvj_clean|pdb

> <Gold.Protein.RotatedTorsions>
[ 9935 9915 9914 9913 ] final   26.88 input   59.98 | X-H torsion
[ 10984 10935 10934 10932 ] final   49.62 input   60.03 | X-H torsion
[ 9832 9816 9817 9818 ] final  -77.47 input   89.09 | X-H torsion
[ 9883 9871 9872 9873 ] final   90.97 input -126.12 | X-H torsion
[ 9925 9907 9908 9909 ] final  126.61 input  109.17 | X-H torsion
[ 9887 9876 9875 9872 ] final  105.67 input   59.96 | X-H torsion
[ 10746 10695 10694 10692 ] final  -87.19 input   59.99 | X-H torsion
[ 11686 11631 11630 11629 ] final -135.05 input   60.02 | X-H torsion
[ 9775 9759 9760 9761 ] final  -22.48 input  126.36 | X-H torsion
[ 11605 11587 11588 11589 ] final  -24.62 input  114.14 | X-H torsion
[ 11559 11538 11537 11535 ] final   80.11 input   60.01 | X-H torsion
[ 11374 11358 11359 11360 ] final  121.50 input   98.08 | X-H torsion
[ 11434 11416 11417 11418 ] final  -10.50 input  102.35 | X-H torsion
[ 11551 11527 11528 11529 ] final  -56.01 input  127.83 | X-H torsion
[ 11812 11800 11801 11802 ] final   12.92 input  127.47 | X-H torsion
[ 11650 11632 11633 11634 ] final  -71.77 input  113.96 | X-H torsion
[ 11482 11466 11467 11468 ] final -126.02 input  126.08 | X-H torsion
[ 11767 11753 11754 11755 ] final  176.10 input  105.73 | X-H torsion
[ 11713 11697 11698 11699 ] final   66.42 input  116.95 | X-H torsion
[ 11576 11526 11525 11523 ] final   -2.00 input   60.00 | X-H torsion
[ 9362 9334 9332 9329 ] final  150.95 input   60.01 | X-H torsion
[ 7768 7713 7712 7711 ] final   44.43 input   60.03 | X-H torsion
[ 15484 15454 15453 15451 ] final   71.02 input   59.98 | X-H torsion
[ 5787 5760 5759 5756 ] final  -50.12 input   59.99 | X-H torsion
[ 1829 1810 1808 1805 ] final  178.02 input   60.00 | X-H torsion
[ 8490 8455 8453 8450 ] final  -96.28 input   60.02 | X-H torsion
[ 1885 1872 1871 1868 ] final  167.05 input   59.98 | X-H torsion
[ 9510 9468 9467 9465 ] final    4.56 input   60.02 | X-H torsion
[ 3466 3411 3410 3409 ] final -128.84 input   59.97 | X-H torsion
[ 16458 9819 9818 9817 ] final    9.44 input    0.00 | X-H torsion
[ 16464 9874 9873 9872 ] final   36.13 input    0.00 | X-H torsion
[ 16467 9762 9761 9760 ] final  -49.10 input    0.00 | X-H torsion
[ 16495 9617 9616 9615 ] final -177.40 input    0.00 | X-H torsion
[ 16497 9705 9704 9703 ] final  103.90 input    0.00 | X-H torsion
[ 16500 11530 11529 11528 ] final   24.91 input    0.00 | X-H torsion
[ 16504 11361 11360 11359 ] final    3.33 input    0.00 | X-H torsion
[ 16511 11318 11317 11316 ] final -158.04 input    0.00 | X-H torsion
[ 16520 11590 11589 11588 ] final  -73.94 input    0.00 | X-H torsion
[ 16523 11756 11755 11754 ] final   -2.17 input    0.00 | X-H torsion
[ 16543 11419 11418 11417 ] final  -21.95 input   -0.00 | X-H torsion
[ 16547 11469 11468 11467 ] final -138.84 input    0.00 | X-H torsion
[ 16571 11269 11268 11267 ] final  159.16 input   -0.00 | X-H torsion

> <Gold.Protein.ActiveResidues>
 THR48   LEU49   GLY50   THR51   GLY52   SER53   PHE54   GLY55   ARG56   VAL57  
 LYS78   LYS81   LEU82   LYS83   GLN84   HIS87   GLU127  PHE129  SER130  LEU132 
 ARG133  ARG134  ILE135  GLY136  ARG137  ARG165  ASP166  LEU167  LYS168  PRO169 
 GLU170  ASN171  LEU172  LEU173  THR183  ASP184  GLY186  PHE187  TPO197  LEU198 
 CYS199  GLY200  THR201  PRO202  GLU203  TYR204  LEU205  PRO207  ILE209  ILE210 
 LEU211  SER212  LYS213  VAL226  LEU227  TYR229  GLU230  ALA233  GLY234  TYR235 
 PRO236  PRO237  PHE238  PHE239  ALA240  ASP241  GLN242  PRO243  ILE244  GLN245 
 ILE246  TYR247  GLU248  LYS249  ILE250  VAL251  SER252  ARG256  PHE257  PRO258 
 SER259  PHE327  ASP328  TYR330 

> <Gold.Protein.RotatedAtoms>
   15.5239    4.9620   11.2650 H   0  0  0  0  0  0  0  0  0  0  0  0  # atno 1829 bound_to 1810
    5.9998    9.4277    9.2028 H   0  0  0  0  0  0  0  0  0  0  0  0  # atno 1885 bound_to 1872
    1.5881   12.1791   -6.4638 H   0  0  0  0  0  0  0  0  0  0  0  0  # atno 3466 bound_to 3411
    1.1598   10.6586   -5.9611 H   0  0  0  0  0  0  0  0  0  0  0  0  # atno 3467 bound_to 3411
    0.0222   11.6631   -6.6280 H   0  0  0  0  0  0  0  0  0  0  0  0  # atno 3468 bound_to 3411
   15.9369   13.2111   24.2404 H   0  0  0  0  0  0  0  0  0  0  0  0  # atno 5787 bound_to 5760
    6.0945   13.2332   15.2320 H   0  0  0  0  0  0  0  0  0  0  0  0  # atno 7768 bound_to 7713
    7.1585   13.2675   13.9618 H   0  0  0  0  0  0  0  0  0  0  0  0  # atno 7769 bound_to 7713
    7.6318   12.6444   15.4231 H   0  0  0  0  0  0  0  0  0  0  0  0  # atno 7770 bound_to 7713
   15.2133   19.1373   15.5081 H   0  0  0  0  0  0  0  0  0  0  0  0  # atno 8490 bound_to 8455
    5.0009   15.2737   14.3555 H   0  0  0  0  0  0  0  0  0  0  0  0  # atno 9362 bound_to 9334
    4.2577   16.7730   22.6884 H   0  0  0  0  0  0  0  0  0  0  0  0  # atno 9510 bound_to 9468
    7.2948    8.0959   41.5035 H   0  0  0  0  0  0  0  0  0  0  0  0  # atno 9775 bound_to 9759
    5.7075    8.3492   39.5955 H   0  0  0  0  0  0  0  0  0  0  0  0  # atno 9832 bound_to 9816
    3.8590   10.1480   40.5505 H   0  0  0  0  0  0  0  0  0  0  0  0  # atno 9883 bound_to 9871
    4.6185   12.5482   39.2702 H   0  0  0  0  0  0  0  0  0  0  0  0  # atno 9887 bound_to 9876
    3.3835    9.5426   43.4346 H   0  0  0  0  0  0  0  0  0  0  0  0  # atno 9925 bound_to 9907
   -1.0294    8.0914   42.9096 H   0  0  0  0  0  0  0  0  0  0  0  0  # atno 9935 bound_to 9915
   -1.2658    6.8315   41.8585 H   0  0  0  0  0  0  0  0  0  0  0  0  # atno 9936 bound_to 9915
   -2.2262    6.9818   43.2010 H   0  0  0  0  0  0  0  0  0  0  0  0  # atno 9937 bound_to 9915
   -4.8378   16.5280   29.7519 H   0  0  0  0  0  0  0  0  0  0  0  0  # atno 10746 bound_to 10695
   -3.6362   14.1302   33.2648 H   0  0  0  0  0  0  0  0  0  0  0  0  # atno 10984 bound_to 10935
   11.1808    5.5666   29.2728 H   0  0  0  0  0  0  0  0  0  0  0  0  # atno 11374 bound_to 11358
    9.7894    3.2186   30.5210 H   0  0  0  0  0  0  0  0  0  0  0  0  # atno 11434 bound_to 11416
   10.4984    0.4582   30.6599 H   0  0  0  0  0  0  0  0  0  0  0  0  # atno 11482 bound_to 11466
    9.8523    1.6364   33.6983 H   0  0  0  0  0  0  0  0  0  0  0  0  # atno 11551 bound_to 11527
   13.3718    7.6905   33.9391 H   0  0  0  0  0  0  0  0  0  0  0  0  # atno 11559 bound_to 11538
   -2.7606   11.6511   12.5996 H   0  0  0  0  0  0  0  0  0  0  0  0  # atno 11576 bound_to 11526
    7.4294    1.5905   34.1238 H   0  0  0  0  0  0  0  0  0  0  0  0  # atno 11605 bound_to 11587
    6.0090   -0.5716   33.7749 H   0  0  0  0  0  0  0  0  0  0  0  0  # atno 11650 bound_to 11632
   -9.2063    7.9516   25.9119 H   0  0  0  0  0  0  0  0  0  0  0  0  # atno 11686 bound_to 11631
   -7.8450    8.8698   25.6889 H   0  0  0  0  0  0  0  0  0  0  0  0  # atno 11687 bound_to 11631
   -8.7895    9.1021   27.0303 H   0  0  0  0  0  0  0  0  0  0  0  0  # atno 11688 bound_to 11631
    7.3137   -0.3890   35.7701 H   0  0  0  0  0  0  0  0  0  0  0  0  # atno 11713 bound_to 11697
    6.2497    0.8550   37.7731 H   0  0  0  0  0  0  0  0  0  0  0  0  # atno 11767 bound_to 11753
    4.0436   -1.5546   37.8161 H   0  0  0  0  0  0  0  0  0  0  0  0  # atno 11812 bound_to 11800
   15.8027    9.2129   17.4334 H   0  0  0  0  0  0  0  0  0  0  0  0  # atno 15484 bound_to 15454
    1.4799    9.4939   40.7592 LP  0  0  0  0  0  0  0  0  0  0  0  0  # atno 16458 bound_to 9819
    2.0852   10.9652   41.4441 LP  0  0  0  0  0  0  0  0  0  0  0  0  # atno 16459 bound_to 9819
   -2.7587   15.4995   33.3246 LP  0  0  0  0  0  0  0  0  0  0  0  0  # atno 16460 bound_to 10935
   -2.3958   14.2500   34.3114 LP  0  0  0  0  0  0  0  0  0  0  0  0  # atno 16461 bound_to 10935
    5.1279    7.1048   40.6750 LP  0  0  0  0  0  0  0  0  0  0  0  0  # atno 16462 bound_to 9816
    5.1043    9.6337   41.6646 LP  0  0  0  0  0  0  0  0  0  0  0  0  # atno 16463 bound_to 9871
    2.3205   13.1515   42.8324 LP  0  0  0  0  0  0  0  0  0  0  0  0  # atno 16464 bound_to 9874
    2.4059   12.7133   44.5059 LP  0  0  0  0  0  0  0  0  0  0  0  0  # atno 16465 bound_to 9874
    3.4345   11.2836   43.5805 LP  0  0  0  0  0  0  0  0  0  0  0  0  # atno 16466 bound_to 9907
    6.3806    9.9117   38.3307 LP  0  0  0  0  0  0  0  0  0  0  0  0  # atno 16467 bound_to 9762
    4.9288    9.1253   37.8075 LP  0  0  0  0  0  0  0  0  0  0  0  0  # atno 16468 bound_to 9762
    5.7767   12.3575   40.3974 LP  0  0  0  0  0  0  0  0  0  0  0  0  # atno 16469 bound_to 9876
    5.2205   13.8503   40.0386 LP  0  0  0  0  0  0  0  0  0  0  0  0  # atno 16470 bound_to 9876
   -4.7727   17.6252   30.9512 LP  0  0  0  0  0  0  0  0  0  0  0  0  # atno 16477 bound_to 10695
   -3.6794   16.4139   30.8884 LP  0  0  0  0  0  0  0  0  0  0  0  0  # atno 16478 bound_to 10695
    5.0953    6.2024   42.0166 LP  0  0  0  0  0  0  0  0  0  0  0  0  # atno 16495 bound_to 9617
    5.3098    5.0342   40.7560 LP  0  0  0  0  0  0  0  0  0  0  0  0  # atno 16496 bound_to 9617
    8.0885   10.1871   40.6946 LP  0  0  0  0  0  0  0  0  0  0  0  0  # atno 16497 bound_to 9705
    6.5822   10.0619   41.5405 LP  0  0  0  0  0  0  0  0  0  0  0  0  # atno 16498 bound_to 9705
    8.3220    6.7465   41.0754 LP  0  0  0  0  0  0  0  0  0  0  0  0  # atno 16499 bound_to 9759
    6.6725    2.6428   36.3057 LP  0  0  0  0  0  0  0  0  0  0  0  0  # atno 16500 bound_to 11530
    6.0119    1.2083   35.5943 LP  0  0  0  0  0  0  0  0  0  0  0  0  # atno 16501 bound_to 11530
    7.3262    4.1997   31.5442 LP  0  0  0  0  0  0  0  0  0  0  0  0  # atno 16504 bound_to 11361
    7.4297    2.5540   31.0142 LP  0  0  0  0  0  0  0  0  0  0  0  0  # atno 16505 bound_to 11361
    7.0763    2.4657   32.6494 LP  0  0  0  0  0  0  0  0  0  0  0  0  # atno 16508 bound_to 11587
   13.0770    7.9859   35.5117 LP  0  0  0  0  0  0  0  0  0  0  0  0  # atno 16509 bound_to 11538
   12.4251    8.9445   34.3615 LP  0  0  0  0  0  0  0  0  0  0  0  0  # atno 16510 bound_to 11538
   10.3282    3.6890   32.0526 LP  0  0  0  0  0  0  0  0  0  0  0  0  # atno 16511 bound_to 11318
   11.7722    4.1691   32.8799 LP  0  0  0  0  0  0  0  0  0  0  0  0  # atno 16512 bound_to 11318
   11.3931    4.4860   30.6180 LP  0  0  0  0  0  0  0  0  0  0  0  0  # atno 16513 bound_to 11358
    9.4044    3.4375   28.8318 LP  0  0  0  0  0  0  0  0  0  0  0  0  # atno 16514 bound_to 11416
    9.9231    3.2198   32.9720 LP  0  0  0  0  0  0  0  0  0  0  0  0  # atno 16515 bound_to 11527
    4.6612   -0.4244   35.4696 LP  0  0  0  0  0  0  0  0  0  0  0  0  # atno 16520 bound_to 11590
    4.3117   -1.6035   34.2499 LP  0  0  0  0  0  0  0  0  0  0  0  0  # atno 16521 bound_to 11590
    3.3156   -0.6760   36.4921 LP  0  0  0  0  0  0  0  0  0  0  0  0  # atno 16522 bound_to 11800
    2.5271   -0.5500   39.9414 LP  0  0  0  0  0  0  0  0  0  0  0  0  # atno 16523 bound_to 11756
    1.8679   -1.8300   38.9786 LP  0  0  0  0  0  0  0  0  0  0  0  0  # atno 16524 bound_to 11756
    7.6343   -0.0644   31.1402 LP  0  0  0  0  0  0  0  0  0  0  0  0  # atno 16543 bound_to 11419
    8.9887   -0.7129   32.0034 LP  0  0  0  0  0  0  0  0  0  0  0  0  # atno 16544 bound_to 11419
    7.6769   -0.5303   33.2621 LP  0  0  0  0  0  0  0  0  0  0  0  0  # atno 16545 bound_to 11632
   10.2668    2.1306   31.1256 LP  0  0  0  0  0  0  0  0  0  0  0  0  # atno 16546 bound_to 11466
    8.3348    0.5739   34.5964 LP  0  0  0  0  0  0  0  0  0  0  0  0  # atno 16547 bound_to 11469
    9.8569   -0.2010   34.8838 LP  0  0  0  0  0  0  0  0  0  0  0  0  # atno 16548 bound_to 11469
    5.7652   -0.7816   37.3978 LP  0  0  0  0  0  0  0  0  0  0  0  0  # atno 16549 bound_to 11753
    8.0119   -1.9821   36.0063 LP  0  0  0  0  0  0  0  0  0  0  0  0  # atno 16550 bound_to 11697
   -3.5716   11.3136   11.2297 LP  0  0  0  0  0  0  0  0  0  0  0  0  # atno 16565 bound_to 11526
   -3.2108   10.1195   12.2836 LP  0  0  0  0  0  0  0  0  0  0  0  0  # atno 16566 bound_to 11526
    4.0306   15.1005   13.0603 LP  0  0  0  0  0  0  0  0  0  0  0  0  # atno 16567 bound_to 9334
    4.7924   13.8019   13.6927 LP  0  0  0  0  0  0  0  0  0  0  0  0  # atno 16568 bound_to 9334
   12.3962    2.7258   30.1993 LP  0  0  0  0  0  0  0  0  0  0  0  0  # atno 16571 bound_to 11269
   11.9170    2.2472   28.6051 LP  0  0  0  0  0  0  0  0  0  0  0  0  # atno 16572 bound_to 11269
   16.0161    8.4150   18.8351 LP  0  0  0  0  0  0  0  0  0  0  0  0  # atno 16581 bound_to 15454
   14.7443    8.0588   17.8748 LP  0  0  0  0  0  0  0  0  0  0  0  0  # atno 16582 bound_to 15454
   17.0968   12.0718   24.1763 LP  0  0  0  0  0  0  0  0  0  0  0  0  # atno 16589 bound_to 5760
   16.7000   12.7579   25.6041 LP  0  0  0  0  0  0  0  0  0  0  0  0  # atno 16590 bound_to 5760
   16.3507    6.2538   10.7202 LP  0  0  0  0  0  0  0  0  0  0  0  0  # atno 16601 bound_to 1810
   14.7432    6.1395   10.4569 LP  0  0  0  0  0  0  0  0  0  0  0  0  # atno 16602 bound_to 1810
   15.4064   18.0092   14.3513 LP  0  0  0  0  0  0  0  0  0  0  0  0  # atno 16609 bound_to 8455
   14.0801   18.9619   14.3535 LP  0  0  0  0  0  0  0  0  0  0  0  0  # atno 16610 bound_to 8455
    7.0470    8.5013   10.0351 LP  0  0  0  0  0  0  0  0  0  0  0  0  # atno 16611 bound_to 1872
    6.2899    7.9017    8.7183 LP  0  0  0  0  0  0  0  0  0  0  0  0  # atno 16612 bound_to 1872
    3.5415   18.1506   23.1746 LP  0  0  0  0  0  0  0  0  0  0  0  0  # atno 16621 bound_to 9468
    4.9795   18.2028   22.4025 LP  0  0  0  0  0  0  0  0  0  0  0  0  # atno 16622 bound_to 9468

> <Gold.Score>
     Fitness  S(hb_ext) S(vdw_ext)  S(hb_int)    S(int)      intcor
     34.10       2.87      23.13       0.00      -0.58      -0.78

> <Gold.Goldscore.Fitness>
34.0979

> <Gold.Goldscore.Internal.Vdw>
-0.5663

> <Gold.Goldscore.Internal.Torsion>
-0.7851

> <Gold.Goldscore.External.Vdw>
23.1296

> <Gold.Goldscore.Internal.HBond>
0.0000

> <Gold.Goldscore.External.HBond>
2.8709

> <Gold.Goldscore.Internal.Correction>
-0.7752

> <Gold.Goldscore.Hbonds>
donor molecule, donor type, donor heavy atom, donor atom, acceptor molecule, acceptor atom, score
      P1  H  7713  7769       L1    17  0.28
      P1  H  1900  1933       L1     9  0.26
      L1  H     8    22       P1  1872  0.16
      L1  H    10    23       P1  7619  0.06

> <Gold.Goldscore.Internal.Vdw.Weighted>
-0.5663

> <Gold.Goldscore.Internal.Torsion.Weighted>
-0.7851

> <Gold.Goldscore.External.Vdw.Weighted>
31.8032

> <Gold.Goldscore.Internal.HBond.Weighted>
0.0000

> <Gold.Goldscore.External.HBond.Weighted>
2.8709

> <Gold.Goldscore.Internal.Correction.Weighted>
-0.7752

> <Gold.Rescore>
     Score     S(PLP)   S(hbond)     S(cho)   S(metal)  DE(clash)   DE(tors)     intcor
      4.57      -0.40       2.12       0.00       0.00       0.00       1.10       ----

> <Gold.PLP.Fitness>
4.5742

> <Gold.PLP.PLP>
-0.4014

> <Gold.PLP.part.hbond>
-4.0000

> <Gold.PLP.part.metal>
0.0000

> <Gold.PLP.part.buried>
21.8023

> <Gold.PLP.part.nonpolar>
-27.9014

> <Gold.PLP.part.repulsive>
10.7740

> <Gold.PLP.ligand.clash>
0.0000

> <Gold.PLP.ligand.torsion>
1.1000

> <Gold.PLP.Chemscore.Hbond>
2.1242

> <Gold.PLP.Chemscore.CHOScore>
0.0000

> <Gold.PLP.Chemscore.Metal>
0.0000

> <Gold.Chemscore.Hbonds>
donor molecule, donor type, donor heavy atom, donor atom, acceptor molecule, acceptor atom, score
      L1  H    10    23       P1  7619  0.74
      P1  H  7713  7769       L1    17  0.84
      P1  H  1900  1933       L1     9  0.71

> <Gold.PLP.Chemscore.Internal.Correction>
   9.000000E+99

#       Name:                CT1002167954
#       Creating user name   hitesit
#       Creation time:       Sun Apr 16 22:53:14 2023


#       File generated by GOLD software.
#

@<TRIPOS>MOLECULE
CT1002167954|ligand_prepared|mol2|1|dock3
    29    30     1
SMALL
NO_CHARGES


@<TRIPOS>ATOM
      1 C1           8.9499  12.7335  11.3002 C.3            1 RES1               0.0000
      2 C2           7.4918  12.4731  11.7301 C.ar           1 RES1               0.0000
      3 C3           9.3879  14.0059  12.0194 C.2            1 RES1               0.0000
      4 C4           9.7400  11.4912  11.6968 C.2            1 RES1               0.0000
      5 C5           9.1243  12.9447   9.7782 C.3            1 RES1               0.0000
      6 C6           6.4440  13.1782  11.1456 C.ar           1 RES1               0.0000
      7 C7           7.1792  11.5307  12.7062 C.ar           1 RES1               0.0000
      8 N8          10.2510  13.8743  13.0671 N.am           1 RES1               0.0000
      9 O9           8.9519  15.1043  11.6974 O.2            1 RES1               0.0000
     10 N10         10.6986  11.6227  12.6672 N.am           1 RES1               0.0000
     11 O11          9.5296  10.3963  11.1897 O.2            1 RES1               0.0000
     12 C12         10.5760  13.0096   9.3305 C.3            1 RES1               0.0000
     13 C13          5.1309  12.9476  11.5212 C.ar           1 RES1               0.0000
     14 C14          5.8654  11.3017  13.0804 C.ar           1 RES1               0.0000
     15 C15         10.9688  12.7513  13.3920 C.2            1 RES1               0.0000
     16 C16          4.8407  12.0090  12.4883 C.ar           1 RES1               0.0000
     17 O17         11.8090  12.7769  14.2867 O.2            1 RES1               0.0000
     18 H18          8.6278  12.1224   9.2484 H              1 RES1               0.0000
     19 H19          8.6245  13.8783   9.4917 H              1 RES1               0.0000
     20 H20          6.6532  13.9225  10.3845 H              1 RES1               0.0000
     21 H21          7.9691  10.9632  13.1864 H              1 RES1               0.0000
     22 H22         10.3741  14.6858  13.6643 H              1 RES1               0.0000
     23 H23         11.2632  10.8033  12.8676 H              1 RES1               0.0000
     24 H24         10.6417  13.1588   8.2548 H              1 RES1               0.0000
     25 H25         11.0939  13.8324   9.8190 H              1 RES1               0.0000
     26 H26         11.0973  12.0869   9.5771 H              1 RES1               0.0000
     27 H27          4.3283  13.5078  11.0531 H              1 RES1               0.0000
     28 H28          5.6416  10.5626  13.8425 H              1 RES1               0.0000
     29 H29          3.8120  11.8282  12.7821 H              1 RES1               0.0000
@<TRIPOS>BOND
    1    1    2 1     
    2    1    3 1     
    3    1    4 1     
    4    1    5 1     
    5    2    6 ar    
    6    2    7 ar    
    7    3    8 1     
    8    3    9 2     
    9    4   10 1     
   10    4   11 2     
   11    5   12 1     
   12    5   18 1     
   13    5   19 1     
   14    6   13 ar    
   15    6   20 1     
   16    7   14 ar    
   17    7   21 1     
   18    8   15 1     
   19    8   22 1     
   20   10   15 1     
   21   10   23 1     
   22   12   24 1     
   23   12   25 1     
   24   12   26 1     
   25   13   16 ar    
   26   13   27 1     
   27   14   16 ar    
   28   14   28 1     
   29   15   17 2     
   30   16   29 1     
@<TRIPOS>SUBSTRUCTURE
      1 RES1           1
@<TRIPOS>SET
DONOR_HYDROGENS      STATIC     ATOMS    <user>   **** ""
2 22 23
ATOM$RED        STATIC     ATOMS    COLORGROUP SYSTEM
2 22 23
@<TRIPOS>COMMENT
> <Gold.Version>
2022.3.0

> <Gold.Id.Protein>
unknown|3mvj_clean|pdb

> <Gold.Protein.RotatedTorsions>
[ 9935 9915 9914 9913 ] final  114.69 input   59.98 | X-H torsion
[ 10984 10935 10934 10932 ] final  -65.20 input   60.03 | X-H torsion
[ 9832 9816 9817 9818 ] final -112.91 input   89.09 | X-H torsion
[ 9883 9871 9872 9873 ] final  -76.09 input -126.12 | X-H torsion
[ 9925 9907 9908 9909 ] final  171.07 input  109.17 | X-H torsion
[ 9887 9876 9875 9872 ] final   83.79 input   59.96 | X-H torsion
[ 10746 10695 10694 10692 ] final  -49.63 input   59.99 | X-H torsion
[ 11686 11631 11630 11629 ] final -113.83 input   60.02 | X-H torsion
[ 9775 9759 9760 9761 ] final  112.35 input  126.36 | X-H torsion
[ 11605 11587 11588 11589 ] final -116.37 input  114.14 | X-H torsion
[ 11559 11538 11537 11535 ] final   96.23 input   60.01 | X-H torsion
[ 11374 11358 11359 11360 ] final  -64.19 input   98.08 | X-H torsion
[ 11434 11416 11417 11418 ] final  -26.15 input  102.35 | X-H torsion
[ 11551 11527 11528 11529 ] final   95.45 input  127.83 | X-H torsion
[ 11812 11800 11801 11802 ] final  -23.10 input  127.47 | X-H torsion
[ 11650 11632 11633 11634 ] final -153.18 input  113.96 | X-H torsion
[ 11482 11466 11467 11468 ] final   38.88 input  126.08 | X-H torsion
[ 11767 11753 11754 11755 ] final -122.50 input  105.73 | X-H torsion
[ 11713 11697 11698 11699 ] final -113.07 input  116.95 | X-H torsion
[ 11576 11526 11525 11523 ] final  -31.64 input   60.00 | X-H torsion
[ 9362 9334 9332 9329 ] final  157.82 input   60.01 | X-H torsion
[ 7768 7713 7712 7711 ] final -123.88 input   60.03 | X-H torsion
[ 15484 15454 15453 15451 ] final   -7.66 input   59.98 | X-H torsion
[ 5787 5760 5759 5756 ] final  156.59 input   59.99 | X-H torsion
[ 1829 1810 1808 1805 ] final   96.12 input   60.00 | X-H torsion
[ 8490 8455 8453 8450 ] final   18.24 input   60.02 | X-H torsion
[ 1885 1872 1871 1868 ] final  109.97 input   59.98 | X-H torsion
[ 9510 9468 9467 9465 ] final  127.84 input   60.02 | X-H torsion
[ 3466 3411 3410 3409 ] final  -44.70 input   59.97 | X-H torsion
[ 16458 9819 9818 9817 ] final -176.06 input    0.00 | X-H torsion
[ 16464 9874 9873 9872 ] final   19.72 input    0.00 | X-H torsion
[ 16467 9762 9761 9760 ] final  146.78 input    0.00 | X-H torsion
[ 16495 9617 9616 9615 ] final   93.75 input    0.00 | X-H torsion
[ 16497 9705 9704 9703 ] final  -55.23 input    0.00 | X-H torsion
[ 16500 11530 11529 11528 ] final  152.88 input    0.00 | X-H torsion
[ 16504 11361 11360 11359 ] final  105.16 input    0.00 | X-H torsion
[ 16511 11318 11317 11316 ] final  -84.12 input    0.00 | X-H torsion
[ 16520 11590 11589 11588 ] final -121.34 input    0.00 | X-H torsion
[ 16523 11756 11755 11754 ] final   43.25 input    0.00 | X-H torsion
[ 16543 11419 11418 11417 ] final   12.60 input   -0.00 | X-H torsion
[ 16547 11469 11468 11467 ] final  103.31 input    0.00 | X-H torsion
[ 16571 11269 11268 11267 ] final  124.04 input   -0.00 | X-H torsion

> <Gold.Protein.ActiveResidues>
 THR48   LEU49   GLY50   THR51   GLY52   SER53   PHE54   GLY55   ARG56   VAL57  
 LYS78   LYS81   LEU82   LYS83   GLN84   HIS87   GLU127  PHE129  SER130  LEU132 
 ARG133  ARG134  ILE135  GLY136  ARG137  ARG165  ASP166  LEU167  LYS168  PRO169 
 GLU170  ASN171  LEU172  LEU173  THR183  ASP184  GLY186  PHE187  TPO197  LEU198 
 CYS199  GLY200  THR201  PRO202  GLU203  TYR204  LEU205  PRO207  ILE209  ILE210 
 LEU211  SER212  LYS213  VAL226  LEU227  TYR229  GLU230  ALA233  GLY234  TYR235 
 PRO236  PRO237  PHE238  PHE239  ALA240  ASP241  GLN242  PRO243  ILE244  GLN245 
 ILE246  TYR247  GLU248  LYS249  ILE250  VAL251  SER252  ARG256  PHE257  PRO258 
 SER259  PHE327  ASP328  TYR330 

> <Gold.Protein.RotatedAtoms>
   16.4496    5.7331   11.0291 H   0  0  0  0  0  0  0  0  0  0  0  0  # atno 1829 bound_to 1810
    6.5675    9.3441    9.8888 H   0  0  0  0  0  0  0  0  0  0  0  0  # atno 1885 bound_to 1872
    1.6449   10.9931   -5.9802 H   0  0  0  0  0  0  0  0  0  0  0  0  # atno 3466 bound_to 3411
    0.0475   11.1178   -6.4053 H   0  0  0  0  0  0  0  0  0  0  0  0  # atno 3467 bound_to 3411
    1.0775   12.3899   -6.6674 H   0  0  0  0  0  0  0  0  0  0  0  0  # atno 3468 bound_to 3411
   17.2475   12.0293   24.6912 H   0  0  0  0  0  0  0  0  0  0  0  0  # atno 5787 bound_to 5760
    7.8659   12.7943   14.6913 H   0  0  0  0  0  0  0  0  0  0  0  0  # atno 7768 bound_to 7713
    6.5890   12.9032   15.7422 H   0  0  0  0  0  0  0  0  0  0  0  0  # atno 7769 bound_to 7713
    6.4294   13.4473   14.1847 H   0  0  0  0  0  0  0  0  0  0  0  0  # atno 7770 bound_to 7713
   14.0801   19.0219   14.4207 H   0  0  0  0  0  0  0  0  0  0  0  0  # atno 8490 bound_to 8455
    5.0504   15.1807   14.3942 H   0  0  0  0  0  0  0  0  0  0  0  0  # atno 9362 bound_to 9334
    4.9481   18.2441   22.4189 H   0  0  0  0  0  0  0  0  0  0  0  0  # atno 9510 bound_to 9468
    7.7054    6.5337   41.2380 H   0  0  0  0  0  0  0  0  0  0  0  0  # atno 9775 bound_to 9759
    5.5635    7.9276   39.2964 H   0  0  0  0  0  0  0  0  0  0  0  0  # atno 9832 bound_to 9816
    4.9657    9.5579   41.7845 H   0  0  0  0  0  0  0  0  0  0  0  0  # atno 9883 bound_to 9871
    4.7794   12.2559   39.3924 H   0  0  0  0  0  0  0  0  0  0  0  0  # atno 9887 bound_to 9876
    2.8847    9.8393   43.1014 H   0  0  0  0  0  0  0  0  0  0  0  0  # atno 9925 bound_to 9907
   -0.9345    7.2452   41.8910 H   0  0  0  0  0  0  0  0  0  0  0  0  # atno 9935 bound_to 9915
   -2.1876    6.6435   42.7942 H   0  0  0  0  0  0  0  0  0  0  0  0  # atno 9936 bound_to 9915
   -1.3984    8.0165   43.2833 H   0  0  0  0  0  0  0  0  0  0  0  0  # atno 9937 bound_to 9915
   -4.3715   16.1729   29.8907 H   0  0  0  0  0  0  0  0  0  0  0  0  # atno 10746 bound_to 10695
   -2.8236   15.4827   33.2722 H   0  0  0  0  0  0  0  0  0  0  0  0  # atno 10984 bound_to 10935
   11.4467    4.5567   30.6518 H   0  0  0  0  0  0  0  0  0  0  0  0  # atno 11374 bound_to 11358
    9.5646    3.2976   30.5487 H   0  0  0  0  0  0  0  0  0  0  0  0  # atno 11434 bound_to 11416
   10.0542    2.0790   31.2066 H   0  0  0  0  0  0  0  0  0  0  0  0  # atno 11482 bound_to 11466
    9.6332    3.0132   32.7306 H   0  0  0  0  0  0  0  0  0  0  0  0  # atno 11551 bound_to 11527
   13.2518    7.8633   33.7821 H   0  0  0  0  0  0  0  0  0  0  0  0  # atno 11559 bound_to 11538
   -2.9180   11.9084   12.2275 H   0  0  0  0  0  0  0  0  0  0  0  0  # atno 11576 bound_to 11526
    6.7755    2.6440   33.8173 H   0  0  0  0  0  0  0  0  0  0  0  0  # atno 11605 bound_to 11587
    6.5040   -0.9399   32.8068 H   0  0  0  0  0  0  0  0  0  0  0  0  # atno 11650 bound_to 11632
   -8.9685    7.9499   25.6516 H   0  0  0  0  0  0  0  0  0  0  0  0  # atno 11686 bound_to 11631
   -7.8101    9.0945   25.9578 H   0  0  0  0  0  0  0  0  0  0  0  0  # atno 11687 bound_to 11631
   -9.0621    8.8790   27.0215 H   0  0  0  0  0  0  0  0  0  0  0  0  # atno 11688 bound_to 11631
    8.0248   -2.0148   36.0583 H   0  0  0  0  0  0  0  0  0  0  0  0  # atno 11713 bound_to 11697
    6.3740    0.1892   38.3699 H   0  0  0  0  0  0  0  0  0  0  0  0  # atno 11767 bound_to 11753
    3.6223   -1.2678   38.0148 H   0  0  0  0  0  0  0  0  0  0  0  0  # atno 11812 bound_to 11800
   16.2924    8.8905   18.4649 H   0  0  0  0  0  0  0  0  0  0  0  0  # atno 15484 bound_to 15454
    2.0845   10.9266   41.5176 LP  0  0  0  0  0  0  0  0  0  0  0  0  # atno 16458 bound_to 9819
    1.4806    9.5325   40.6857 LP  0  0  0  0  0  0  0  0  0  0  0  0  # atno 16459 bound_to 9819
   -2.3519   14.3229   34.3118 LP  0  0  0  0  0  0  0  0  0  0  0  0  # atno 16460 bound_to 10935
   -3.6207   14.0646   33.3167 LP  0  0  0  0  0  0  0  0  0  0  0  0  # atno 16461 bound_to 10935
    5.2691    7.5183   40.9684 LP  0  0  0  0  0  0  0  0  0  0  0  0  # atno 16462 bound_to 9816
    4.0257   10.2088   40.4620 LP  0  0  0  0  0  0  0  0  0  0  0  0  # atno 16463 bound_to 9871
    2.5297   13.2702   42.8893 LP  0  0  0  0  0  0  0  0  0  0  0  0  # atno 16464 bound_to 9874
    2.1967   12.5946   44.4490 LP  0  0  0  0  0  0  0  0  0  0  0  0  # atno 16465 bound_to 9874
    3.9215   10.9939   43.9057 LP  0  0  0  0  0  0  0  0  0  0  0  0  # atno 16466 bound_to 9907
    4.8314    9.2675   37.9733 LP  0  0  0  0  0  0  0  0  0  0  0  0  # atno 16467 bound_to 9762
    6.4781    9.7695   38.1648 LP  0  0  0  0  0  0  0  0  0  0  0  0  # atno 16468 bound_to 9762
    5.8655   12.6785   40.5282 LP  0  0  0  0  0  0  0  0  0  0  0  0  # atno 16469 bound_to 9876
    4.9697   13.8237   39.7848 LP  0  0  0  0  0  0  0  0  0  0  0  0  # atno 16470 bound_to 9876
   -5.1113   17.5043   30.4621 LP  0  0  0  0  0  0  0  0  0  0  0  0  # atno 16477 bound_to 10695
   -3.8108   16.8926   31.2376 LP  0  0  0  0  0  0  0  0  0  0  0  0  # atno 16478 bound_to 10695
    4.4092    5.3153   41.5560 LP  0  0  0  0  0  0  0  0  0  0  0  0  # atno 16495 bound_to 9617
    5.9959    5.9213   41.2166 LP  0  0  0  0  0  0  0  0  0  0  0  0  # atno 16496 bound_to 9617
    6.7648   10.1795   41.7667 LP  0  0  0  0  0  0  0  0  0  0  0  0  # atno 16497 bound_to 9705
    7.9059   10.0694   40.4684 LP  0  0  0  0  0  0  0  0  0  0  0  0  # atno 16498 bound_to 9705
    7.9224    8.2666   41.3338 LP  0  0  0  0  0  0  0  0  0  0  0  0  # atno 16499 bound_to 9759
    5.6133    1.8465   35.4890 LP  0  0  0  0  0  0  0  0  0  0  0  0  # atno 16500 bound_to 11530
    7.0710    2.0046   36.4110 LP  0  0  0  0  0  0  0  0  0  0  0  0  # atno 16501 bound_to 11530
    6.9037    3.3936   30.5548 LP  0  0  0  0  0  0  0  0  0  0  0  0  # atno 16504 bound_to 11361
    7.8522    3.3602   32.0036 LP  0  0  0  0  0  0  0  0  0  0  0  0  # atno 16505 bound_to 11361
    7.7090    1.4465   32.9460 LP  0  0  0  0  0  0  0  0  0  0  0  0  # atno 16508 bound_to 11587
   13.2250    7.7931   35.4074 LP  0  0  0  0  0  0  0  0  0  0  0  0  # atno 16509 bound_to 11538
   12.3981    8.9632   34.6239 LP  0  0  0  0  0  0  0  0  0  0  0  0  # atno 16510 bound_to 11538
   11.2214    3.1570   32.1133 LP  0  0  0  0  0  0  0  0  0  0  0  0  # atno 16511 bound_to 11318
   10.8790    4.7012   32.8192 LP  0  0  0  0  0  0  0  0  0  0  0  0  # atno 16512 bound_to 11318
   11.1253    5.5030   29.2293 LP  0  0  0  0  0  0  0  0  0  0  0  0  # atno 16513 bound_to 11358
    9.6252    3.3600   28.8046 LP  0  0  0  0  0  0  0  0  0  0  0  0  # atno 16514 bound_to 11416
   10.1403    1.8552   33.9312 LP  0  0  0  0  0  0  0  0  0  0  0  0  # atno 16515 bound_to 11527
    5.0144   -1.0195   35.5462 LP  0  0  0  0  0  0  0  0  0  0  0  0  # atno 16520 bound_to 11590
    3.9585   -1.0084   34.1733 LP  0  0  0  0  0  0  0  0  0  0  0  0  # atno 16521 bound_to 11590
    3.7267   -0.9559   36.2982 LP  0  0  0  0  0  0  0  0  0  0  0  0  # atno 16522 bound_to 11800
    2.0142   -0.3498   39.5619 LP  0  0  0  0  0  0  0  0  0  0  0  0  # atno 16523 bound_to 11756
    2.3807   -2.0303   39.3581 LP  0  0  0  0  0  0  0  0  0  0  0  0  # atno 16524 bound_to 11756
    7.8481   -0.4240   30.8410 LP  0  0  0  0  0  0  0  0  0  0  0  0  # atno 16543 bound_to 11419
    8.7749   -0.3532   32.3026 LP  0  0  0  0  0  0  0  0  0  0  0  0  # atno 16544 bound_to 11419
    7.1902   -0.1682   34.2139 LP  0  0  0  0  0  0  0  0  0  0  0  0  # atno 16545 bound_to 11632
   10.6954    0.5670   30.5982 LP  0  0  0  0  0  0  0  0  0  0  0  0  # atno 16546 bound_to 11466
    9.5766    0.4717   35.4016 LP  0  0  0  0  0  0  0  0  0  0  0  0  # atno 16547 bound_to 11469
    8.6151   -0.0988   34.0786 LP  0  0  0  0  0  0  0  0  0  0  0  0  # atno 16548 bound_to 11469
    5.6437   -0.1314   36.8150 LP  0  0  0  0  0  0  0  0  0  0  0  0  # atno 16549 bound_to 11753
    7.3348   -0.4341   35.7319 LP  0  0  0  0  0  0  0  0  0  0  0  0  # atno 16550 bound_to 11697
   -3.6501   10.8379   11.2445 LP  0  0  0  0  0  0  0  0  0  0  0  0  # atno 16565 bound_to 11526
   -2.9738   10.3361   12.6436 LP  0  0  0  0  0  0  0  0  0  0  0  0  # atno 16566 bound_to 11526
    4.0495   15.1997   13.1109 LP  0  0  0  0  0  0  0  0  0  0  0  0  # atno 16567 bound_to 9334
    4.7237   13.7963   13.6032 LP  0  0  0  0  0  0  0  0  0  0  0  0  # atno 16568 bound_to 9334
   12.7214    2.3473   30.0438 LP  0  0  0  0  0  0  0  0  0  0  0  0  # atno 16571 bound_to 11269
   11.5918    2.6257   28.7606 LP  0  0  0  0  0  0  0  0  0  0  0  0  # atno 16572 bound_to 11269
   15.0188    7.8780   18.4532 LP  0  0  0  0  0  0  0  0  0  0  0  0  # atno 16581 bound_to 15454
   15.2483    8.9207   17.2175 LP  0  0  0  0  0  0  0  0  0  0  0  0  # atno 16582 bound_to 15454
   16.3115   13.1083   25.4704 LP  0  0  0  0  0  0  0  0  0  0  0  0  # atno 16589 bound_to 5760
   16.1654   12.9117   23.8559 LP  0  0  0  0  0  0  0  0  0  0  0  0  # atno 16590 bound_to 5760
   15.2072    6.5261   10.3386 LP  0  0  0  0  0  0  0  0  0  0  0  0  # atno 16601 bound_to 1810
   14.9548    5.0911   11.0759 LP  0  0  0  0  0  0  0  0  0  0  0  0  # atno 16602 bound_to 1810
   15.2864   19.0847   15.5110 LP  0  0  0  0  0  0  0  0  0  0  0  0  # atno 16609 bound_to 8455
   15.3417   18.0026   14.2893 LP  0  0  0  0  0  0  0  0  0  0  0  0  # atno 16610 bound_to 8455
    6.9145    7.8097    9.4731 LP  0  0  0  0  0  0  0  0  0  0  0  0  # atno 16611 bound_to 1872
    5.8504    8.6775    8.5892 LP  0  0  0  0  0  0  0  0  0  0  0  0  # atno 16612 bound_to 1872
    4.3067   16.7693   22.6651 LP  0  0  0  0  0  0  0  0  0  0  0  0  # atno 16621 bound_to 9468
    3.5189   18.1025   23.1834 LP  0  0  0  0  0  0  0  0  0  0  0  0  # atno 16622 bound_to 9468

> <Gold.Score>
     Fitness  S(hb_ext) S(vdw_ext)  S(hb_int)    S(int)      intcor
     33.43       4.34      21.92       0.00      -1.04      -0.76

> <Gold.Goldscore.Fitness>
33.4330

> <Gold.Goldscore.Internal.Vdw>
-1.3352

> <Gold.Goldscore.Internal.Torsion>
-0.4644

> <Gold.Goldscore.External.Vdw>
21.9164

> <Gold.Goldscore.Internal.HBond>
0.0000

> <Gold.Goldscore.External.HBond>
4.3389

> <Gold.Goldscore.Internal.Correction>
-0.7585

> <Gold.Goldscore.Hbonds>
donor molecule, donor type, donor heavy atom, donor atom, acceptor molecule, acceptor atom, score
      P1  H  1867  1886       L1    11  0.31
      P1  H  7864  7898       L1     9  0.48
      L1  H     8    22       P1  7865  0.99
      L1  H    10    23       P1  1807  0.39

> <Gold.Goldscore.Internal.Vdw.Weighted>
-1.3352

> <Gold.Goldscore.Internal.Torsion.Weighted>
-0.4644

> <Gold.Goldscore.External.Vdw.Weighted>
30.1351

> <Gold.Goldscore.Internal.HBond.Weighted>
0.0000

> <Gold.Goldscore.External.HBond.Weighted>
4.3389

> <Gold.Goldscore.Internal.Correction.Weighted>
-0.7585

> <Gold.Rescore>
     Score     S(PLP)   S(hbond)     S(cho)   S(metal)  DE(clash)   DE(tors)     intcor
     26.00     -23.29       1.45       0.00       0.00       0.01       0.82       ----

> <Gold.PLP.Fitness>
25.9985

> <Gold.PLP.PLP>
-23.2939

> <Gold.PLP.part.hbond>
-1.7834

> <Gold.PLP.part.metal>
0.0000

> <Gold.PLP.part.buried>
-1.0937

> <Gold.PLP.part.nonpolar>
-23.9937

> <Gold.PLP.part.repulsive>
5.1538

> <Gold.PLP.ligand.clash>
0.0110

> <Gold.PLP.ligand.torsion>
0.8161

> <Gold.PLP.Chemscore.Hbond>
1.4493

> <Gold.PLP.Chemscore.CHOScore>
0.0000

> <Gold.PLP.Chemscore.Metal>
0.0000

> <Gold.Chemscore.Hbonds>
donor molecule, donor type, donor heavy atom, donor atom, acceptor molecule, acceptor atom, score
      L1  H     8    22       P1  7865  0.94
      P1  H  1867  1886       L1    11  0.67

> <Gold.PLP.Chemscore.Internal.Correction>
   9.000000E+99

#       Name:                CT1002167954
#       Creating user name   hitesit
#       Creation time:       Sun Apr 16 22:53:18 2023


#       File generated by GOLD software.
#

@<TRIPOS>MOLECULE
CT1002167954|ligand_prepared|mol2|1|dock5
    29    30     1
SMALL
NO_CHARGES


@<TRIPOS>ATOM
      1 C1           9.0713  12.7763  11.2268 C.3            1 RES1               0.0000
      2 C2           7.6558  12.3756  11.6899 C.ar           1 RES1               0.0000
      3 C3           9.4371  14.0354  12.0073 C.2            1 RES1               0.0000
      4 C4           9.9704  11.5800  11.5191 C.2            1 RES1               0.0000
      5 C5           9.1691  13.0894   9.7156 C.3            1 RES1               0.0000
      6 C6           6.5327  13.0056  11.1621 C.ar           1 RES1               0.0000
      7 C7           7.4573  11.3777  12.6404 C.ar           1 RES1               0.0000
      8 N8          10.3481  13.9120  13.0147 N.am           1 RES1               0.0000
      9 O9           8.9048  15.1123  11.7686 O.2            1 RES1               0.0000
     10 N10         10.9531  11.7306  12.4621 N.am           1 RES1               0.0000
     11 O11          9.8259  10.5033  10.9533 O.2            1 RES1               0.0000
     12 C12         10.5916  13.0813   9.1785 C.3            1 RES1               0.0000
     13 C13          5.2573  12.6490  11.5676 C.ar           1 RES1               0.0000
     14 C14          6.1810  11.0227  13.0447 C.ar           1 RES1               0.0000
     15 C15         11.1630  12.8329  13.2452 C.2            1 RES1               0.0000
     16 C16          5.0805  11.6572  12.5087 C.ar           1 RES1               0.0000
     17 O17         12.0331  12.8732  14.1103 O.2            1 RES1               0.0000
     18 H18          8.5786  12.3485   9.1626 H              1 RES1               0.0000
     19 H19          8.7273  14.0763   9.5302 H              1 RES1               0.0000
     20 H20          6.6523  13.7901  10.4223 H              1 RES1               0.0000
     21 H21          8.3084  10.8657  13.0765 H              1 RES1               0.0000
     22 H22         10.4311  14.6944  13.6559 H              1 RES1               0.0000
     23 H23         11.5870  10.9486  12.5924 H              1 RES1               0.0000
     24 H24         10.6034  13.3068   8.1142 H              1 RES1               0.0000
     25 H25         11.2009  13.8242   9.6890 H              1 RES1               0.0000
     26 H26         11.0531  12.1067   9.3236 H              1 RES1               0.0000
     27 H27          4.3946  13.1522  11.1438 H              1 RES1               0.0000
     28 H28          6.0466  10.2420  13.7861 H              1 RES1               0.0000
     29 H29          4.0813  11.3777  12.8259 H              1 RES1               0.0000
@<TRIPOS>BOND
    1    1    2 1     
    2    1    3 1     
    3    1    4 1     
    4    1    5 1     
    5    2    6 ar    
    6    2    7 ar    
    7    3    8 1     
    8    3    9 2     
    9    4   10 1     
   10    4   11 2     
   11    5   12 1     
   12    5   18 1     
   13    5   19 1     
   14    6   13 ar    
   15    6   20 1     
   16    7   14 ar    
   17    7   21 1     
   18    8   15 1     
   19    8   22 1     
   20   10   15 1     
   21   10   23 1     
   22   12   24 1     
   23   12   25 1     
   24   12   26 1     
   25   13   16 ar    
   26   13   27 1     
   27   14   16 ar    
   28   14   28 1     
   29   15   17 2     
   30   16   29 1     
@<TRIPOS>SUBSTRUCTURE
      1 RES1           1
@<TRIPOS>SET
DONOR_HYDROGENS      STATIC     ATOMS    <user>   **** ""
2 22 23
ATOM$RED        STATIC     ATOMS    COLORGROUP SYSTEM
2 22 23
@<TRIPOS>COMMENT
> <Gold.Version>
2022.3.0

> <Gold.Id.Protein>
unknown|3mvj_clean|pdb

> <Gold.Protein.RotatedTorsions>
[ 9935 9915 9914 9913 ] final   39.89 input   59.98 | X-H torsion
[ 10984 10935 10934 10932 ] final  -46.83 input   60.03 | X-H torsion
[ 9832 9816 9817 9818 ] final -160.86 input   89.09 | X-H torsion
[ 9883 9871 9872 9873 ] final   -0.83 input -126.12 | X-H torsion
[ 9925 9907 9908 9909 ] final -159.90 input  109.17 | X-H torsion
[ 9887 9876 9875 9872 ] final   11.07 input   59.96 | X-H torsion
[ 10746 10695 10694 10692 ] final   58.32 input   59.99 | X-H torsion
[ 11686 11631 11630 11629 ] final  -13.55 input   60.02 | X-H torsion
[ 9775 9759 9760 9761 ] final  154.13 input  126.36 | X-H torsion
[ 11605 11587 11588 11589 ] final  -11.52 input  114.14 | X-H torsion
[ 11559 11538 11537 11535 ] final  -24.74 input   60.01 | X-H torsion
[ 11374 11358 11359 11360 ] final  -77.02 input   98.08 | X-H torsion
[ 11434 11416 11417 11418 ] final  -99.76 input  102.35 | X-H torsion
[ 11551 11527 11528 11529 ] final   47.68 input  127.83 | X-H torsion
[ 11812 11800 11801 11802 ] final  -42.87 input  127.47 | X-H torsion
[ 11650 11632 11633 11634 ] final  -20.78 input  113.96 | X-H torsion
[ 11482 11466 11467 11468 ] final   -5.93 input  126.08 | X-H torsion
[ 11767 11753 11754 11755 ] final -126.31 input  105.73 | X-H torsion
[ 11713 11697 11698 11699 ] final  178.11 input  116.95 | X-H torsion
[ 11576 11526 11525 11523 ] final  164.56 input   60.00 | X-H torsion
[ 9362 9334 9332 9329 ] final -120.63 input   60.01 | X-H torsion
[ 7768 7713 7712 7711 ] final  -91.39 input   60.03 | X-H torsion
[ 15484 15454 15453 15451 ] final  -76.08 input   59.98 | X-H torsion
[ 5787 5760 5759 5756 ] final   74.47 input   59.99 | X-H torsion
[ 1829 1810 1808 1805 ] final  -72.76 input   60.00 | X-H torsion
[ 8490 8455 8453 8450 ] final -126.28 input   60.02 | X-H torsion
[ 1885 1872 1871 1868 ] final   96.36 input   59.98 | X-H torsion
[ 9510 9468 9467 9465 ] final  144.13 input   60.02 | X-H torsion
[ 3466 3411 3410 3409 ] final   19.53 input   59.97 | X-H torsion
[ 16458 9819 9818 9817 ] final -101.36 input    0.00 | X-H torsion
[ 16464 9874 9873 9872 ] final  -43.81 input    0.00 | X-H torsion
[ 16467 9762 9761 9760 ] final   21.26 input    0.00 | X-H torsion
[ 16495 9617 9616 9615 ] final -178.00 input    0.00 | X-H torsion
[ 16497 9705 9704 9703 ] final  -63.77 input    0.00 | X-H torsion
[ 16500 11530 11529 11528 ] final  135.50 input    0.00 | X-H torsion
[ 16504 11361 11360 11359 ] final   32.95 input    0.00 | X-H torsion
[ 16511 11318 11317 11316 ] final  -91.17 input    0.00 | X-H torsion
[ 16520 11590 11589 11588 ] final  -51.54 input    0.00 | X-H torsion
[ 16523 11756 11755 11754 ] final -141.08 input    0.00 | X-H torsion
[ 16543 11419 11418 11417 ] final -109.06 input   -0.00 | X-H torsion
[ 16547 11469 11468 11467 ] final  -10.87 input    0.00 | X-H torsion
[ 16571 11269 11268 11267 ] final   74.93 input   -0.00 | X-H torsion

> <Gold.Protein.ActiveResidues>
 THR48   LEU49   GLY50   THR51   GLY52   SER53   PHE54   GLY55   ARG56   VAL57  
 LYS78   LYS81   LEU82   LYS83   GLN84   HIS87   GLU127  PHE129  SER130  LEU132 
 ARG133  ARG134  ILE135  GLY136  ARG137  ARG165  ASP166  LEU167  LYS168  PRO169 
 GLU170  ASN171  LEU172  LEU173  THR183  ASP184  GLY186  PHE187  TPO197  LEU198 
 CYS199  GLY200  THR201  PRO202  GLU203  TYR204  LEU205  PRO207  ILE209  ILE210 
 LEU211  SER212  LYS213  VAL226  LEU227  TYR229  GLU230  ALA233  GLY234  TYR235 
 PRO236  PRO237  PHE238  PHE239  ALA240  ASP241  GLN242  PRO243  ILE244  GLN245 
 ILE246  TYR247  GLU248  LYS249  ILE250  VAL251  SER252  ARG256  PHE257  PRO258 
 SER259  PHE327  ASP328  TYR330 

> <Gold.Protein.RotatedAtoms>
   14.6733    5.9927   10.5260 H   0  0  0  0  0  0  0  0  0  0  0  0  # atno 1829 bound_to 1810
    6.7076    9.2066    9.9920 H   0  0  0  0  0  0  0  0  0  0  0  0  # atno 1885 bound_to 1872
    0.7020   10.6182   -6.0538 H   0  0  0  0  0  0  0  0  0  0  0  0  # atno 3466 bound_to 3411
    0.2474   12.0609   -6.7321 H   0  0  0  0  0  0  0  0  0  0  0  0  # atno 3467 bound_to 3411
    1.8205   11.8218   -6.2671 H   0  0  0  0  0  0  0  0  0  0  0  0  # atno 3468 bound_to 3411
   16.7502   12.7026   25.5920 H   0  0  0  0  0  0  0  0  0  0  0  0  # atno 5787 bound_to 5760
    7.7736   12.6652   15.2025 H   0  0  0  0  0  0  0  0  0  0  0  0  # atno 7768 bound_to 7713
    6.2017   13.1286   15.4490 H   0  0  0  0  0  0  0  0  0  0  0  0  # atno 7769 bound_to 7713
    6.9088   13.3512   13.9664 H   0  0  0  0  0  0  0  0  0  0  0  0  # atno 7770 bound_to 7713
   15.5516   18.8062   15.4044 H   0  0  0  0  0  0  0  0  0  0  0  0  # atno 8490 bound_to 8455
    5.0550   13.9968   14.0858 H   0  0  0  0  0  0  0  0  0  0  0  0  # atno 9362 bound_to 9334
    4.7937   18.4368   22.5157 H   0  0  0  0  0  0  0  0  0  0  0  0  # atno 9510 bound_to 9468
    8.2925    6.6971   41.0695 H   0  0  0  0  0  0  0  0  0  0  0  0  # atno 9775 bound_to 9759
    5.2950    7.2703   39.3923 H   0  0  0  0  0  0  0  0  0  0  0  0  # atno 9832 bound_to 9816
    3.8939    9.5102   41.6501 H   0  0  0  0  0  0  0  0  0  0  0  0  # atno 9883 bound_to 9871
    5.5674   12.0940   40.1575 H   0  0  0  0  0  0  0  0  0  0  0  0  # atno 9887 bound_to 9876
    2.7084   10.2342   43.0032 H   0  0  0  0  0  0  0  0  0  0  0  0  # atno 9925 bound_to 9907
   -0.9168    8.0517   42.7285 H   0  0  0  0  0  0  0  0  0  0  0  0  # atno 9935 bound_to 9915
   -1.4274    6.6994   41.9169 H   0  0  0  0  0  0  0  0  0  0  0  0  # atno 9936 bound_to 9915
   -2.1770    7.1538   43.3236 H   0  0  0  0  0  0  0  0  0  0  0  0  # atno 9937 bound_to 9915
   -3.7394   16.7328   31.1466 H   0  0  0  0  0  0  0  0  0  0  0  0  # atno 10746 bound_to 10695
   -3.0585   15.3923   33.1107 H   0  0  0  0  0  0  0  0  0  0  0  0  # atno 10984 bound_to 10935
   11.4783    4.7295   30.7332 H   0  0  0  0  0  0  0  0  0  0  0  0  # atno 11374 bound_to 11358
    8.7912    3.6065   29.8995 H   0  0  0  0  0  0  0  0  0  0  0  0  # atno 11434 bound_to 11416
    9.5968    1.5769   31.2271 H   0  0  0  0  0  0  0  0  0  0  0  0  # atno 11482 bound_to 11466
    9.2995    2.3893   32.6865 H   0  0  0  0  0  0  0  0  0  0  0  0  # atno 11551 bound_to 11527
   13.2125    7.8054   35.4096 H   0  0  0  0  0  0  0  0  0  0  0  0  # atno 11559 bound_to 11538
   -3.5418   10.2662   11.6354 H   0  0  0  0  0  0  0  0  0  0  0  0  # atno 11576 bound_to 11526
    7.5290    1.4657   33.9984 H   0  0  0  0  0  0  0  0  0  0  0  0  # atno 11605 bound_to 11587
    6.4936   -0.2588   34.2662 H   0  0  0  0  0  0  0  0  0  0  0  0  # atno 11650 bound_to 11632
   -7.8383    8.8874   25.7057 H   0  0  0  0  0  0  0  0  0  0  0  0  # atno 11686 bound_to 11631
   -8.8100    9.0877   27.0329 H   0  0  0  0  0  0  0  0  0  0  0  0  # atno 11687 bound_to 11631
   -9.1918    7.9484   25.8920 H   0  0  0  0  0  0  0  0  0  0  0  0  # atno 11688 bound_to 11631
    8.5693   -1.1830   35.8495 H   0  0  0  0  0  0  0  0  0  0  0  0  # atno 11713 bound_to 11697
    6.3785    0.2456   38.3540 H   0  0  0  0  0  0  0  0  0  0  0  0  # atno 11767 bound_to 11753
    3.3885   -1.0766   37.9822 H   0  0  0  0  0  0  0  0  0  0  0  0  # atno 11812 bound_to 11800
   15.6835    8.1275   18.8582 H   0  0  0  0  0  0  0  0  0  0  0  0  # atno 15484 bound_to 15454
    1.8834   10.8346   40.4903 LP  0  0  0  0  0  0  0  0  0  0  0  0  # atno 16458 bound_to 9819
    1.6817    9.6245   41.7130 LP  0  0  0  0  0  0  0  0  0  0  0  0  # atno 16459 bound_to 9819
   -2.2366   14.5977   34.2689 LP  0  0  0  0  0  0  0  0  0  0  0  0  # atno 16460 bound_to 10935
   -3.4996   13.8809   33.5223 LP  0  0  0  0  0  0  0  0  0  0  0  0  # atno 16461 bound_to 10935
    5.5325    8.1630   40.8744 LP  0  0  0  0  0  0  0  0  0  0  0  0  # atno 16462 bound_to 9816
    5.0703   10.2553   40.5930 LP  0  0  0  0  0  0  0  0  0  0  0  0  # atno 16463 bound_to 9871
    3.0789   13.4155   43.6025 LP  0  0  0  0  0  0  0  0  0  0  0  0  # atno 16464 bound_to 9874
    1.6475   12.4494   43.7358 LP  0  0  0  0  0  0  0  0  0  0  0  0  # atno 16465 bound_to 9874
    4.0935   10.6084   44.0015 LP  0  0  0  0  0  0  0  0  0  0  0  0  # atno 16466 bound_to 9907
    6.3293    9.2126   37.6203 LP  0  0  0  0  0  0  0  0  0  0  0  0  # atno 16467 bound_to 9762
    4.9802    9.8244   38.5178 LP  0  0  0  0  0  0  0  0  0  0  0  0  # atno 16468 bound_to 9762
    5.5064   13.7134   40.3060 LP  0  0  0  0  0  0  0  0  0  0  0  0  # atno 16469 bound_to 9876
    4.5354   12.9516   39.2367 LP  0  0  0  0  0  0  0  0  0  0  0  0  # atno 16470 bound_to 9876
   -4.5304   16.2552   29.8078 LP  0  0  0  0  0  0  0  0  0  0  0  0  # atno 16477 bound_to 10695
   -5.0287   17.5775   30.6262 LP  0  0  0  0  0  0  0  0  0  0  0  0  # atno 16478 bound_to 10695
    5.0871    6.1991   42.0182 LP  0  0  0  0  0  0  0  0  0  0  0  0  # atno 16495 bound_to 9617
    5.3180    5.0375   40.7544 LP  0  0  0  0  0  0  0  0  0  0  0  0  # atno 16496 bound_to 9617
    6.6794   10.1314   41.6830 LP  0  0  0  0  0  0  0  0  0  0  0  0  # atno 16497 bound_to 9705
    7.9913   10.1176   40.5521 LP  0  0  0  0  0  0  0  0  0  0  0  0  # atno 16498 bound_to 9705
    7.3512    8.1076   41.4977 LP  0  0  0  0  0  0  0  0  0  0  0  0  # atno 16499 bound_to 9759
    5.6019    2.1034   35.5373 LP  0  0  0  0  0  0  0  0  0  0  0  0  # atno 16500 bound_to 11530
    7.0825    1.7477   36.3626 LP  0  0  0  0  0  0  0  0  0  0  0  0  # atno 16501 bound_to 11530
    7.0881    4.1858   31.1712 LP  0  0  0  0  0  0  0  0  0  0  0  0  # atno 16504 bound_to 11361
    7.6678    2.5679   31.3872 LP  0  0  0  0  0  0  0  0  0  0  0  0  # atno 16505 bound_to 11361
    6.9800    2.5865   32.7708 LP  0  0  0  0  0  0  0  0  0  0  0  0  # atno 16508 bound_to 11587
   12.3984    8.9638   34.6079 LP  0  0  0  0  0  0  0  0  0  0  0  0  # atno 16509 bound_to 11538
   13.2641    7.8509   33.7840 LP  0  0  0  0  0  0  0  0  0  0  0  0  # atno 16510 bound_to 11538
   11.1218    3.1595   32.0757 LP  0  0  0  0  0  0  0  0  0  0  0  0  # atno 16511 bound_to 11318
   10.9786    4.6987   32.8569 LP  0  0  0  0  0  0  0  0  0  0  0  0  # atno 16512 bound_to 11318
   11.0935    5.3290   29.1474 LP  0  0  0  0  0  0  0  0  0  0  0  0  # atno 16513 bound_to 11358
   10.3843    3.0568   29.4419 LP  0  0  0  0  0  0  0  0  0  0  0  0  # atno 16514 bound_to 11416
   10.4711    2.4735   33.9748 LP  0  0  0  0  0  0  0  0  0  0  0  0  # atno 16515 bound_to 11527
    4.4360   -0.2595   35.2820 LP  0  0  0  0  0  0  0  0  0  0  0  0  # atno 16520 bound_to 11590
    4.5369   -1.7684   34.4375 LP  0  0  0  0  0  0  0  0  0  0  0  0  # atno 16521 bound_to 11590
    3.9549   -1.1425   36.3300 LP  0  0  0  0  0  0  0  0  0  0  0  0  # atno 16522 bound_to 11800
    2.3317   -2.0332   39.3150 LP  0  0  0  0  0  0  0  0  0  0  0  0  # atno 16523 bound_to 11756
    2.0633   -0.3468   39.6051 LP  0  0  0  0  0  0  0  0  0  0  0  0  # atno 16524 bound_to 11756
    8.1111    0.1604   32.2109 LP  0  0  0  0  0  0  0  0  0  0  0  0  # atno 16543 bound_to 11419
    8.5119   -0.9377   30.9328 LP  0  0  0  0  0  0  0  0  0  0  0  0  # atno 16544 bound_to 11419
    7.2004   -0.8379   32.7790 LP  0  0  0  0  0  0  0  0  0  0  0  0  # atno 16545 bound_to 11632
   11.1365    1.0514   30.5784 LP  0  0  0  0  0  0  0  0  0  0  0  0  # atno 16546 bound_to 11466
    9.4526   -0.4676   34.2986 LP  0  0  0  0  0  0  0  0  0  0  0  0  # atno 16547 bound_to 11469
    8.7391    0.8405   35.1816 LP  0  0  0  0  0  0  0  0  0  0  0  0  # atno 16548 bound_to 11469
    5.6394   -0.1865   36.8305 LP  0  0  0  0  0  0  0  0  0  0  0  0  # atno 16549 bound_to 11753
    6.8164   -1.2261   35.9307 LP  0  0  0  0  0  0  0  0  0  0  0  0  # atno 16550 bound_to 11697
   -2.7371   10.9594   12.8683 LP  0  0  0  0  0  0  0  0  0  0  0  0  # atno 16565 bound_to 11526
   -3.2586   11.8686   11.6162 LP  0  0  0  0  0  0  0  0  0  0  0  0  # atno 16566 bound_to 11526
    4.7168   15.5887   14.0700 LP  0  0  0  0  0  0  0  0  0  0  0  0  # atno 16567 bound_to 9334
    4.0518   14.5989   12.9544 LP  0  0  0  0  0  0  0  0  0  0  0  0  # atno 16568 bound_to 9334
   12.8184    1.9315   29.4645 LP  0  0  0  0  0  0  0  0  0  0  0  0  # atno 16571 bound_to 11269
   11.4947    3.0416   29.3400 LP  0  0  0  0  0  0  0  0  0  0  0  0  # atno 16572 bound_to 11269
   14.7736    8.3259   17.5242 LP  0  0  0  0  0  0  0  0  0  0  0  0  # atno 16581 bound_to 15454
   16.1068    9.2413   17.7504 LP  0  0  0  0  0  0  0  0  0  0  0  0  # atno 16582 bound_to 15454
   15.9179   13.2469   24.3043 LP  0  0  0  0  0  0  0  0  0  0  0  0  # atno 16589 bound_to 5760
   17.0598   12.0950   24.1148 LP  0  0  0  0  0  0  0  0  0  0  0  0  # atno 16590 bound_to 5760
   15.6980    4.9824   11.2865 LP  0  0  0  0  0  0  0  0  0  0  0  0  # atno 16601 bound_to 1810
   16.2521    6.3734   10.6345 LP  0  0  0  0  0  0  0  0  0  0  0  0  # atno 16602 bound_to 1810
   15.0111   18.0511   14.0682 LP  0  0  0  0  0  0  0  0  0  0  0  0  # atno 16609 bound_to 8455
   14.1347   19.2535   14.7411 LP  0  0  0  0  0  0  0  0  0  0  0  0  # atno 16610 bound_to 8455
    6.8039    7.7411    9.2915 LP  0  0  0  0  0  0  0  0  0  0  0  0  # atno 16611 bound_to 1872
    5.8199    8.8847    8.6668 LP  0  0  0  0  0  0  0  0  0  0  0  0  # atno 16612 bound_to 1872
    4.5373   16.8305   22.5450 LP  0  0  0  0  0  0  0  0  0  0  0  0  # atno 16621 bound_to 9468
    3.4437   17.8471   23.2061 LP  0  0  0  0  0  0  0  0  0  0  0  0  # atno 16622 bound_to 9468

> <Gold.Score>
     Fitness  S(hb_ext) S(vdw_ext)  S(hb_int)    S(int)      intcor
     32.83       4.70      21.32       0.00      -1.18      -0.76

> <Gold.Goldscore.Fitness>
32.8304

> <Gold.Goldscore.Internal.Vdw>
-1.1439

> <Gold.Goldscore.Internal.Torsion>
-0.7980

> <Gold.Goldscore.External.Vdw>
21.3216

> <Gold.Goldscore.Internal.HBond>
0.0000

> <Gold.Goldscore.External.HBond>
4.6965

> <Gold.Goldscore.Internal.Correction>
-0.7585

> <Gold.Goldscore.Hbonds>
donor molecule, donor type, donor heavy atom, donor atom, acceptor molecule, acceptor atom, score
      P1  H  1867  1886       L1    11  0.19
      P1  H  7864  7898       L1     9  0.56
      L1  H     8    22       P1  7865  0.98
      L1  H    10    23       P1  1807  0.61

> <Gold.Goldscore.Internal.Vdw.Weighted>
-1.1439

> <Gold.Goldscore.Internal.Torsion.Weighted>
-0.7980

> <Gold.Goldscore.External.Vdw.Weighted>
29.3172

> <Gold.Goldscore.Internal.HBond.Weighted>
0.0000

> <Gold.Goldscore.External.HBond.Weighted>
4.6965

> <Gold.Goldscore.Internal.Correction.Weighted>
-0.7585

> <Gold.Rescore>
     Score     S(PLP)   S(hbond)     S(cho)   S(metal)  DE(clash)   DE(tors)     intcor
     25.21     -22.47       1.54       0.00       0.00       0.00       0.94       ----

> <Gold.PLP.Fitness>
25.2125

> <Gold.PLP.PLP>
-22.4718

> <Gold.PLP.part.hbond>
-1.8835

> <Gold.PLP.part.metal>
0.0000

> <Gold.PLP.part.buried>
-1.0432

> <Gold.PLP.part.nonpolar>
-23.6305

> <Gold.PLP.part.repulsive>
5.0882

> <Gold.PLP.ligand.clash>
0.0000

> <Gold.PLP.ligand.torsion>
0.9447

> <Gold.PLP.Chemscore.Hbond>
1.5434

> <Gold.PLP.Chemscore.CHOScore>
0.0000

> <Gold.PLP.Chemscore.Metal>
0.0000

> <Gold.Chemscore.Hbonds>
donor molecule, donor type, donor heavy atom, donor atom, acceptor molecule, acceptor atom, score
      L1  H     8    22       P1  7865  0.99
      P1  H  1867  1886       L1    11  0.47
      P1  H  7864  7898       L1     9  0.06

> <Gold.PLP.Chemscore.Internal.Correction>
   9.000000E+99

#       Name:                CT1002167954
#       Creating user name   hitesit
#       Creation time:       Sun Apr 16 22:53:24 2023


#       File generated by GOLD software.
#

@<TRIPOS>MOLECULE
CT1002167954|ligand_prepared|mol2|1|dock8
    29    30     1
SMALL
NO_CHARGES


@<TRIPOS>ATOM
      1 C1           9.0202  12.7140  11.6782 C.3            1 RES1               0.0000
      2 C2           9.7728  12.2081  12.9258 C.ar           1 RES1               0.0000
      3 C3           8.1103  11.5723  11.2345 C.2            1 RES1               0.0000
      4 C4           8.2747  13.9717  12.1106 C.2            1 RES1               0.0000
      5 C5           9.9474  13.0898  10.4989 C.3            1 RES1               0.0000
      6 C6          10.9140  12.8632  13.3790 C.ar           1 RES1               0.0000
      7 C7           9.3373  11.0914  13.6342 C.ar           1 RES1               0.0000
      8 N8           6.7736  11.7007  11.4727 N.am           1 RES1               0.0000
      9 O9           8.5631  10.5576  10.7193 O.2            1 RES1               0.0000
     10 N10          6.9048  13.9382  12.1099 N.am           1 RES1               0.0000
     11 O11          8.8612  14.9860  12.4677 O.2            1 RES1               0.0000
     12 C12          9.2037  13.4028   9.2100 C.3            1 RES1               0.0000
     13 C13         11.5935  12.4197  14.5015 C.ar           1 RES1               0.0000
     14 C14         10.0184  10.6495  14.7563 C.ar           1 RES1               0.0000
     15 C15          6.1207  12.8498  11.8400 C.2            1 RES1               0.0000
     16 C16         11.1460  11.3130  15.1911 C.ar           1 RES1               0.0000
     17 O17          4.8957  12.8831  11.9134 O.2            1 RES1               0.0000
     18 H18         10.5440  13.9652  10.7839 H              1 RES1               0.0000
     19 H19         10.6388  12.2584  10.3145 H              1 RES1               0.0000
     20 H20         11.2825  13.7344  12.8478 H              1 RES1               0.0000
     21 H21          8.4532  10.5531  13.3098 H              1 RES1               0.0000
     22 H22          6.2071  10.8650  11.3682 H              1 RES1               0.0000
     23 H23          6.4250  14.8050  12.3310 H              1 RES1               0.0000
     24 H24          9.9008  13.6601   8.4153 H              1 RES1               0.0000
     25 H25          8.6194  12.5450   8.8837 H              1 RES1               0.0000
     26 H26          8.5251  14.2417   9.3503 H              1 RES1               0.0000
     27 H27         12.4812  12.9446  14.8388 H              1 RES1               0.0000
     28 H28          9.6630   9.7776  15.2956 H              1 RES1               0.0000
     29 H29         11.6783  10.9660  16.0706 H              1 RES1               0.0000
@<TRIPOS>BOND
    1    1    2 1     
    2    1    3 1     
    3    1    4 1     
    4    1    5 1     
    5    2    6 ar    
    6    2    7 ar    
    7    3    8 1     
    8    3    9 2     
    9    4   10 1     
   10    4   11 2     
   11    5   12 1     
   12    5   18 1     
   13    5   19 1     
   14    6   13 ar    
   15    6   20 1     
   16    7   14 ar    
   17    7   21 1     
   18    8   15 1     
   19    8   22 1     
   20   10   15 1     
   21   10   23 1     
   22   12   24 1     
   23   12   25 1     
   24   12   26 1     
   25   13   16 ar    
   26   13   27 1     
   27   14   16 ar    
   28   14   28 1     
   29   15   17 2     
   30   16   29 1     
@<TRIPOS>SUBSTRUCTURE
      1 RES1           1
@<TRIPOS>SET
DONOR_HYDROGENS      STATIC     ATOMS    <user>   **** ""
2 22 23
ATOM$RED        STATIC     ATOMS    COLORGROUP SYSTEM
2 22 23
@<TRIPOS>COMMENT
> <Gold.Version>
2022.3.0

> <Gold.Id.Protein>
unknown|3mvj_clean|pdb

> <Gold.Protein.RotatedTorsions>
[ 9935 9915 9914 9913 ] final  -80.61 input   59.98 | X-H torsion
[ 10984 10935 10934 10932 ] final  -10.28 input   60.03 | X-H torsion
[ 9832 9816 9817 9818 ] final    5.72 input   89.09 | X-H torsion
[ 9883 9871 9872 9873 ] final  169.06 input -126.12 | X-H torsion
[ 9925 9907 9908 9909 ] final  -36.59 input  109.17 | X-H torsion
[ 9887 9876 9875 9872 ] final  -29.98 input   59.96 | X-H torsion
[ 10746 10695 10694 10692 ] final  137.20 input   59.99 | X-H torsion
[ 11686 11631 11630 11629 ] final -122.68 input   60.02 | X-H torsion
[ 9775 9759 9760 9761 ] final  115.34 input  126.36 | X-H torsion
[ 11605 11587 11588 11589 ] final  101.46 input  114.14 | X-H torsion
[ 11559 11538 11537 11535 ] final   40.61 input   60.01 | X-H torsion
[ 11374 11358 11359 11360 ] final  -10.15 input   98.08 | X-H torsion
[ 11434 11416 11417 11418 ] final   59.00 input  102.35 | X-H torsion
[ 11551 11527 11528 11529 ] final   -0.10 input  127.83 | X-H torsion
[ 11812 11800 11801 11802 ] final   15.86 input  127.47 | X-H torsion
[ 11650 11632 11633 11634 ] final  103.44 input  113.96 | X-H torsion
[ 11482 11466 11467 11468 ] final  -35.47 input  126.08 | X-H torsion
[ 11767 11753 11754 11755 ] final  -96.48 input  105.73 | X-H torsion
[ 11713 11697 11698 11699 ] final  -68.54 input  116.95 | X-H torsion
[ 11576 11526 11525 11523 ] final   20.29 input   60.00 | X-H torsion
[ 9362 9334 9332 9329 ] final -120.83 input   60.01 | X-H torsion
[ 7768 7713 7712 7711 ] final   79.19 input   60.03 | X-H torsion
[ 15484 15454 15453 15451 ] final  121.93 input   59.98 | X-H torsion
[ 5787 5760 5759 5756 ] final  168.22 input   59.99 | X-H torsion
[ 1829 1810 1808 1805 ] final -105.79 input   60.00 | X-H torsion
[ 8490 8455 8453 8450 ] final  -19.98 input   60.02 | X-H torsion
[ 1885 1872 1871 1868 ] final   -7.07 input   59.98 | X-H torsion
[ 9510 9468 9467 9465 ] final  168.14 input   60.02 | X-H torsion
[ 3466 3411 3410 3409 ] final  121.98 input   59.97 | X-H torsion
[ 16458 9819 9818 9817 ] final   -9.43 input    0.00 | X-H torsion
[ 16464 9874 9873 9872 ] final -121.43 input    0.00 | X-H torsion
[ 16467 9762 9761 9760 ] final  -97.81 input    0.00 | X-H torsion
[ 16495 9617 9616 9615 ] final  178.34 input    0.00 | X-H torsion
[ 16497 9705 9704 9703 ] final  172.76 input    0.00 | X-H torsion
[ 16500 11530 11529 11528 ] final  -25.86 input    0.00 | X-H torsion
[ 16504 11361 11360 11359 ] final   27.67 input    0.00 | X-H torsion
[ 16511 11318 11317 11316 ] final  -22.28 input    0.00 | X-H torsion
[ 16520 11590 11589 11588 ] final  156.75 input    0.00 | X-H torsion
[ 16523 11756 11755 11754 ] final   27.21 input    0.00 | X-H torsion
[ 16543 11419 11418 11417 ] final  -29.93 input   -0.00 | X-H torsion
[ 16547 11469 11468 11467 ] final  -14.57 input    0.00 | X-H torsion
[ 16571 11269 11268 11267 ] final  179.28 input   -0.00 | X-H torsion

> <Gold.Protein.ActiveResidues>
 THR48   LEU49   GLY50   THR51   GLY52   SER53   PHE54   GLY55   ARG56   VAL57  
 LYS78   LYS81   LEU82   LYS83   GLN84   HIS87   GLU127  PHE129  SER130  LEU132 
 ARG133  ARG134  ILE135  GLY136  ARG137  ARG165  ASP166  LEU167  LYS168  PRO169 
 GLU170  ASN171  LEU172  LEU173  THR183  ASP184  GLY186  PHE187  TPO197  LEU198 
 CYS199  GLY200  THR201  PRO202  GLU203  TYR204  LEU205  PRO207  ILE209  ILE210 
 LEU211  SER212  LYS213  VAL226  LEU227  TYR229  GLU230  ALA233  GLY234  TYR235 
 PRO236  PRO237  PHE238  PHE239  ALA240  ASP241  GLN242  PRO243  ILE244  GLN245 
 ILE246  TYR247  GLU248  LYS249  ILE250  VAL251  SER252  ARG256  PHE257  PRO258 
 SER259  PHE327  ASP328  TYR330 

> <Gold.Protein.RotatedAtoms>
   14.6400    5.5242   10.7767 H   0  0  0  0  0  0  0  0  0  0  0  0  # atno 1829 bound_to 1810
    6.9330    7.8370    9.5094 H   0  0  0  0  0  0  0  0  0  0  0  0  # atno 1885 bound_to 1872
    0.0846   11.8245   -6.6776 H   0  0  0  0  0  0  0  0  0  0  0  0  # atno 3466 bound_to 3411
    1.7000   12.0586   -6.3888 H   0  0  0  0  0  0  0  0  0  0  0  0  # atno 3467 bound_to 3411
    0.9856   10.6179   -5.9865 H   0  0  0  0  0  0  0  0  0  0  0  0  # atno 3468 bound_to 3411
   17.2168   12.0200   24.5043 H   0  0  0  0  0  0  0  0  0  0  0  0  # atno 5787 bound_to 5760
    6.0935   13.4050   14.6869 H   0  0  0  0  0  0  0  0  0  0  0  0  # atno 7768 bound_to 7713
    7.6297   13.0345   14.1873 H   0  0  0  0  0  0  0  0  0  0  0  0  # atno 7769 bound_to 7713
    7.1619   12.7053   15.7430 H   0  0  0  0  0  0  0  0  0  0  0  0  # atno 7770 bound_to 7713
   14.2365   19.3377   14.9222 H   0  0  0  0  0  0  0  0  0  0  0  0  # atno 8490 bound_to 8455
    5.0563   13.9988   14.0881 H   0  0  0  0  0  0  0  0  0  0  0  0  # atno 9362 bound_to 9334
    4.4923   18.6108   22.6905 H   0  0  0  0  0  0  0  0  0  0  0  0  # atno 9510 bound_to 9468
    7.7494    6.5302   41.2239 H   0  0  0  0  0  0  0  0  0  0  0  0  # atno 9775 bound_to 9759
    5.6038    8.3180   40.7612 H   0  0  0  0  0  0  0  0  0  0  0  0  # atno 9832 bound_to 9816
    4.9612   10.3097   40.4956 H   0  0  0  0  0  0  0  0  0  0  0  0  # atno 9883 bound_to 9871
    5.8434   12.5834   40.4973 H   0  0  0  0  0  0  0  0  0  0  0  0  # atno 9887 bound_to 9876
    3.6391   11.2483   43.7308 H   0  0  0  0  0  0  0  0  0  0  0  0  # atno 9925 bound_to 9907
   -2.1793    7.1463   43.3197 H   0  0  0  0  0  0  0  0  0  0  0  0  # atno 9935 bound_to 9915
   -0.9208    8.0534   42.7352 H   0  0  0  0  0  0  0  0  0  0  0  0  # atno 9936 bound_to 9915
   -1.4213    6.7040   41.9131 H   0  0  0  0  0  0  0  0  0  0  0  0  # atno 9937 bound_to 9915
   -4.5769   17.5754   31.1071 H   0  0  0  0  0  0  0  0  0  0  0  0  # atno 10746 bound_to 10695
   -3.4646   14.9967   32.9582 H   0  0  0  0  0  0  0  0  0  0  0  0  # atno 10984 bound_to 10935
   11.2604    4.1640   29.9960 H   0  0  0  0  0  0  0  0  0  0  0  0  # atno 11374 bound_to 11358
   10.4194    3.0313   29.7612 H   0  0  0  0  0  0  0  0  0  0  0  0  # atno 11434 bound_to 11416
    9.5393    1.1354   31.1352 H   0  0  0  0  0  0  0  0  0  0  0  0  # atno 11482 bound_to 11466
    9.3555    1.7911   33.0633 H   0  0  0  0  0  0  0  0  0  0  0  0  # atno 11551 bound_to 11527
   13.5149    7.4584   34.5099 H   0  0  0  0  0  0  0  0  0  0  0  0  # atno 11559 bound_to 11538
   -2.7136   11.3452   12.7869 H   0  0  0  0  0  0  0  0  0  0  0  0  # atno 11576 bound_to 11526
    7.5032    1.8028   32.5538 H   0  0  0  0  0  0  0  0  0  0  0  0  # atno 11605 bound_to 11587
    7.7061   -0.4941   33.3202 H   0  0  0  0  0  0  0  0  0  0  0  0  # atno 11650 bound_to 11632
   -9.0756    7.9389   25.7528 H   0  0  0  0  0  0  0  0  0  0  0  0  # atno 11686 bound_to 11631
   -7.8114    9.0066   25.8392 H   0  0  0  0  0  0  0  0  0  0  0  0  # atno 11687 bound_to 11631
   -8.9538    8.9779   27.0390 H   0  0  0  0  0  0  0  0  0  0  0  0  # atno 11688 bound_to 11631
    7.3452   -2.0155   36.1043 H   0  0  0  0  0  0  0  0  0  0  0  0  # atno 11713 bound_to 11697
    6.3015   -0.2019   38.3839 H   0  0  0  0  0  0  0  0  0  0  0  0  # atno 11767 bound_to 11753
    4.0737   -1.5716   37.7867 H   0  0  0  0  0  0  0  0  0  0  0  0  # atno 11812 bound_to 11800
   15.1334    8.8142   17.2323 H   0  0  0  0  0  0  0  0  0  0  0  0  # atno 15484 bound_to 15454
    1.4939    9.6524   40.5241 LP  0  0  0  0  0  0  0  0  0  0  0  0  # atno 16458 bound_to 9819
    2.0712   10.8067   41.6792 LP  0  0  0  0  0  0  0  0  0  0  0  0  # atno 16459 bound_to 9819
   -2.2225   15.1249   34.0017 LP  0  0  0  0  0  0  0  0  0  0  0  0  # atno 16460 bound_to 10935
   -3.1048   13.7521   33.9429 LP  0  0  0  0  0  0  0  0  0  0  0  0  # atno 16461 bound_to 10935
    5.2296    7.1354   39.5318 LP  0  0  0  0  0  0  0  0  0  0  0  0  # atno 16462 bound_to 9816
    4.0301    9.4761   41.7181 LP  0  0  0  0  0  0  0  0  0  0  0  0  # atno 16463 bound_to 9871
    2.6831   12.9023   44.4734 LP  0  0  0  0  0  0  0  0  0  0  0  0  # atno 16464 bound_to 9874
    2.0434   12.9625   42.8649 LP  0  0  0  0  0  0  0  0  0  0  0  0  # atno 16465 bound_to 9874
    3.1850    9.6186   43.2913 LP  0  0  0  0  0  0  0  0  0  0  0  0  # atno 16466 bound_to 9907
    5.7902   10.1274   38.6698 LP  0  0  0  0  0  0  0  0  0  0  0  0  # atno 16467 bound_to 9762
    5.5193    8.9096   37.4683 LP  0  0  0  0  0  0  0  0  0  0  0  0  # atno 16468 bound_to 9762
    5.0392   13.8451   39.8570 LP  0  0  0  0  0  0  0  0  0  0  0  0  # atno 16469 bound_to 9876
    4.7247   12.3272   39.3435 LP  0  0  0  0  0  0  0  0  0  0  0  0  # atno 16470 bound_to 9876
   -3.7180   16.2590   30.6879 LP  0  0  0  0  0  0  0  0  0  0  0  0  # atno 16477 bound_to 10695
   -4.9971   16.7246   29.7858 LP  0  0  0  0  0  0  0  0  0  0  0  0  # atno 16478 bound_to 10695
    5.0369    6.1775   42.0266 LP  0  0  0  0  0  0  0  0  0  0  0  0  # atno 16495 bound_to 9617
    5.3683    5.0592   40.7461 LP  0  0  0  0  0  0  0  0  0  0  0  0  # atno 16496 bound_to 9617
    7.2582    9.8497   40.2999 LP  0  0  0  0  0  0  0  0  0  0  0  0  # atno 16497 bound_to 9705
    7.4125   10.3992   41.9352 LP  0  0  0  0  0  0  0  0  0  0  0  0  # atno 16498 bound_to 9705
    7.8796    8.2700   41.3475 LP  0  0  0  0  0  0  0  0  0  0  0  0  # atno 16499 bound_to 9759
    7.0676    2.0232   36.4129 LP  0  0  0  0  0  0  0  0  0  0  0  0  # atno 16500 bound_to 11530
    5.6168    1.8279   35.4871 LP  0  0  0  0  0  0  0  0  0  0  0  0  # atno 16501 bound_to 11530
    7.1267    4.2046   31.2385 LP  0  0  0  0  0  0  0  0  0  0  0  0  # atno 16504 bound_to 11361
    7.6293    2.5491   31.3199 LP  0  0  0  0  0  0  0  0  0  0  0  0  # atno 16505 bound_to 11361
    7.0049    2.2603   34.1684 LP  0  0  0  0  0  0  0  0  0  0  0  0  # atno 16508 bound_to 11587
   12.7006    8.4976   35.4609 LP  0  0  0  0  0  0  0  0  0  0  0  0  # atno 16509 bound_to 11538
   12.6574    8.6666   33.8373 LP  0  0  0  0  0  0  0  0  0  0  0  0  # atno 16510 bound_to 11538
   11.8369    3.5888   32.5896 LP  0  0  0  0  0  0  0  0  0  0  0  0  # atno 16511 bound_to 11318
   10.2634    4.2694   32.3430 LP  0  0  0  0  0  0  0  0  0  0  0  0  # atno 16512 bound_to 11318
   11.3129    5.8985   29.8898 LP  0  0  0  0  0  0  0  0  0  0  0  0  # atno 16513 bound_to 11358
    8.7861    3.6215   29.5776 LP  0  0  0  0  0  0  0  0  0  0  0  0  # atno 16514 bound_to 11416
   10.4156    3.0664   33.6013 LP  0  0  0  0  0  0  0  0  0  0  0  0  # atno 16515 bound_to 11527
    4.8063   -1.8127   34.7611 LP  0  0  0  0  0  0  0  0  0  0  0  0  # atno 16520 bound_to 11590
    4.1665   -0.2153   34.9584 LP  0  0  0  0  0  0  0  0  0  0  0  0  # atno 16521 bound_to 11590
    3.2863   -0.6594   36.5207 LP  0  0  0  0  0  0  0  0  0  0  0  0  # atno 16522 bound_to 11800
    2.1992   -0.3630   39.7170 LP  0  0  0  0  0  0  0  0  0  0  0  0  # atno 16523 bound_to 11756
    2.1958   -2.0170   39.2030 LP  0  0  0  0  0  0  0  0  0  0  0  0  # atno 16524 bound_to 11756
    7.6178    0.0065   31.2361 LP  0  0  0  0  0  0  0  0  0  0  0  0  # atno 16543 bound_to 11419
    9.0052   -0.7837   31.9075 LP  0  0  0  0  0  0  0  0  0  0  0  0  # atno 16544 bound_to 11419
    6.0083   -0.6065   33.7092 LP  0  0  0  0  0  0  0  0  0  0  0  0  # atno 16545 bound_to 11632
   11.1921    1.4773   30.6671 LP  0  0  0  0  0  0  0  0  0  0  0  0  # atno 16546 bound_to 11466
    9.4074   -0.4675   34.2655 LP  0  0  0  0  0  0  0  0  0  0  0  0  # atno 16547 bound_to 11469
    8.7843    0.8404   35.2148 LP  0  0  0  0  0  0  0  0  0  0  0  0  # atno 16548 bound_to 11469
    5.7146    0.2506   36.8013 LP  0  0  0  0  0  0  0  0  0  0  0  0  # atno 16549 bound_to 11753
    7.9818   -0.4335   35.6881 LP  0  0  0  0  0  0  0  0  0  0  0  0  # atno 16550 bound_to 11697
   -3.4428   11.6286   11.3600 LP  0  0  0  0  0  0  0  0  0  0  0  0  # atno 16565 bound_to 11526
   -3.3870   10.1127   11.9647 LP  0  0  0  0  0  0  0  0  0  0  0  0  # atno 16566 bound_to 11526
    4.7147   15.5900   14.0677 LP  0  0  0  0  0  0  0  0  0  0  0  0  # atno 16567 bound_to 9334
    4.0525   14.5956   12.9544 LP  0  0  0  0  0  0  0  0  0  0  0  0  # atno 16568 bound_to 9334
   12.1611    2.9114   30.1569 LP  0  0  0  0  0  0  0  0  0  0  0  0  # atno 16571 bound_to 11269
   12.1521    2.0616   28.6476 LP  0  0  0  0  0  0  0  0  0  0  0  0  # atno 16572 bound_to 11269
   16.3078    8.9904   18.3444 LP  0  0  0  0  0  0  0  0  0  0  0  0  # atno 16581 bound_to 15454
   15.1268    7.8851   18.5680 LP  0  0  0  0  0  0  0  0  0  0  0  0  # atno 16582 bound_to 15454
   16.4437   12.9965   25.5512 LP  0  0  0  0  0  0  0  0  0  0  0  0  # atno 16589 bound_to 5760
   16.0641   13.0330   23.9634 LP  0  0  0  0  0  0  0  0  0  0  0  0  # atno 16590 bound_to 5760
   16.1709    5.2315   11.2455 LP  0  0  0  0  0  0  0  0  0  0  0  0  # atno 16601 bound_to 1810
   15.8127    6.5960   10.4230 LP  0  0  0  0  0  0  0  0  0  0  0  0  # atno 16602 bound_to 1810
   15.6567   18.6385   15.2992 LP  0  0  0  0  0  0  0  0  0  0  0  0  # atno 16609 bound_to 8455
   14.8139   18.1307   13.9959 LP  0  0  0  0  0  0  0  0  0  0  0  0  # atno 16610 bound_to 8455
    5.8615    8.6317    8.5776 LP  0  0  0  0  0  0  0  0  0  0  0  0  # atno 16611 bound_to 1872
    6.5351    9.3738    9.8669 LP  0  0  0  0  0  0  0  0  0  0  0  0  # atno 16612 bound_to 1872
    4.8318   17.0461   22.4013 LP  0  0  0  0  0  0  0  0  0  0  0  0  # atno 16621 bound_to 9468
    3.4528   17.4563   23.1738 LP  0  0  0  0  0  0  0  0  0  0  0  0  # atno 16622 bound_to 9468

> <Gold.Score>
     Fitness  S(hb_ext) S(vdw_ext)  S(hb_int)    S(int)      intcor
     32.60       6.59      19.79       0.00      -1.20      -0.76

> <Gold.Goldscore.Fitness>
32.5961

> <Gold.Goldscore.Internal.Vdw>
-1.4835

> <Gold.Goldscore.Internal.Torsion>
-0.4742

> <Gold.Goldscore.External.Vdw>
19.7867

> <Gold.Goldscore.Internal.HBond>
0.0000

> <Gold.Goldscore.External.HBond>
6.5887

> <Gold.Goldscore.Internal.Correction>
-0.7585

> <Gold.Goldscore.Hbonds>
donor molecule, donor type, donor heavy atom, donor atom, acceptor molecule, acceptor atom, score
      P1  H  1867  1886       L1     9  0.53
      P1  H  7864  7898       L1    11  0.63
      L1  H    10    23       P1  7618  0.71

> <Gold.Goldscore.Internal.Vdw.Weighted>
-1.4835

> <Gold.Goldscore.Internal.Torsion.Weighted>
-0.4742

> <Gold.Goldscore.External.Vdw.Weighted>
27.2067

> <Gold.Goldscore.Internal.HBond.Weighted>
0.0000

> <Gold.Goldscore.External.HBond.Weighted>
6.5887

> <Gold.Goldscore.Internal.Correction.Weighted>
-0.7585

> <Gold.Rescore>
     Score     S(PLP)   S(hbond)     S(cho)   S(metal)  DE(clash)   DE(tors)     intcor
     30.36     -24.81       2.39       0.00       0.00       1.19       0.21       ----

> <Gold.PLP.Fitness>
30.3625

> <Gold.PLP.PLP>
-24.8146

> <Gold.PLP.part.hbond>
-3.0000

> <Gold.PLP.part.metal>
0.0000

> <Gold.PLP.part.buried>
-5.2375

> <Gold.PLP.part.nonpolar>
-21.5344

> <Gold.PLP.part.repulsive>
4.4637

> <Gold.PLP.ligand.clash>
1.1906

> <Gold.PLP.ligand.torsion>
0.2116

> <Gold.PLP.Chemscore.Hbond>
2.3872

> <Gold.PLP.Chemscore.CHOScore>
0.0000

> <Gold.PLP.Chemscore.Metal>
0.0000

> <Gold.Chemscore.Hbonds>
donor molecule, donor type, donor heavy atom, donor atom, acceptor molecule, acceptor atom, score
      L1  H    10    23       P1  7619  0.26
      P1  H  1867  1886       L1     9  1.00
      P1  H  7864  7898       L1    11  0.84

> <Gold.PLP.Chemscore.Internal.Correction>
   9.000000E+99

#       Name:                CT1002167954
#       Creating user name   hitesit
#       Creation time:       Sun Apr 16 22:53:20 2023


#       File generated by GOLD software.
#

@<TRIPOS>MOLECULE
CT1002167954|ligand_prepared|mol2|1|dock6
    29    30     1
SMALL
NO_CHARGES


@<TRIPOS>ATOM
      1 C1           9.1443  12.5800  11.6803 C.3            1 RES1               0.0000
      2 C2           9.6356  12.2180  13.0967 C.ar           1 RES1               0.0000
      3 C3           8.1956  11.4623  11.2572 C.2            1 RES1               0.0000
      4 C4           8.4815  13.9483  11.7953 C.2            1 RES1               0.0000
      5 C5          10.2778  12.6847  10.6335 C.3            1 RES1               0.0000
      6 C6           8.9105  11.3385  13.8950 C.ar           1 RES1               0.0000
      7 C7          10.8113  12.7525  13.6169 C.ar           1 RES1               0.0000
      8 N8           6.8601  11.7380  11.2447 N.am           1 RES1               0.0000
      9 O9           8.6101  10.3443  10.9769 O.2            1 RES1               0.0000
     10 N10          7.1327  14.0296  11.5675 N.am           1 RES1               0.0000
     11 O11          9.1122  14.9539  12.0975 O.2            1 RES1               0.0000
     12 C12          9.7810  12.7889   9.2001 C.3            1 RES1               0.0000
     13 C13          9.3464  11.0031  15.1662 C.ar           1 RES1               0.0000
     14 C14         11.2454  12.4160  14.8884 C.ar           1 RES1               0.0000
     15 C15          6.2866  12.9814  11.3276 C.2            1 RES1               0.0000
     16 C16         10.5142  11.5411  15.6635 C.ar           1 RES1               0.0000
     17 O17          5.0759  13.1281  11.1869 O.2            1 RES1               0.0000
     18 H18         10.8879  13.5676  10.8608 H              1 RES1               0.0000
     19 H19         10.9217  11.8008  10.7206 H              1 RES1               0.0000
     20 H20          7.9878  10.9069  13.5216 H              1 RES1               0.0000
     21 H21         11.4022  13.4437  13.0254 H              1 RES1               0.0000
     22 H22          6.2294  10.9465  11.1665 H              1 RES1               0.0000
     23 H23          6.7213  14.9575  11.5777 H              1 RES1               0.0000
     24 H24         10.6163  12.8598   8.5066 H              1 RES1               0.0000
     25 H25          9.1911  11.9149   8.9319 H              1 RES1               0.0000
     26 H26          9.1575  13.6712   9.0712 H              1 RES1               0.0000
     27 H27          8.7667  10.3152  15.7727 H              1 RES1               0.0000
     28 H28         12.1647  12.8423  15.2760 H              1 RES1               0.0000
     29 H29         10.8557  11.2779  16.6592 H              1 RES1               0.0000
@<TRIPOS>BOND
    1    1    2 1     
    2    1    3 1     
    3    1    4 1     
    4    1    5 1     
    5    2    6 ar    
    6    2    7 ar    
    7    3    8 1     
    8    3    9 2     
    9    4   10 1     
   10    4   11 2     
   11    5   12 1     
   12    5   18 1     
   13    5   19 1     
   14    6   13 ar    
   15    6   20 1     
   16    7   14 ar    
   17    7   21 1     
   18    8   15 1     
   19    8   22 1     
   20   10   15 1     
   21   10   23 1     
   22   12   24 1     
   23   12   25 1     
   24   12   26 1     
   25   13   16 ar    
   26   13   27 1     
   27   14   16 ar    
   28   14   28 1     
   29   15   17 2     
   30   16   29 1     
@<TRIPOS>SUBSTRUCTURE
      1 RES1           1
@<TRIPOS>SET
DONOR_HYDROGENS      STATIC     ATOMS    <user>   **** ""
2 22 23
ATOM$RED        STATIC     ATOMS    COLORGROUP SYSTEM
2 22 23
@<TRIPOS>COMMENT
> <Gold.Version>
2022.3.0

> <Gold.Id.Protein>
unknown|3mvj_clean|pdb

> <Gold.Protein.RotatedTorsions>
[ 9935 9915 9914 9913 ] final   12.49 input   59.98 | X-H torsion
[ 10984 10935 10934 10932 ] final -143.07 input   60.03 | X-H torsion
[ 9832 9816 9817 9818 ] final    9.61 input   89.09 | X-H torsion
[ 9883 9871 9872 9873 ] final  -15.83 input -126.12 | X-H torsion
[ 9925 9907 9908 9909 ] final  -23.08 input  109.17 | X-H torsion
[ 9887 9876 9875 9872 ] final   65.95 input   59.96 | X-H torsion
[ 10746 10695 10694 10692 ] final -177.69 input   59.99 | X-H torsion
[ 11686 11631 11630 11629 ] final  131.86 input   60.02 | X-H torsion
[ 9775 9759 9760 9761 ] final  150.39 input  126.36 | X-H torsion
[ 11605 11587 11588 11589 ] final   88.88 input  114.14 | X-H torsion
[ 11559 11538 11537 11535 ] final   43.08 input   60.01 | X-H torsion
[ 11374 11358 11359 11360 ] final  157.08 input   98.08 | X-H torsion
[ 11434 11416 11417 11418 ] final  162.72 input  102.35 | X-H torsion
[ 11551 11527 11528 11529 ] final  157.25 input  127.83 | X-H torsion
[ 11812 11800 11801 11802 ] final  -76.43 input  127.47 | X-H torsion
[ 11650 11632 11633 11634 ] final -172.95 input  113.96 | X-H torsion
[ 11482 11466 11467 11468 ] final  -62.55 input  126.08 | X-H torsion
[ 11767 11753 11754 11755 ] final  -91.42 input  105.73 | X-H torsion
[ 11713 11697 11698 11699 ] final   49.25 input  116.95 | X-H torsion
[ 11576 11526 11525 11523 ] final  -57.04 input   60.00 | X-H torsion
[ 9362 9334 9332 9329 ] final -125.09 input   60.01 | X-H torsion
[ 7768 7713 7712 7711 ] final  177.49 input   60.03 | X-H torsion
[ 15484 15454 15453 15451 ] final  -42.95 input   59.98 | X-H torsion
[ 5787 5760 5759 5756 ] final  131.41 input   59.99 | X-H torsion
[ 1829 1810 1808 1805 ] final  -78.13 input   60.00 | X-H torsion
[ 8490 8455 8453 8450 ] final  -58.47 input   60.02 | X-H torsion
[ 1885 1872 1871 1868 ] final   44.58 input   59.98 | X-H torsion
[ 9510 9468 9467 9465 ] final  -59.86 input   60.02 | X-H torsion
[ 3466 3411 3410 3409 ] final   83.49 input   59.97 | X-H torsion
[ 16458 9819 9818 9817 ] final -105.87 input    0.00 | X-H torsion
[ 16464 9874 9873 9872 ] final   27.70 input    0.00 | X-H torsion
[ 16467 9762 9761 9760 ] final  121.91 input    0.00 | X-H torsion
[ 16495 9617 9616 9615 ] final  -98.88 input    0.00 | X-H torsion
[ 16497 9705 9704 9703 ] final  178.85 input    0.00 | X-H torsion
[ 16500 11530 11529 11528 ] final -159.61 input    0.00 | X-H torsion
[ 16504 11361 11360 11359 ] final  -49.62 input    0.00 | X-H torsion
[ 16511 11318 11317 11316 ] final  171.19 input    0.00 | X-H torsion
[ 16520 11590 11589 11588 ] final  -93.31 input    0.00 | X-H torsion
[ 16523 11756 11755 11754 ] final  -60.95 input    0.00 | X-H torsion
[ 16543 11419 11418 11417 ] final  131.90 input   -0.00 | X-H torsion
[ 16547 11469 11468 11467 ] final   -5.99 input    0.00 | X-H torsion
[ 16571 11269 11268 11267 ] final  137.43 input   -0.00 | X-H torsion

> <Gold.Protein.ActiveResidues>
 THR48   LEU49   GLY50   THR51   GLY52   SER53   PHE54   GLY55   ARG56   VAL57  
 LYS78   LYS81   LEU82   LYS83   GLN84   HIS87   GLU127  PHE129  SER130  LEU132 
 ARG133  ARG134  ILE135  GLY136  ARG137  ARG165  ASP166  LEU167  LYS168  PRO169 
 GLU170  ASN171  LEU172  LEU173  THR183  ASP184  GLY186  PHE187  TPO197  LEU198 
 CYS199  GLY200  THR201  PRO202  GLU203  TYR204  LEU205  PRO207  ILE209  ILE210 
 LEU211  SER212  LYS213  VAL226  LEU227  TYR229  GLU230  ALA233  GLY234  TYR235 
 PRO236  PRO237  PHE238  PHE239  ALA240  ASP241  GLN242  PRO243  ILE244  GLN245 
 ILE246  TYR247  GLU248  LYS249  ILE250  VAL251  SER252  ARG256  PHE257  PRO258 
 SER259  PHE327  ASP328  TYR330 

> <Gold.Protein.RotatedAtoms>
   14.6474    5.9172   10.5623 H   0  0  0  0  0  0  0  0  0  0  0  0  # atno 1829 bound_to 1810
    7.0507    8.4650   10.0162 H   0  0  0  0  0  0  0  0  0  0  0  0  # atno 1885 bound_to 1872
    0.0105   11.2363   -6.4619 H   0  0  0  0  0  0  0  0  0  0  0  0  # atno 3466 bound_to 3411
    1.2071   12.3713   -6.6290 H   0  0  0  0  0  0  0  0  0  0  0  0  # atno 3467 bound_to 3411
    1.5525   10.8934   -5.9621 H   0  0  0  0  0  0  0  0  0  0  0  0  # atno 3468 bound_to 3411
   17.2192   12.1391   25.0832 H   0  0  0  0  0  0  0  0  0  0  0  0  # atno 5787 bound_to 5760
    7.3539   13.1844   14.0107 H   0  0  0  0  0  0  0  0  0  0  0  0  # atno 7768 bound_to 7713
    7.4760   12.6508   15.5750 H   0  0  0  0  0  0  0  0  0  0  0  0  # atno 7769 bound_to 7713
    6.0550   13.3094   15.0323 H   0  0  0  0  0  0  0  0  0  0  0  0  # atno 7770 bound_to 7713
   14.6817   19.3812   15.3474 H   0  0  0  0  0  0  0  0  0  0  0  0  # atno 8490 bound_to 8455
    5.0833   14.0432   14.1345 H   0  0  0  0  0  0  0  0  0  0  0  0  # atno 9362 bound_to 9334
    3.5149   17.2765   23.1244 H   0  0  0  0  0  0  0  0  0  0  0  0  # atno 9510 bound_to 9468
    8.2459    6.6647   41.0812 H   0  0  0  0  0  0  0  0  0  0  0  0  # atno 9775 bound_to 9759
    5.5849    8.2786   40.8019 H   0  0  0  0  0  0  0  0  0  0  0  0  # atno 9832 bound_to 9816
    4.0823    9.4599   41.7743 H   0  0  0  0  0  0  0  0  0  0  0  0  # atno 9883 bound_to 9871
    4.9571   12.0865   39.5474 H   0  0  0  0  0  0  0  0  0  0  0  0  # atno 9887 bound_to 9876
    3.7926   11.1517   43.8329 H   0  0  0  0  0  0  0  0  0  0  0  0  # atno 9925 bound_to 9907
   -1.1821    8.0881   43.0944 H   0  0  0  0  0  0  0  0  0  0  0  0  # atno 9935 bound_to 9915
   -1.1018    7.0053   41.8416 H   0  0  0  0  0  0  0  0  0  0  0  0  # atno 9936 bound_to 9915
   -2.2376    6.8110   43.0331 H   0  0  0  0  0  0  0  0  0  0  0  0  # atno 9937 bound_to 9915
   -5.0529   17.5526   30.5704 H   0  0  0  0  0  0  0  0  0  0  0  0  # atno 10746 bound_to 10695
   -2.1971   14.9499   34.1139 H   0  0  0  0  0  0  0  0  0  0  0  0  # atno 10984 bound_to 10935
   11.3038    5.8585   29.6968 H   0  0  0  0  0  0  0  0  0  0  0  0  # atno 11374 bound_to 11358
    9.4983    3.4086   28.7962 H   0  0  0  0  0  0  0  0  0  0  0  0  # atno 11434 bound_to 11416
    9.6802    0.7672   30.9982 H   0  0  0  0  0  0  0  0  0  0  0  0  # atno 11482 bound_to 11466
   10.2697    3.2195   33.3313 H   0  0  0  0  0  0  0  0  0  0  0  0  # atno 11551 bound_to 11527
   13.5133    7.4633   34.4698 H   0  0  0  0  0  0  0  0  0  0  0  0  # atno 11559 bound_to 11538
   -3.1098   11.9469   11.8652 H   0  0  0  0  0  0  0  0  0  0  0  0  # atno 11576 bound_to 11526
    7.5891    1.6539   32.6457 H   0  0  0  0  0  0  0  0  0  0  0  0  # atno 11605 bound_to 11587
    6.7942   -0.9292   32.7237 H   0  0  0  0  0  0  0  0  0  0  0  0  # atno 11650 bound_to 11632
   -9.1265    8.8122   27.0001 H   0  0  0  0  0  0  0  0  0  0  0  0  # atno 11686 bound_to 11631
   -8.8950    7.9662   25.5942 H   0  0  0  0  0  0  0  0  0  0  0  0  # atno 11687 bound_to 11631
   -7.8188    9.1456   26.0371 H   0  0  0  0  0  0  0  0  0  0  0  0  # atno 11688 bound_to 11631
    7.0870   -0.5260   35.8137 H   0  0  0  0  0  0  0  0  0  0  0  0  # atno 11713 bound_to 11697
    6.2796   -0.2751   38.3673 H   0  0  0  0  0  0  0  0  0  0  0  0  # atno 11767 bound_to 11753
    3.0813   -0.7737   37.7089 H   0  0  0  0  0  0  0  0  0  0  0  0  # atno 11812 bound_to 11800
   16.0750    8.4850   18.7970 H   0  0  0  0  0  0  0  0  0  0  0  0  # atno 15484 bound_to 15454
    1.9056   10.8766   40.5394 LP  0  0  0  0  0  0  0  0  0  0  0  0  # atno 16458 bound_to 9819
    1.6595    9.5825   41.6640 LP  0  0  0  0  0  0  0  0  0  0  0  0  # atno 16459 bound_to 9819
   -3.2599   13.7578   33.8015 LP  0  0  0  0  0  0  0  0  0  0  0  0  # atno 16460 bound_to 10935
   -3.3437   15.1663   32.9795 LP  0  0  0  0  0  0  0  0  0  0  0  0  # atno 16461 bound_to 10935
    5.2481    7.1741   39.4918 LP  0  0  0  0  0  0  0  0  0  0  0  0  # atno 16462 bound_to 9816
    4.8867   10.3043   40.4719 LP  0  0  0  0  0  0  0  0  0  0  0  0  # atno 16463 bound_to 9871
    2.4286   13.2154   42.8533 LP  0  0  0  0  0  0  0  0  0  0  0  0  # atno 16464 bound_to 9874
    2.2978   12.6494   44.4850 LP  0  0  0  0  0  0  0  0  0  0  0  0  # atno 16465 bound_to 9874
    3.0353    9.7129   43.1916 LP  0  0  0  0  0  0  0  0  0  0  0  0  # atno 16466 bound_to 9907
    5.0092    9.0575   37.7217 LP  0  0  0  0  0  0  0  0  0  0  0  0  # atno 16467 bound_to 9762
    6.3003    9.9795   38.4165 LP  0  0  0  0  0  0  0  0  0  0  0  0  # atno 16468 bound_to 9762
    5.8676   12.9680   40.5684 LP  0  0  0  0  0  0  0  0  0  0  0  0  # atno 16469 bound_to 9876
    4.7887   13.7046   39.5885 LP  0  0  0  0  0  0  0  0  0  0  0  0  # atno 16470 bound_to 9876
   -3.7571   16.7839   31.1840 LP  0  0  0  0  0  0  0  0  0  0  0  0  # atno 16477 bound_to 10695
   -4.4782   16.2226   29.8307 LP  0  0  0  0  0  0  0  0  0  0  0  0  # atno 16478 bound_to 10695
    5.9567    6.0430   41.3579 LP  0  0  0  0  0  0  0  0  0  0  0  0  # atno 16495 bound_to 9617
    4.4484    5.1936   41.4148 LP  0  0  0  0  0  0  0  0  0  0  0  0  # atno 16496 bound_to 9617
    7.1698    9.8329   40.3191 LP  0  0  0  0  0  0  0  0  0  0  0  0  # atno 16497 bound_to 9705
    7.5009   10.4161   41.9160 LP  0  0  0  0  0  0  0  0  0  0  0  0  # atno 16498 bound_to 9705
    7.3965    8.1391   41.4864 LP  0  0  0  0  0  0  0  0  0  0  0  0  # atno 16499 bound_to 9759
    5.9603    1.2468   35.5712 LP  0  0  0  0  0  0  0  0  0  0  0  0  # atno 16500 bound_to 11530
    6.7240    2.6043   36.3288 LP  0  0  0  0  0  0  0  0  0  0  0  0  # atno 16501 bound_to 11530
    7.7421    3.7216   31.9853 LP  0  0  0  0  0  0  0  0  0  0  0  0  # atno 16504 bound_to 11361
    7.0138    3.0321   30.5731 LP  0  0  0  0  0  0  0  0  0  0  0  0  # atno 16505 bound_to 11361
    6.9218    2.4045   34.0795 LP  0  0  0  0  0  0  0  0  0  0  0  0  # atno 16508 bound_to 11587
   12.7224    8.4671   35.4769 LP  0  0  0  0  0  0  0  0  0  0  0  0  # atno 16509 bound_to 11538
   12.6372    8.6922   33.8617 LP  0  0  0  0  0  0  0  0  0  0  0  0  # atno 16510 bound_to 11538
   10.2322    4.0985   32.2378 LP  0  0  0  0  0  0  0  0  0  0  0  0  # atno 16511 bound_to 11318
   11.8682    3.7596   32.6948 LP  0  0  0  0  0  0  0  0  0  0  0  0  # atno 16512 bound_to 11318
   11.2692    4.1921   30.1911 LP  0  0  0  0  0  0  0  0  0  0  0  0  # atno 16513 bound_to 11358
    9.6902    3.2511   30.5249 LP  0  0  0  0  0  0  0  0  0  0  0  0  # atno 16514 bound_to 11416
    9.5094    1.6506   33.3357 LP  0  0  0  0  0  0  0  0  0  0  0  0  # atno 16515 bound_to 11527
    4.8359   -0.6401   35.5584 LP  0  0  0  0  0  0  0  0  0  0  0  0  # atno 16520 bound_to 11590
    4.1370   -1.3878   34.1611 LP  0  0  0  0  0  0  0  0  0  0  0  0  # atno 16521 bound_to 11590
    4.2547   -1.4380   36.5967 LP  0  0  0  0  0  0  0  0  0  0  0  0  # atno 16522 bound_to 11800
    2.8662   -1.3277   39.9928 LP  0  0  0  0  0  0  0  0  0  0  0  0  # atno 16523 bound_to 11756
    1.5288   -1.0523   38.9272 LP  0  0  0  0  0  0  0  0  0  0  0  0  # atno 16524 bound_to 11756
    8.9927   -0.9147   31.6677 LP  0  0  0  0  0  0  0  0  0  0  0  0  # atno 16543 bound_to 11419
    7.6303    0.1375   31.4759 LP  0  0  0  0  0  0  0  0  0  0  0  0  # atno 16544 bound_to 11419
    6.9049   -0.1787   34.2956 LP  0  0  0  0  0  0  0  0  0  0  0  0  # atno 16545 bound_to 11632
   11.0561    1.8325   30.7992 LP  0  0  0  0  0  0  0  0  0  0  0  0  # atno 16546 bound_to 11466
    9.5097   -0.4636   34.3450 LP  0  0  0  0  0  0  0  0  0  0  0  0  # atno 16547 bound_to 11469
    8.6820    0.8365   35.1352 LP  0  0  0  0  0  0  0  0  0  0  0  0  # atno 16548 bound_to 11469
    5.7360    0.3220   36.8175 LP  0  0  0  0  0  0  0  0  0  0  0  0  # atno 16549 bound_to 11753
    8.2277   -1.8516   35.9648 LP  0  0  0  0  0  0  0  0  0  0  0  0  # atno 16550 bound_to 11697
   -3.6193   10.4655   11.4243 LP  0  0  0  0  0  0  0  0  0  0  0  0  # atno 16565 bound_to 11526
   -2.8115   10.6697   12.8287 LP  0  0  0  0  0  0  0  0  0  0  0  0  # atno 16566 bound_to 11526
    4.6711   15.6134   14.0180 LP  0  0  0  0  0  0  0  0  0  0  0  0  # atno 16567 bound_to 9334
    4.0689   14.5275   12.9574 LP  0  0  0  0  0  0  0  0  0  0  0  0  # atno 16568 bound_to 9334
   12.6165    2.4932   30.1360 LP  0  0  0  0  0  0  0  0  0  0  0  0  # atno 16571 bound_to 11269
   11.6966    2.4798   28.6685 LP  0  0  0  0  0  0  0  0  0  0  0  0  # atno 16572 bound_to 11269
   14.7615    8.0128   17.9610 LP  0  0  0  0  0  0  0  0  0  0  0  0  # atno 16581 bound_to 15454
   15.7246    9.1943   17.3753 LP  0  0  0  0  0  0  0  0  0  0  0  0  # atno 16582 bound_to 15454
   16.0692   13.2852   25.1895 LP  0  0  0  0  0  0  0  0  0  0  0  0  # atno 16589 bound_to 5760
   16.4361   12.6242   23.7420 LP  0  0  0  0  0  0  0  0  0  0  0  0  # atno 16590 bound_to 5760
   15.7829    5.0065   11.2905 LP  0  0  0  0  0  0  0  0  0  0  0  0  # atno 16601 bound_to 1810
   16.1933    6.4253   10.5940 LP  0  0  0  0  0  0  0  0  0  0  0  0  # atno 16602 bound_to 1810
   15.7018   18.2176   14.8439 LP  0  0  0  0  0  0  0  0  0  0  0  0  # atno 16609 bound_to 8455
   14.3203   18.5077   14.0229 LP  0  0  0  0  0  0  0  0  0  0  0  0  # atno 16610 bound_to 8455
    6.2637    7.9257    8.6981 LP  0  0  0  0  0  0  0  0  0  0  0  0  # atno 16611 bound_to 1872
    6.0144    9.4472    9.2359 LP  0  0  0  0  0  0  0  0  0  0  0  0  # atno 16612 bound_to 1872
    4.3248   18.6465   22.7867 LP  0  0  0  0  0  0  0  0  0  0  0  0  # atno 16621 bound_to 9468
    4.9444   17.1998   22.3513 LP  0  0  0  0  0  0  0  0  0  0  0  0  # atno 16622 bound_to 9468

> <Gold.Score>
     Fitness  S(hb_ext) S(vdw_ext)  S(hb_int)    S(int)      intcor
     30.85       2.39      21.52       0.00      -1.13      -0.76

> <Gold.Goldscore.Fitness>
30.8518

> <Gold.Goldscore.Internal.Vdw>
-1.3428

> <Gold.Goldscore.Internal.Torsion>
-0.5457

> <Gold.Goldscore.External.Vdw>
21.5207

> <Gold.Goldscore.Internal.HBond>
0.0000

> <Gold.Goldscore.External.HBond>
2.3909

> <Gold.Goldscore.Internal.Correction>
-0.7585

> <Gold.Goldscore.Hbonds>
donor molecule, donor type, donor heavy atom, donor atom, acceptor molecule, acceptor atom, score
      P1  H  1867  1886       L1     9  0.53
      P1  H  7864  7898       L1    11  0.40
      L1  H    10    23       P1  7619  0.09

> <Gold.Goldscore.Internal.Vdw.Weighted>
-1.3428

> <Gold.Goldscore.Internal.Torsion.Weighted>
-0.5457

> <Gold.Goldscore.External.Vdw.Weighted>
29.5909

> <Gold.Goldscore.Internal.HBond.Weighted>
0.0000

> <Gold.Goldscore.External.HBond.Weighted>
2.3909

> <Gold.Goldscore.Internal.Correction.Weighted>
-0.7585

> <Gold.Rescore>
     Score     S(PLP)   S(hbond)     S(cho)   S(metal)  DE(clash)   DE(tors)     intcor
     28.32     -24.40       2.13       0.00       0.00       1.50       0.49       ----

> <Gold.PLP.Fitness>
28.3169

> <Gold.PLP.PLP>
-24.4046

> <Gold.PLP.part.hbond>
-3.2780

> <Gold.PLP.part.metal>
0.0000

> <Gold.PLP.part.buried>
-4.5495

> <Gold.PLP.part.nonpolar>
-21.2590

> <Gold.PLP.part.repulsive>
4.0314

> <Gold.PLP.ligand.clash>
1.4998

> <Gold.PLP.ligand.torsion>
0.4870

> <Gold.PLP.Chemscore.Hbond>
2.1287

> <Gold.PLP.Chemscore.CHOScore>
0.0000

> <Gold.PLP.Chemscore.Metal>
0.0000

> <Gold.Chemscore.Hbonds>
donor molecule, donor type, donor heavy atom, donor atom, acceptor molecule, acceptor atom, score
      L1  H    10    23       P1  7619  0.67
      P1  H  1867  1886       L1     9  0.99
      P1  H  7864  7898       L1    11  0.28

> <Gold.PLP.Chemscore.Internal.Correction>
   9.000000E+99

#       Name:                CT1002167954
#       Creating user name   hitesit
#       Creation time:       Sun Apr 16 22:53:29 2023


#       File generated by GOLD software.
#

@<TRIPOS>MOLECULE
CT1002167954|ligand_prepared|mol2|1|dock10
    29    30     1
SMALL
NO_CHARGES


@<TRIPOS>ATOM
      1 C1          12.7572  12.9848  12.2482 C.3            1 RES1               0.0000
      2 C2          11.6267  13.2102  11.2236 C.ar           1 RES1               0.0000
      3 C3          13.2208  14.3709  12.6866 C.2            1 RES1               0.0000
      4 C4          12.1550  12.1465  13.3704 C.2            1 RES1               0.0000
      5 C5          13.9730  12.2176  11.6784 C.3            1 RES1               0.0000
      6 C6          11.8619  13.0475   9.8616 C.ar           1 RES1               0.0000
      7 C7          10.3450  13.5778  11.6246 C.ar           1 RES1               0.0000
      8 N8          12.8604  14.7930  13.9323 N.am           1 RES1               0.0000
      9 O9          13.8593  15.0982  11.9358 O.2            1 RES1               0.0000
     10 N10         12.0430  12.7189  14.6103 N.am           1 RES1               0.0000
     11 O11         11.7612  11.0010  13.1880 O.2            1 RES1               0.0000
     12 C12         15.0016  11.8311  12.7295 C.3            1 RES1               0.0000
     13 C13         10.8517  13.2424   8.9343 C.ar           1 RES1               0.0000
     14 C14          9.3363  13.7724  10.6956 C.ar           1 RES1               0.0000
     15 C15         12.3401  14.0146  14.9348 C.2            1 RES1               0.0000
     16 C16          9.5883  13.6045   9.3506 C.ar           1 RES1               0.0000
     17 O17         12.1610  14.4719  16.0599 O.2            1 RES1               0.0000
     18 H18         13.6152  11.3067  11.1829 H              1 RES1               0.0000
     19 H19         14.4609  12.8423  10.9200 H              1 RES1               0.0000
     20 H20         12.8504  12.7652   9.5151 H              1 RES1               0.0000
     21 H21         10.1241  13.7166  12.6775 H              1 RES1               0.0000
     22 H22         12.9896  15.7787  14.1374 H              1 RES1               0.0000
     23 H23         11.7072  12.1240  15.3611 H              1 RES1               0.0000
     24 H24         15.8334  11.2955  12.2766 H              1 RES1               0.0000
     25 H25         15.3975  12.7150  13.2252 H              1 RES1               0.0000
     26 H26         14.5567  11.1886  13.4865 H              1 RES1               0.0000
     27 H27         11.0555  13.1103   7.8768 H              1 RES1               0.0000
     28 H28          8.3436  14.0579  11.0276 H              1 RES1               0.0000
     29 H29          8.7971  13.7567   8.6240 H              1 RES1               0.0000
@<TRIPOS>BOND
    1    1    2 1     
    2    1    3 1     
    3    1    4 1     
    4    1    5 1     
    5    2    6 ar    
    6    2    7 ar    
    7    3    8 1     
    8    3    9 2     
    9    4   10 1     
   10    4   11 2     
   11    5   12 1     
   12    5   18 1     
   13    5   19 1     
   14    6   13 ar    
   15    6   20 1     
   16    7   14 ar    
   17    7   21 1     
   18    8   15 1     
   19    8   22 1     
   20   10   15 1     
   21   10   23 1     
   22   12   24 1     
   23   12   25 1     
   24   12   26 1     
   25   13   16 ar    
   26   13   27 1     
   27   14   16 ar    
   28   14   28 1     
   29   15   17 2     
   30   16   29 1     
@<TRIPOS>SUBSTRUCTURE
      1 RES1           1
@<TRIPOS>SET
DONOR_HYDROGENS      STATIC     ATOMS    <user>   **** ""
2 22 23
ATOM$RED        STATIC     ATOMS    COLORGROUP SYSTEM
2 22 23
@<TRIPOS>COMMENT
> <Gold.Version>
2022.3.0

> <Gold.Id.Protein>
unknown|3mvj_clean|pdb

> <Gold.Protein.RotatedTorsions>
[ 9935 9915 9914 9913 ] final  131.70 input   59.98 | X-H torsion
[ 10984 10935 10934 10932 ] final   43.24 input   60.03 | X-H torsion
[ 9832 9816 9817 9818 ] final  -43.45 input   89.09 | X-H torsion
[ 9883 9871 9872 9873 ] final   41.22 input -126.12 | X-H torsion
[ 9925 9907 9908 9909 ] final   88.02 input  109.17 | X-H torsion
[ 9887 9876 9875 9872 ] final -155.25 input   59.96 | X-H torsion
[ 10746 10695 10694 10692 ] final   82.56 input   59.99 | X-H torsion
[ 11686 11631 11630 11629 ] final   92.40 input   60.02 | X-H torsion
[ 9775 9759 9760 9761 ] final   10.89 input  126.36 | X-H torsion
[ 11605 11587 11588 11589 ] final   15.55 input  114.14 | X-H torsion
[ 11559 11538 11537 11535 ] final  -24.49 input   60.01 | X-H torsion
[ 11374 11358 11359 11360 ] final   89.46 input   98.08 | X-H torsion
[ 11434 11416 11417 11418 ] final   50.11 input  102.35 | X-H torsion
[ 11551 11527 11528 11529 ] final  165.72 input  127.83 | X-H torsion
[ 11812 11800 11801 11802 ] final  163.93 input  127.47 | X-H torsion
[ 11650 11632 11633 11634 ] final  108.04 input  113.96 | X-H torsion
[ 11482 11466 11467 11468 ] final  -30.28 input  126.08 | X-H torsion
[ 11767 11753 11754 11755 ] final -147.60 input  105.73 | X-H torsion
[ 11713 11697 11698 11699 ] final  -35.30 input  116.95 | X-H torsion
[ 11576 11526 11525 11523 ] final   20.31 input   60.00 | X-H torsion
[ 9362 9334 9332 9329 ] final  168.08 input   60.01 | X-H torsion
[ 7768 7713 7712 7711 ] final  135.66 input   60.03 | X-H torsion
[ 15484 15454 15453 15451 ] final   99.13 input   59.98 | X-H torsion
[ 5787 5760 5759 5756 ] final  155.34 input   59.99 | X-H torsion
[ 1829 1810 1808 1805 ] final   -5.17 input   60.00 | X-H torsion
[ 8490 8455 8453 8450 ] final  134.56 input   60.02 | X-H torsion
[ 1885 1872 1871 1868 ] final -114.03 input   59.98 | X-H torsion
[ 9510 9468 9467 9465 ] final   18.73 input   60.02 | X-H torsion
[ 3466 3411 3410 3409 ] final   38.41 input   59.97 | X-H torsion
[ 16458 9819 9818 9817 ] final  -34.15 input    0.00 | X-H torsion
[ 16464 9874 9873 9872 ] final -167.81 input    0.00 | X-H torsion
[ 16467 9762 9761 9760 ] final  -63.73 input    0.00 | X-H torsion
[ 16495 9617 9616 9615 ] final -115.79 input    0.00 | X-H torsion
[ 16497 9705 9704 9703 ] final  107.91 input    0.00 | X-H torsion
[ 16500 11530 11529 11528 ] final    9.38 input    0.00 | X-H torsion
[ 16504 11361 11360 11359 ] final  -94.52 input    0.00 | X-H torsion
[ 16511 11318 11317 11316 ] final   62.74 input    0.00 | X-H torsion
[ 16520 11590 11589 11588 ] final   31.77 input    0.00 | X-H torsion
[ 16523 11756 11755 11754 ] final  114.82 input    0.00 | X-H torsion
[ 16543 11419 11418 11417 ] final -162.20 input   -0.00 | X-H torsion
[ 16547 11469 11468 11467 ] final   79.57 input    0.00 | X-H torsion
[ 16571 11269 11268 11267 ] final  165.37 input   -0.00 | X-H torsion

> <Gold.Protein.ActiveResidues>
 THR48   LEU49   GLY50   THR51   GLY52   SER53   PHE54   GLY55   ARG56   VAL57  
 LYS78   LYS81   LEU82   LYS83   GLN84   HIS87   GLU127  PHE129  SER130  LEU132 
 ARG133  ARG134  ILE135  GLY136  ARG137  ARG165  ASP166  LEU167  LYS168  PRO169 
 GLU170  ASN171  LEU172  LEU173  THR183  ASP184  GLY186  PHE187  TPO197  LEU198 
 CYS199  GLY200  THR201  PRO202  GLU203  TYR204  LEU205  PRO207  ILE209  ILE210 
 LEU211  SER212  LYS213  VAL226  LEU227  TYR229  GLU230  ALA233  GLY234  TYR235 
 PRO236  PRO237  PHE238  PHE239  ALA240  ASP241  GLN242  PRO243  ILE244  GLN245 
 ILE246  TYR247  GLU248  LYS249  ILE250  VAL251  SER252  ARG256  PHE257  PRO258 
 SER259  PHE327  ASP328  TYR330 

> <Gold.Protein.RotatedAtoms>
   15.5027    6.6011   10.3600 H   0  0  0  0  0  0  0  0  0  0  0  0  # atno 1829 bound_to 1810
    5.9338    8.4321    8.5550 H   0  0  0  0  0  0  0  0  0  0  0  0  # atno 1885 bound_to 1872
    0.4201   10.7101   -6.1567 H   0  0  0  0  0  0  0  0  0  0  0  0  # atno 3466 bound_to 3411
    0.4929   12.2557   -6.7515 H   0  0  0  0  0  0  0  0  0  0  0  0  # atno 3467 bound_to 3411
    1.8569   11.5351   -6.1448 H   0  0  0  0  0  0  0  0  0  0  0  0  # atno 3468 bound_to 3411
   17.2491   12.0319   24.7114 H   0  0  0  0  0  0  0  0  0  0  0  0  # atno 5787 bound_to 5760
    6.7071   13.4034   14.0214 H   0  0  0  0  0  0  0  0  0  0  0  0  # atno 7768 bound_to 7713
    7.8452   12.7040   15.0025 H   0  0  0  0  0  0  0  0  0  0  0  0  # atno 7769 bound_to 7713
    6.3330   13.0372   15.5938 H   0  0  0  0  0  0  0  0  0  0  0  0  # atno 7770 bound_to 7713
   15.2938   18.0080   14.2522 H   0  0  0  0  0  0  0  0  0  0  0  0  # atno 8490 bound_to 8455
    5.1122   15.0300   14.4335 H   0  0  0  0  0  0  0  0  0  0  0  0  # atno 9362 bound_to 9334
    4.4595   16.8088   22.5821 H   0  0  0  0  0  0  0  0  0  0  0  0  # atno 9510 bound_to 9468
    7.0125    7.6754   41.5544 H   0  0  0  0  0  0  0  0  0  0  0  0  # atno 9775 bound_to 9759
    5.7442    8.5362   40.0750 H   0  0  0  0  0  0  0  0  0  0  0  0  # atno 9832 bound_to 9816
    3.6124    9.7722   41.1446 H   0  0  0  0  0  0  0  0  0  0  0  0  # atno 9883 bound_to 9871
    4.9800   13.8212   39.7984 H   0  0  0  0  0  0  0  0  0  0  0  0  # atno 9887 bound_to 9876
    3.8390    9.6952   43.7674 H   0  0  0  0  0  0  0  0  0  0  0  0  # atno 9925 bound_to 9907
   -1.0928    7.0157   41.8417 H   0  0  0  0  0  0  0  0  0  0  0  0  # atno 9935 bound_to 9915
   -2.2360    6.8024   43.0232 H   0  0  0  0  0  0  0  0  0  0  0  0  # atno 9936 bound_to 9915
   -1.1915    8.0869   43.1033 H   0  0  0  0  0  0  0  0  0  0  0  0  # atno 9937 bound_to 9915
   -3.9175   17.0547   31.2845 H   0  0  0  0  0  0  0  0  0  0  0  0  # atno 10746 bound_to 10695
   -3.6549   14.2130   33.2041 H   0  0  0  0  0  0  0  0  0  0  0  0  # atno 10984 bound_to 10935
   11.1089    5.1264   29.1010 H   0  0  0  0  0  0  0  0  0  0  0  0  # atno 11374 bound_to 11358
   10.3939    3.0337   29.8953 H   0  0  0  0  0  0  0  0  0  0  0  0  # atno 11434 bound_to 11416
    9.5332    1.2131   31.1565 H   0  0  0  0  0  0  0  0  0  0  0  0  # atno 11482 bound_to 11466
   10.3389    3.1757   33.4314 H   0  0  0  0  0  0  0  0  0  0  0  0  # atno 11551 bound_to 11527
   13.2148    7.8025   35.4075 H   0  0  0  0  0  0  0  0  0  0  0  0  # atno 11559 bound_to 11538
   -2.7136   11.3448   12.7871 H   0  0  0  0  0  0  0  0  0  0  0  0  # atno 11576 bound_to 11526
    7.6822    1.3064   33.6456 H   0  0  0  0  0  0  0  0  0  0  0  0  # atno 11605 bound_to 11587
    7.6912   -0.5254   33.2588 H   0  0  0  0  0  0  0  0  0  0  0  0  # atno 11650 bound_to 11632
   -8.6148    9.2062   26.9829 H   0  0  0  0  0  0  0  0  0  0  0  0  # atno 11686 bound_to 11631
   -9.3102    7.9978   26.0875 H   0  0  0  0  0  0  0  0  0  0  0  0  # atno 11687 bound_to 11631
   -7.9152    8.7201   25.5608 H   0  0  0  0  0  0  0  0  0  0  0  0  # atno 11688 bound_to 11631
    6.9411   -1.6997   36.0663 H   0  0  0  0  0  0  0  0  0  0  0  0  # atno 11713 bound_to 11697
    6.3726    0.5363   38.2052 H   0  0  0  0  0  0  0  0  0  0  0  0  # atno 11767 bound_to 11753
    3.6376   -0.8930   36.2892 H   0  0  0  0  0  0  0  0  0  0  0  0  # atno 11812 bound_to 11800
   15.4261    9.0400   17.2462 H   0  0  0  0  0  0  0  0  0  0  0  0  # atno 15484 bound_to 15454
    1.5585    9.9504   40.3131 LP  0  0  0  0  0  0  0  0  0  0  0  0  # atno 16458 bound_to 9819
    2.0066   10.5088   41.8902 LP  0  0  0  0  0  0  0  0  0  0  0  0  # atno 16459 bound_to 9819
   -2.6797   15.5019   33.3938 LP  0  0  0  0  0  0  0  0  0  0  0  0  # atno 16460 bound_to 10935
   -2.4558   14.1642   34.3033 LP  0  0  0  0  0  0  0  0  0  0  0  0  # atno 16461 bound_to 10935
    5.0919    6.9214   40.2048 LP  0  0  0  0  0  0  0  0  0  0  0  0  # atno 16462 bound_to 9816
    5.3447   10.0000   41.0857 LP  0  0  0  0  0  0  0  0  0  0  0  0  # atno 16463 bound_to 9871
    2.1042   12.5488   44.4011 LP  0  0  0  0  0  0  0  0  0  0  0  0  # atno 16464 bound_to 9874
    2.6222   13.3160   42.9372 LP  0  0  0  0  0  0  0  0  0  0  0  0  # atno 16465 bound_to 9874
    2.9899   11.1346   43.2556 LP  0  0  0  0  0  0  0  0  0  0  0  0  # atno 16466 bound_to 9907
    6.2417   10.0164   38.4661 LP  0  0  0  0  0  0  0  0  0  0  0  0  # atno 16467 bound_to 9762
    5.0678    9.0206   37.6721 LP  0  0  0  0  0  0  0  0  0  0  0  0  # atno 16468 bound_to 9762
    4.7697   12.2627   39.3800 LP  0  0  0  0  0  0  0  0  0  0  0  0  # atno 16469 bound_to 9876
    5.8635   12.6633   40.5243 LP  0  0  0  0  0  0  0  0  0  0  0  0  # atno 16470 bound_to 9876
   -4.2152   16.1072   29.9961 LP  0  0  0  0  0  0  0  0  0  0  0  0  # atno 16477 bound_to 10695
   -5.1644   17.4010   30.2989 LP  0  0  0  0  0  0  0  0  0  0  0  0  # atno 16478 bound_to 10695
    5.8478    6.1729   41.5478 LP  0  0  0  0  0  0  0  0  0  0  0  0  # atno 16495 bound_to 9617
    4.5574    5.0637   41.2248 LP  0  0  0  0  0  0  0  0  0  0  0  0  # atno 16496 bound_to 9617
    8.0605   10.1646   40.6458 LP  0  0  0  0  0  0  0  0  0  0  0  0  # atno 16497 bound_to 9705
    6.6102   10.0844   41.5893 LP  0  0  0  0  0  0  0  0  0  0  0  0  # atno 16498 bound_to 9705
    8.5967    7.1557   41.0259 LP  0  0  0  0  0  0  0  0  0  0  0  0  # atno 16499 bound_to 9759
    6.8390    2.4935   36.3749 LP  0  0  0  0  0  0  0  0  0  0  0  0  # atno 16500 bound_to 11530
    5.8454    1.3576   35.5250 LP  0  0  0  0  0  0  0  0  0  0  0  0  # atno 16501 bound_to 11530
    7.8757    3.0769   31.9213 LP  0  0  0  0  0  0  0  0  0  0  0  0  # atno 16504 bound_to 11361
    6.8802    3.6768   30.6371 LP  0  0  0  0  0  0  0  0  0  0  0  0  # atno 16505 bound_to 11361
    6.8317    2.7406   33.1121 LP  0  0  0  0  0  0  0  0  0  0  0  0  # atno 16508 bound_to 11587
   12.3983    8.9636   34.6121 LP  0  0  0  0  0  0  0  0  0  0  0  0  # atno 16509 bound_to 11538
   13.2620    7.8539   33.7819 LP  0  0  0  0  0  0  0  0  0  0  0  0  # atno 16510 bound_to 11538
   11.3445    4.5905   32.9415 LP  0  0  0  0  0  0  0  0  0  0  0  0  # atno 16511 bound_to 11318
   10.7559    3.2676   31.9910 LP  0  0  0  0  0  0  0  0  0  0  0  0  # atno 16512 bound_to 11318
   11.4655    4.9293   30.7911 LP  0  0  0  0  0  0  0  0  0  0  0  0  # atno 16513 bound_to 11358
    8.8111    3.6191   29.4460 LP  0  0  0  0  0  0  0  0  0  0  0  0  # atno 16514 bound_to 11416
    9.4409    1.6941   33.2365 LP  0  0  0  0  0  0  0  0  0  0  0  0  # atno 16515 bound_to 11527
    3.9034   -0.6444   34.3368 LP  0  0  0  0  0  0  0  0  0  0  0  0  # atno 16520 bound_to 11590
    5.0695   -1.3835   35.3827 LP  0  0  0  0  0  0  0  0  0  0  0  0  # atno 16521 bound_to 11590
    3.7118   -1.3217   37.9821 LP  0  0  0  0  0  0  0  0  0  0  0  0  # atno 16522 bound_to 11800
    1.5292   -0.9912   38.9464 LP  0  0  0  0  0  0  0  0  0  0  0  0  # atno 16523 bound_to 11756
    2.8658   -1.3888   39.9737 LP  0  0  0  0  0  0  0  0  0  0  0  0  # atno 16524 bound_to 11756
    8.7257   -0.2969   32.3268 LP  0  0  0  0  0  0  0  0  0  0  0  0  # atno 16543 bound_to 11419
    7.8972   -0.4803   30.8168 LP  0  0  0  0  0  0  0  0  0  0  0  0  # atno 16544 bound_to 11419
    6.0229   -0.5757   33.7695 LP  0  0  0  0  0  0  0  0  0  0  0  0  # atno 16545 bound_to 11632
   11.1980    1.4024   30.6465 LP  0  0  0  0  0  0  0  0  0  0  0  0  # atno 16546 bound_to 11466
    9.7801    0.2106   35.2704 LP  0  0  0  0  0  0  0  0  0  0  0  0  # atno 16547 bound_to 11469
    8.4116    0.1624   34.2098 LP  0  0  0  0  0  0  0  0  0  0  0  0  # atno 16548 bound_to 11469
    5.6452   -0.4704   36.9758 LP  0  0  0  0  0  0  0  0  0  0  0  0  # atno 16549 bound_to 11753
    8.3666   -0.7342   35.7243 LP  0  0  0  0  0  0  0  0  0  0  0  0  # atno 16550 bound_to 11697
   -3.4427   11.6288   11.3601 LP  0  0  0  0  0  0  0  0  0  0  0  0  # atno 16565 bound_to 11526
   -3.3871   10.1128   11.9644 LP  0  0  0  0  0  0  0  0  0  0  0  0  # atno 16566 bound_to 11526
    4.0926   15.3349   13.2020 LP  0  0  0  0  0  0  0  0  0  0  0  0  # atno 16567 bound_to 9334
    4.6184   13.8128   13.4725 LP  0  0  0  0  0  0  0  0  0  0  0  0  # atno 16568 bound_to 9334
   12.3255    2.7873   30.1966 LP  0  0  0  0  0  0  0  0  0  0  0  0  # atno 16571 bound_to 11269
   11.9877    2.1857   28.6079 LP  0  0  0  0  0  0  0  0  0  0  0  0  # atno 16572 bound_to 11269
   16.2458    8.7484   18.6211 LP  0  0  0  0  0  0  0  0  0  0  0  0  # atno 16581 bound_to 15454
   14.8938    7.8996   18.2773 LP  0  0  0  0  0  0  0  0  0  0  0  0  # atno 16582 bound_to 15454
   16.2979   13.1193   25.4598 LP  0  0  0  0  0  0  0  0  0  0  0  0  # atno 16589 bound_to 5760
   16.1773   12.8981   23.8463 LP  0  0  0  0  0  0  0  0  0  0  0  0  # atno 16590 bound_to 5760
   14.7543    5.2748   10.9343 LP  0  0  0  0  0  0  0  0  0  0  0  0  # atno 16601 bound_to 1810
   16.3609    5.4686   11.1538 LP  0  0  0  0  0  0  0  0  0  0  0  0  # atno 16602 bound_to 1810
   14.0730   19.0625   14.4654 LP  0  0  0  0  0  0  0  0  0  0  0  0  # atno 16609 bound_to 8455
   15.3325   19.0462   15.5046 LP  0  0  0  0  0  0  0  0  0  0  0  0  # atno 16610 bound_to 8455
    6.3930    9.4584    9.7312 LP  0  0  0  0  0  0  0  0  0  0  0  0  # atno 16611 bound_to 1872
    7.0103    7.9476    9.6748 LP  0  0  0  0  0  0  0  0  0  0  0  0  # atno 16612 bound_to 1872
    3.4615   17.9340   23.2026 LP  0  0  0  0  0  0  0  0  0  0  0  0  # atno 16621 bound_to 9468
    4.8561   18.3835   22.4817 LP  0  0  0  0  0  0  0  0  0  0  0  0  # atno 16622 bound_to 9468

> <Gold.Score>
     Fitness  S(hb_ext) S(vdw_ext)  S(hb_int)    S(int)      intcor
     28.02       0.00      20.84       0.00      -0.63      -0.76

> <Gold.Goldscore.Fitness>
28.0227

> <Gold.Goldscore.Internal.Vdw>
-0.9261

> <Gold.Goldscore.Internal.Torsion>
-0.4606

> <Gold.Goldscore.External.Vdw>
20.8370

> <Gold.Goldscore.Internal.HBond>
0.0000

> <Gold.Goldscore.External.HBond>
0.0000

> <Gold.Goldscore.Internal.Correction>
-0.7585

> <Gold.Goldscore.Internal.Vdw.Weighted>
-0.9261

> <Gold.Goldscore.Internal.Torsion.Weighted>
-0.4606

> <Gold.Goldscore.External.Vdw.Weighted>
28.6508

> <Gold.Goldscore.Internal.HBond.Weighted>
0.0000

> <Gold.Goldscore.External.HBond.Weighted>
0.0000

> <Gold.Goldscore.Internal.Correction.Weighted>
-0.7585

> <Gold.Rescore>
     Score     S(PLP)   S(hbond)     S(cho)   S(metal)  DE(clash)   DE(tors)     intcor
     12.73     -11.12       0.91       0.00       0.00       0.00       0.55       ----

> <Gold.PLP.Fitness>
12.7285

> <Gold.PLP.PLP>
-11.1222

> <Gold.PLP.part.hbond>
-2.6570

> <Gold.PLP.part.metal>
0.0000

> <Gold.PLP.part.buried>
12.0893

> <Gold.PLP.part.nonpolar>
-28.6015

> <Gold.PLP.part.repulsive>
8.1293

> <Gold.PLP.ligand.clash>
0.0000

> <Gold.PLP.ligand.torsion>
0.5548

> <Gold.PLP.Chemscore.Hbond>
0.9053

> <Gold.PLP.Chemscore.CHOScore>
0.0000

> <Gold.PLP.Chemscore.Metal>
0.0000

> <Gold.Chemscore.Hbonds>
donor molecule, donor type, donor heavy atom, donor atom, acceptor molecule, acceptor atom, score
      L1  H     8    22       P1  7865  0.05

> <Gold.PLP.Chemscore.Internal.Correction>
   9.000000E+99

