#       Name:                GA Fitting Points
#       Creating user name   hitesit
#       Creation time:       Sun Apr 16 22:53:01 2023


#       Fitting Points Used by GA Software.
#

@<TRIPOS>MOLECULE
GA Fitting Points
 41253    0    0
SMALL
NO_CHARGES


@<TRIPOS>ATOM
      1 ****       -13.0000  -1.2500   1.0000 Du        
      2 ****       -13.0000  -1.0000   1.0000 Du        
      3 ****       -13.0000  -1.0000   1.2500 Du        
      4 ****       -13.0000  -0.7500   1.0000 Du        
      5 ****       -13.0000  -0.7500   1.2500 Du        
      6 ****       -13.0000  -0.7500   1.5000 Du        
      7 ****       -13.0000  -0.5000   1.2500 Du        
      8 ****       -13.0000  -0.5000   1.5000 Du        
      9 ****       -13.0000  -0.5000   1.7500 Du        
     10 ****       -13.0000  -0.2500   1.5000 Du        
     11 ****       -13.0000  -0.2500   1.7500 Du        
     12 ****       -13.0000  -0.2500   2.0000 Du        
     13 ****       -13.0000   0.5000  21.0000 Du        
     14 ****       -13.0000   0.5000  21.2500 Du        
     15 ****       -13.0000   0.7500  20.2500 Du        
     16 ****       -13.0000   0.7500  20.5000 Du        
     17 ****       -13.0000   0.7500  20.7500 Du        
     18 ****       -13.0000   0.7500  21.0000 Du        
     19 ****       -13.0000   0.7500  21.2500 Du        
     20 ****       -13.0000   1.0000  20.0000 Du        
     21 ****       -13.0000   1.0000  20.2500 Du        
     22 ****       -13.0000   1.0000  20.5000 Du        
     23 ****       -13.0000   1.0000  20.7500 Du        
     24 ****       -13.0000   1.0000  21.0000 Du        
     25 ****       -13.0000   1.0000  21.2500 Du        
     26 ****       -13.0000   1.2500  19.7500 Du        
     27 ****       -13.0000   1.2500  20.0000 Du        
     28 ****       -13.0000   1.2500  20.2500 Du        
     29 ****       -13.0000   1.2500  20.5000 Du        
     30 ****       -13.0000   1.2500  20.7500 Du        
     31 ****       -13.0000   1.2500  21.0000 Du        
     32 ****       -13.0000   1.5000  19.7500 Du        
     33 ****       -13.0000   1.5000  20.0000 Du        
     34 ****       -13.0000   1.5000  20.2500 Du        
     35 ****       -13.0000   1.5000  20.5000 Du        
     36 ****       -13.0000   1.7500  19.7500 Du        
     37 ****       -13.0000   1.7500  20.0000 Du        
     38 ****       -13.0000   1.7500  20.2500 Du        
     39 ****       -13.0000   1.7500  20.5000 Du        
     40 ****       -13.0000   2.0000  19.5000 Du        
     41 ****       -13.0000   2.0000  19.7500 Du        
     42 ****       -13.0000   2.0000  20.0000 Du        
     43 ****       -13.0000   2.0000  20.2500 Du        
     44 ****       -13.0000   2.2500  19.5000 Du        
     45 ****       -13.0000   2.2500  19.7500 Du        
     46 ****       -13.0000   2.2500  20.0000 Du        
     47 ****       -13.0000   2.2500  20.2500 Du        
     48 ****       -13.0000   2.5000  19.7500 Du        
     49 ****       -13.0000   2.5000  20.0000 Du        
     50 ****       -13.0000   2.7500   5.7500 Du        
     51 ****       -13.0000   2.7500   6.0000 Du        
     52 ****       -13.0000   2.7500  19.2500 Du        
     53 ****       -13.0000   2.7500  19.7500 Du        
     54 ****       -13.0000   3.0000   5.7500 Du        
     55 ****       -13.0000   3.0000   6.0000 Du        
     56 ****       -13.0000   3.0000   6.2500 Du        
     57 ****       -13.0000   3.0000  19.0000 Du        
     58 ****       -13.0000   3.2500   5.7500 Du        
     59 ****       -13.0000   3.2500   6.0000 Du        
     60 ****       -13.0000   3.2500   6.2500 Du        
     61 ****       -13.0000   3.2500   6.5000 Du        
     62 ****       -13.0000   3.2500  18.7500 Du        
     63 ****       -13.0000   3.5000   6.0000 Du        
     64 ****       -13.0000   3.5000   6.2500 Du        
     65 ****       -13.0000   3.5000   6.5000 Du        
     66 ****       -13.0000   3.5000  16.5000 Du        
     67 ****       -13.0000   3.5000  16.7500 Du        
     68 ****       -13.0000   3.5000  17.0000 Du        
     69 ****       -13.0000   3.5000  17.2500 Du        
     70 ****       -13.0000   3.5000  18.2500 Du        
     71 ****       -13.0000   3.7500   6.2500 Du        
     72 ****       -13.0000   3.7500   6.5000 Du        
     73 ****       -13.0000   3.7500   6.7500 Du        
     74 ****       -13.0000   3.7500  16.2500 Du        
     75 ****       -13.0000   3.7500  16.5000 Du        
     76 ****       -13.0000   3.7500  16.7500 Du        
     77 ****       -13.0000   3.7500  17.0000 Du        
     78 ****       -13.0000   3.7500  17.2500 Du        
     79 ****       -13.0000   3.7500  17.5000 Du        
     80 ****       -13.0000   3.7500  17.7500 Du        
     81 ****       -13.0000   3.7500  18.0000 Du        
     82 ****       -13.0000   3.7500  18.2500 Du        
     83 ****       -13.0000   4.0000   6.5000 Du        
     84 ****       -13.0000   4.0000   6.7500 Du        
     85 ****       -13.0000   4.0000   7.0000 Du        
     86 ****       -13.0000   4.0000   7.2500 Du        
     87 ****       -13.0000   4.0000  16.0000 Du        
     88 ****       -13.0000   4.0000  16.2500 Du        
     89 ****       -13.0000   4.0000  16.5000 Du        
     90 ****       -13.0000   4.0000  16.7500 Du        
     91 ****       -13.0000   4.0000  17.0000 Du        
     92 ****       -13.0000   4.0000  17.2500 Du        
     93 ****       -13.0000   4.0000  17.5000 Du        
     94 ****       -13.0000   4.0000  17.7500 Du        
     95 ****       -13.0000   4.0000  18.0000 Du        
     96 ****       -13.0000   4.0000  18.2500 Du        
     97 ****       -13.0000   4.2500   6.5000 Du        
     98 ****       -13.0000   4.2500   6.7500 Du        
     99 ****       -13.0000   4.2500   7.0000 Du        
    100 ****       -13.0000   4.2500   7.2500 Du        
    101 ****       -13.0000   4.2500   7.5000 Du        
    102 ****       -13.0000   4.2500   7.7500 Du        
    103 ****       -13.0000   4.2500  15.7500 Du        
    104 ****       -13.0000   4.2500  16.0000 Du        
    105 ****       -13.0000   4.2500  16.2500 Du        
    106 ****       -13.0000   4.2500  16.5000 Du        
    107 ****       -13.0000   4.2500  16.7500 Du        
    108 ****       -13.0000   4.2500  17.0000 Du        
    109 ****       -13.0000   4.2500  17.2500 Du        
    110 ****       -13.0000   4.2500  17.5000 Du        
    111 ****       -13.0000   4.2500  17.7500 Du        
    112 ****       -13.0000   4.2500  18.0000 Du        
    113 ****       -13.0000   4.2500  18.2500 Du        
    114 ****       -13.0000   4.5000   7.0000 Du        
    115 ****       -13.0000   4.5000   7.2500 Du        
    116 ****       -13.0000   4.5000   7.5000 Du        
    117 ****       -13.0000   4.5000   7.7500 Du        
    118 ****       -13.0000   4.5000   8.0000 Du        
    119 ****       -13.0000   4.5000  15.7500 Du        
    120 ****       -13.0000   4.5000  16.0000 Du        
    121 ****       -13.0000   4.5000  16.2500 Du        
    122 ****       -13.0000   4.5000  16.5000 Du        
    123 ****       -13.0000   4.5000  16.7500 Du        
    124 ****       -13.0000   4.5000  17.0000 Du        
    125 ****       -13.0000   4.5000  17.2500 Du        
    126 ****       -13.0000   4.5000  17.5000 Du        
    127 ****       -13.0000   4.5000  17.7500 Du        
    128 ****       -13.0000   4.5000  18.0000 Du        
    129 ****       -13.0000   4.7500   7.0000 Du        
    130 ****       -13.0000   4.7500   7.2500 Du        
    131 ****       -13.0000   4.7500   7.5000 Du        
    132 ****       -13.0000   4.7500   7.7500 Du        
    133 ****       -13.0000   4.7500   8.0000 Du        
    134 ****       -13.0000   4.7500   8.2500 Du        
    135 ****       -13.0000   4.7500  15.5000 Du        
    136 ****       -13.0000   4.7500  15.7500 Du        
    137 ****       -13.0000   4.7500  16.0000 Du        
    138 ****       -13.0000   4.7500  16.2500 Du        
    139 ****       -13.0000   4.7500  16.5000 Du        
    140 ****       -13.0000   4.7500  16.7500 Du        
    141 ****       -13.0000   4.7500  17.0000 Du        
    142 ****       -13.0000   4.7500  17.2500 Du        
    143 ****       -13.0000   4.7500  17.5000 Du        
    144 ****       -13.0000   4.7500  17.7500 Du        
    145 ****       -13.0000   4.7500  18.0000 Du        
    146 ****       -13.0000   5.0000   7.2500 Du        
    147 ****       -13.0000   5.0000   7.5000 Du        
    148 ****       -13.0000   5.0000   7.7500 Du        
    149 ****       -13.0000   5.0000   8.0000 Du        
    150 ****       -13.0000   5.0000   8.2500 Du        
    151 ****       -13.0000   5.0000   8.5000 Du        
    152 ****       -13.0000   5.0000  15.2500 Du        
    153 ****       -13.0000   5.0000  15.5000 Du        
    154 ****       -13.0000   5.0000  15.7500 Du        
    155 ****       -13.0000   5.0000  16.0000 Du        
    156 ****       -13.0000   5.0000  16.2500 Du        
    157 ****       -13.0000   5.0000  16.5000 Du        
    158 ****       -13.0000   5.0000  16.7500 Du        
    159 ****       -13.0000   5.0000  17.0000 Du        
    160 ****       -13.0000   5.0000  17.2500 Du        
    161 ****       -13.0000   5.0000  17.5000 Du        
    162 ****       -13.0000   5.0000  17.7500 Du        
    163 ****       -13.0000   5.0000  18.0000 Du        
    164 ****       -13.0000   5.0000  18.2500 Du        
    165 ****       -13.0000   5.2500   7.5000 Du        
    166 ****       -13.0000   5.2500   7.7500 Du        
    167 ****       -13.0000   5.2500   8.0000 Du        
    168 ****       -13.0000   5.2500   8.2500 Du        
    169 ****       -13.0000   5.2500   8.5000 Du        
    170 ****       -13.0000   5.2500   8.7500 Du        
    171 ****       -13.0000   5.2500  15.0000 Du        
    172 ****       -13.0000   5.2500  15.2500 Du        
    173 ****       -13.0000   5.2500  15.5000 Du        
    174 ****       -13.0000   5.2500  15.7500 Du        
    175 ****       -13.0000   5.2500  16.0000 Du        
    176 ****       -13.0000   5.2500  16.2500 Du        
    177 ****       -13.0000   5.2500  16.5000 Du        
    178 ****       -13.0000   5.2500  16.7500 Du        
    179 ****       -13.0000   5.2500  17.0000 Du        
    180 ****       -13.0000   5.2500  17.2500 Du        
    181 ****       -13.0000   5.2500  17.5000 Du        
    182 ****       -13.0000   5.2500  17.7500 Du        
    183 ****       -13.0000   5.2500  18.0000 Du        
    184 ****       -13.0000   5.5000   7.7500 Du        
    185 ****       -13.0000   5.5000   8.0000 Du        
    186 ****       -13.0000   5.5000   8.2500 Du        
    187 ****       -13.0000   5.5000   8.5000 Du        
    188 ****       -13.0000   5.5000   8.7500 Du        
    189 ****       -13.0000   5.5000   9.0000 Du        
    190 ****       -13.0000   5.5000  14.7500 Du        
    191 ****       -13.0000   5.5000  15.0000 Du        
    192 ****       -13.0000   5.5000  15.2500 Du        
    193 ****       -13.0000   5.5000  15.5000 Du        
    194 ****       -13.0000   5.5000  15.7500 Du        
    195 ****       -13.0000   5.5000  16.0000 Du        
    196 ****       -13.0000   5.5000  16.2500 Du        
    197 ****       -13.0000   5.5000  16.5000 Du        
    198 ****       -13.0000   5.5000  16.7500 Du        
    199 ****       -13.0000   5.5000  17.0000 Du        
    200 ****       -13.0000   5.5000  17.2500 Du        
    201 ****       -13.0000   5.5000  17.5000 Du        
    202 ****       -13.0000   5.5000  17.7500 Du        
    203 ****       -13.0000   5.7500   8.0000 Du        
    204 ****       -13.0000   5.7500   8.2500 Du        
    205 ****       -13.0000   5.7500   8.5000 Du        
    206 ****       -13.0000   5.7500   8.7500 Du        
    207 ****       -13.0000   5.7500   9.0000 Du        
    208 ****       -13.0000   5.7500   9.2500 Du        
    209 ****       -13.0000   5.7500   9.5000 Du        
    210 ****       -13.0000   5.7500   9.7500 Du        
    211 ****       -13.0000   5.7500  14.2500 Du        
    212 ****       -13.0000   5.7500  14.5000 Du        
    213 ****       -13.0000   5.7500  14.7500 Du        
    214 ****       -13.0000   5.7500  15.0000 Du        
    215 ****       -13.0000   5.7500  15.2500 Du        
    216 ****       -13.0000   5.7500  15.5000 Du        
    217 ****       -13.0000   5.7500  15.7500 Du        
    218 ****       -13.0000   5.7500  16.0000 Du        
    219 ****       -13.0000   5.7500  16.2500 Du        
    220 ****       -13.0000   5.7500  16.5000 Du        
    221 ****       -13.0000   5.7500  16.7500 Du        
    222 ****       -13.0000   5.7500  17.0000 Du        
    223 ****       -13.0000   5.7500  17.2500 Du        
    224 ****       -13.0000   5.7500  17.5000 Du        
    225 ****       -13.0000   5.7500  17.7500 Du        
    226 ****       -13.0000   5.7500  18.0000 Du        
    227 ****       -13.0000   6.0000   8.2500 Du        
    228 ****       -13.0000   6.0000   8.5000 Du        
    229 ****       -13.0000   6.0000   8.7500 Du        
    230 ****       -13.0000   6.0000   9.0000 Du        
    231 ****       -13.0000   6.0000   9.2500 Du        
    232 ****       -13.0000   6.0000   9.5000 Du        
    233 ****       -13.0000   6.0000   9.7500 Du        
    234 ****       -13.0000   6.0000  10.0000 Du        
    235 ****       -13.0000   6.0000  10.2500 Du        
    236 ****       -13.0000   6.0000  10.5000 Du        
    237 ****       -13.0000   6.0000  10.7500 Du        
    238 ****       -13.0000   6.0000  11.0000 Du        
    239 ****       -13.0000   6.0000  13.7500 Du        
    240 ****       -13.0000   6.0000  14.0000 Du        
    241 ****       -13.0000   6.0000  14.2500 Du        
    242 ****       -13.0000   6.0000  14.5000 Du        
    243 ****       -13.0000   6.0000  14.7500 Du        
    244 ****       -13.0000   6.0000  15.0000 Du        
    245 ****       -13.0000   6.0000  15.2500 Du        
    246 ****       -13.0000   6.0000  15.5000 Du        
    247 ****       -13.0000   6.0000  15.7500 Du        
    248 ****       -13.0000   6.0000  16.0000 Du        
    249 ****       -13.0000   6.0000  16.2500 Du        
    250 ****       -13.0000   6.0000  16.5000 Du        
    251 ****       -13.0000   6.0000  16.7500 Du        
    252 ****       -13.0000   6.0000  17.0000 Du        
    253 ****       -13.0000   6.0000  17.2500 Du        
    254 ****       -13.0000   6.0000  17.5000 Du        
    255 ****       -13.0000   6.0000  17.7500 Du        
    256 ****       -13.0000   6.0000  18.0000 Du        
    257 ****       -13.0000   6.0000  18.2500 Du        
    258 ****       -13.0000   6.2500   8.5000 Du        
    259 ****       -13.0000   6.2500   8.7500 Du        
    260 ****       -13.0000   6.2500   9.0000 Du        
    261 ****       -13.0000   6.2500   9.2500 Du        
    262 ****       -13.0000   6.2500   9.5000 Du        
    263 ****       -13.0000   6.2500   9.7500 Du        
    264 ****       -13.0000   6.2500  10.0000 Du        
    265 ****       -13.0000   6.2500  10.2500 Du        
    266 ****       -13.0000   6.2500  10.5000 Du        
    267 ****       -13.0000   6.2500  10.7500 Du        
    268 ****       -13.0000   6.2500  11.0000 Du        
    269 ****       -13.0000   6.2500  11.2500 Du        
    270 ****       -13.0000   6.2500  11.5000 Du        
    271 ****       -13.0000   6.2500  13.5000 Du        
    272 ****       -13.0000   6.2500  13.7500 Du        
    273 ****       -13.0000   6.2500  14.0000 Du        
    274 ****       -13.0000   6.2500  14.2500 Du        
    275 ****       -13.0000   6.2500  14.5000 Du        
    276 ****       -13.0000   6.2500  14.7500 Du        
    277 ****       -13.0000   6.2500  15.0000 Du        
    278 ****       -13.0000   6.2500  15.2500 Du        
    279 ****       -13.0000   6.2500  15.5000 Du        
    280 ****       -13.0000   6.2500  15.7500 Du        
    281 ****       -13.0000   6.2500  16.0000 Du        
    282 ****       -13.0000   6.2500  16.2500 Du        
    283 ****       -13.0000   6.2500  16.5000 Du        
    284 ****       -13.0000   6.2500  16.7500 Du        
    285 ****       -13.0000   6.2500  17.0000 Du        
    286 ****       -13.0000   6.2500  17.2500 Du        
    287 ****       -13.0000   6.2500  17.5000 Du        
    288 ****       -13.0000   6.2500  17.7500 Du        
    289 ****       -13.0000   6.5000   8.7500 Du        
    290 ****       -13.0000   6.5000   9.0000 Du        
    291 ****       -13.0000   6.5000   9.2500 Du        
    292 ****       -13.0000   6.5000   9.5000 Du        
    293 ****       -13.0000   6.5000   9.7500 Du        
    294 ****       -13.0000   6.5000  10.0000 Du        
    295 ****       -13.0000   6.5000  10.2500 Du        
    296 ****       -13.0000   6.5000  10.5000 Du        
    297 ****       -13.0000   6.5000  10.7500 Du        
    298 ****       -13.0000   6.5000  11.0000 Du        
    299 ****       -13.0000   6.5000  11.2500 Du        
    300 ****       -13.0000   6.5000  13.5000 Du        
    301 ****       -13.0000   6.5000  13.7500 Du        
    302 ****       -13.0000   6.5000  14.0000 Du        
    303 ****       -13.0000   6.5000  14.2500 Du        
    304 ****       -13.0000   6.5000  14.5000 Du        
    305 ****       -13.0000   6.5000  14.7500 Du        
    306 ****       -13.0000   6.5000  15.0000 Du        
    307 ****       -13.0000   6.5000  15.2500 Du        
    308 ****       -13.0000   6.5000  15.5000 Du        
    309 ****       -13.0000   6.5000  15.7500 Du        
    310 ****       -13.0000   6.5000  16.0000 Du        
    311 ****       -13.0000   6.5000  16.2500 Du        
    312 ****       -13.0000   6.5000  16.5000 Du        
    313 ****       -13.0000   6.7500   9.0000 Du        
    314 ****       -13.0000   6.7500   9.2500 Du        
    315 ****       -13.0000   6.7500   9.5000 Du        
    316 ****       -13.0000   6.7500   9.7500 Du        
    317 ****       -13.0000   6.7500  10.0000 Du        
    318 ****       -13.0000   6.7500  10.2500 Du        
    319 ****       -13.0000   6.7500  10.5000 Du        
    320 ****       -13.0000   6.7500  10.7500 Du        
    321 ****       -13.0000   6.7500  11.0000 Du        
    322 ****       -13.0000   6.7500  11.2500 Du        
    323 ****       -13.0000   6.7500  13.5000 Du        
    324 ****       -13.0000   6.7500  13.7500 Du        
    325 ****       -13.0000   6.7500  14.0000 Du        
    326 ****       -13.0000   6.7500  14.2500 Du        
    327 ****       -13.0000   6.7500  14.5000 Du        
    328 ****       -13.0000   6.7500  14.7500 Du        
    329 ****       -13.0000   6.7500  15.0000 Du        
    330 ****       -13.0000   6.7500  15.2500 Du        
    331 ****       -13.0000   6.7500  15.5000 Du        
    332 ****       -13.0000   6.7500  15.7500 Du        
    333 ****       -13.0000   6.7500  16.0000 Du        
    334 ****       -13.0000   7.0000   9.5000 Du        
    335 ****       -13.0000   7.0000   9.7500 Du        
    336 ****       -13.0000   7.0000  10.0000 Du        
    337 ****       -13.0000   7.0000  10.2500 Du        
    338 ****       -13.0000   7.0000  10.5000 Du        
    339 ****       -13.0000   7.0000  10.7500 Du        
    340 ****       -13.0000   7.0000  11.0000 Du        
    341 ****       -13.0000   7.0000  13.5000 Du        
    342 ****       -13.0000   7.0000  13.7500 Du        
    343 ****       -13.0000   7.0000  14.0000 Du        
    344 ****       -13.0000   7.0000  14.2500 Du        
    345 ****       -13.0000   7.0000  14.5000 Du        
    346 ****       -13.0000   7.0000  14.7500 Du        
    347 ****       -13.0000   7.0000  15.0000 Du        
    348 ****       -13.0000   7.0000  15.2500 Du        
    349 ****       -13.0000   7.0000  15.5000 Du        
    350 ****       -13.0000   7.2500  10.0000 Du        
    351 ****       -13.0000   7.2500  10.2500 Du        
    352 ****       -13.0000   7.2500  10.5000 Du        
    353 ****       -13.0000   7.2500  10.7500 Du        
    354 ****       -13.0000   7.2500  13.7500 Du        
    355 ****       -13.0000   7.2500  14.0000 Du        
    356 ****       -13.0000   7.2500  14.2500 Du        
    357 ****       -13.0000   7.2500  14.5000 Du        
    358 ****       -13.0000   7.2500  14.7500 Du        
    359 ****       -13.0000   7.2500  15.0000 Du        
    360 ****       -13.0000   7.2500  15.2500 Du        
    361 ****       -13.0000   7.5000  14.0000 Du        
    362 ****       -13.0000   7.5000  14.2500 Du        
    363 ****       -13.0000   7.5000  14.5000 Du        
    364 ****       -13.0000   7.5000  14.7500 Du        
    365 ****       -13.0000   7.7500  14.0000 Du        
    366 ****       -13.0000   7.7500  14.2500 Du        
    367 ****       -13.0000   8.7500  22.0000 Du        
    368 ****       -13.0000   9.0000  22.0000 Du        
    369 ****       -13.0000   9.0000  22.2500 Du        
    370 ****       -13.0000   9.2500  22.0000 Du        
    371 ****       -13.0000   9.2500  22.2500 Du        
    372 ****       -13.0000  10.5000  13.0000 Du        
    373 ****       -13.0000  10.7500  12.7500 Du        
    374 ****       -13.0000  10.7500  13.0000 Du        
    375 ****       -13.0000  10.7500  13.2500 Du        
    376 ****       -13.0000  11.0000  12.7500 Du        
    377 ****       -13.0000  11.0000  13.0000 Du        
    378 ****       -13.0000  11.0000  13.2500 Du        
    379 ****       -13.0000  11.2500  12.5000 Du        
    380 ****       -13.0000  11.2500  12.7500 Du        
    381 ****       -13.0000  11.2500  13.0000 Du        
    382 ****       -13.0000  11.2500  13.2500 Du        
    383 ****       -13.0000  11.5000  12.5000 Du        
    384 ****       -13.0000  11.5000  12.7500 Du        
    385 ****       -13.0000  11.5000  13.0000 Du        
    386 ****       -13.0000  11.5000  13.2500 Du        
    387 ****       -13.0000  11.7500  12.2500 Du        
    388 ****       -13.0000  11.7500  12.5000 Du        
    389 ****       -13.0000  11.7500  12.7500 Du        
    390 ****       -13.0000  11.7500  13.0000 Du        
    391 ****       -13.0000  11.7500  13.2500 Du        
    392 ****       -13.0000  11.7500  13.5000 Du        
    393 ****       -13.0000  12.0000  12.0000 Du        
    394 ****       -13.0000  12.0000  12.2500 Du        
    395 ****       -13.0000  12.0000  12.5000 Du        
    396 ****       -13.0000  12.0000  12.7500 Du        
    397 ****       -13.0000  12.0000  13.0000 Du        
    398 ****       -13.0000  12.0000  13.2500 Du        
    399 ****       -13.0000  12.0000  13.5000 Du        
    400 ****       -13.0000  12.0000  13.7500 Du        
    401 ****       -13.0000  12.0000  24.7500 Du        
    402 ****       -13.0000  12.0000  25.0000 Du        
    403 ****       -13.0000  12.0000  25.2500 Du        
    404 ****       -13.0000  12.2500  12.0000 Du        
    405 ****       -13.0000  12.2500  12.2500 Du        
    406 ****       -13.0000  12.2500  12.5000 Du        
    407 ****       -13.0000  12.2500  12.7500 Du        
    408 ****       -13.0000  12.2500  13.0000 Du        
    409 ****       -13.0000  12.2500  13.2500 Du        
    410 ****       -13.0000  12.2500  13.5000 Du        
    411 ****       -13.0000  12.2500  13.7500 Du        
    412 ****       -13.0000  12.2500  24.5000 Du        
    413 ****       -13.0000  12.2500  24.7500 Du        
    414 ****       -13.0000  12.2500  25.0000 Du        
    415 ****       -13.0000  12.2500  25.2500 Du        
    416 ****       -13.0000  12.2500  25.5000 Du        
    417 ****       -13.0000  12.2500  25.7500 Du        
    418 ****       -13.0000  12.2500  26.0000 Du        
    419 ****       -13.0000  12.2500  26.2500 Du        
    420 ****       -13.0000  12.2500  26.5000 Du        
    421 ****       -13.0000  12.2500  26.7500 Du        
    422 ****       -13.0000  12.2500  27.0000 Du        
    423 ****       -13.0000  12.2500  27.2500 Du        
    424 ****       -13.0000  12.5000  12.0000 Du        
    425 ****       -13.0000  12.5000  12.2500 Du        
    426 ****       -13.0000  12.5000  12.5000 Du        
    427 ****       -13.0000  12.5000  12.7500 Du        
    428 ****       -13.0000  12.5000  13.0000 Du        
    429 ****       -13.0000  12.5000  13.2500 Du        
    430 ****       -13.0000  12.5000  13.5000 Du        
    431 ****       -13.0000  12.5000  13.7500 Du        
    432 ****       -13.0000  12.5000  14.0000 Du        
    433 ****       -13.0000  12.5000  24.2500 Du        
    434 ****       -13.0000  12.5000  24.5000 Du        
    435 ****       -13.0000  12.5000  24.7500 Du        
    436 ****       -13.0000  12.5000  25.0000 Du        
    437 ****       -13.0000  12.5000  25.2500 Du        
    438 ****       -13.0000  12.5000  25.5000 Du        
    439 ****       -13.0000  12.5000  25.7500 Du        
    440 ****       -13.0000  12.5000  26.0000 Du        
    441 ****       -13.0000  12.5000  26.2500 Du        
    442 ****       -13.0000  12.5000  26.5000 Du        
    443 ****       -13.0000  12.5000  26.7500 Du        
    444 ****       -13.0000  12.5000  27.0000 Du        
    445 ****       -13.0000  12.5000  27.2500 Du        
    446 ****       -13.0000  12.5000  27.5000 Du        
    447 ****       -13.0000  12.5000  27.7500 Du        
    448 ****       -13.0000  12.5000  28.0000 Du        
    449 ****       -13.0000  12.7500  12.0000 Du        
    450 ****       -13.0000  12.7500  12.2500 Du        
    451 ****       -13.0000  12.7500  12.5000 Du        
    452 ****       -13.0000  12.7500  12.7500 Du        
    453 ****       -13.0000  12.7500  13.0000 Du        
    454 ****       -13.0000  12.7500  13.2500 Du        
    455 ****       -13.0000  12.7500  13.5000 Du        
    456 ****       -13.0000  12.7500  13.7500 Du        
    457 ****       -13.0000  12.7500  14.0000 Du        
    458 ****       -13.0000  12.7500  24.0000 Du        
    459 ****       -13.0000  12.7500  24.2500 Du        
    460 ****       -13.0000  12.7500  24.5000 Du        
    461 ****       -13.0000  12.7500  24.7500 Du        
    462 ****       -13.0000  12.7500  25.0000 Du        
    463 ****       -13.0000  12.7500  25.2500 Du        
    464 ****       -13.0000  12.7500  25.5000 Du        
    465 ****       -13.0000  12.7500  25.7500 Du        
    466 ****       -13.0000  12.7500  26.0000 Du        
    467 ****       -13.0000  12.7500  26.2500 Du        
    468 ****       -13.0000  12.7500  26.5000 Du        
    469 ****       -13.0000  12.7500  26.7500 Du        
    470 ****       -13.0000  12.7500  27.0000 Du        
    471 ****       -13.0000  12.7500  27.2500 Du        
    472 ****       -13.0000  12.7500  27.5000 Du        
    473 ****       -13.0000  12.7500  27.7500 Du        
    474 ****       -13.0000  12.7500  28.0000 Du        
    475 ****       -13.0000  12.7500  28.2500 Du        
    476 ****       -13.0000  13.0000  12.0000 Du        
    477 ****       -13.0000  13.0000  12.2500 Du        
    478 ****       -13.0000  13.0000  12.5000 Du        
    479 ****       -13.0000  13.0000  12.7500 Du        
    480 ****       -13.0000  13.0000  13.0000 Du        
    481 ****       -13.0000  13.0000  13.2500 Du        
    482 ****       -13.0000  13.0000  13.5000 Du        
    483 ****       -13.0000  13.0000  13.7500 Du        
    484 ****       -13.0000  13.0000  24.0000 Du        
    485 ****       -13.0000  13.0000  24.2500 Du        
    486 ****       -13.0000  13.0000  24.5000 Du        
    487 ****       -13.0000  13.0000  24.7500 Du        
    488 ****       -13.0000  13.0000  25.0000 Du        
    489 ****       -13.0000  13.0000  25.2500 Du        
    490 ****       -13.0000  13.0000  25.5000 Du        
    491 ****       -13.0000  13.0000  25.7500 Du        
    492 ****       -13.0000  13.0000  26.0000 Du        
    493 ****       -13.0000  13.0000  26.2500 Du        
    494 ****       -13.0000  13.0000  26.5000 Du        
    495 ****       -13.0000  13.0000  26.7500 Du        
    496 ****       -13.0000  13.0000  27.0000 Du        
    497 ****       -13.0000  13.0000  27.2500 Du        
    498 ****       -13.0000  13.0000  27.5000 Du        
    499 ****       -13.0000  13.0000  27.7500 Du        
    500 ****       -13.0000  13.0000  28.0000 Du        
    501 ****       -13.0000  13.2500  12.2500 Du        
    502 ****       -13.0000  13.2500  12.5000 Du        
    503 ****       -13.0000  13.2500  12.7500 Du        
    504 ****       -13.0000  13.2500  13.0000 Du        
    505 ****       -13.0000  13.2500  13.2500 Du        
    506 ****       -13.0000  13.2500  13.5000 Du        
    507 ****       -13.0000  13.2500  24.2500 Du        
    508 ****       -13.0000  13.2500  24.5000 Du        
    509 ****       -13.0000  13.2500  24.7500 Du        
    510 ****       -13.0000  13.2500  25.0000 Du        
    511 ****       -13.0000  13.2500  25.2500 Du        
    512 ****       -13.0000  13.2500  27.2500 Du        
    513 ****       -13.0000  13.2500  27.7500 Du        
    514 ****       -13.0000  13.2500  28.0000 Du        
    515 ****       -13.0000  13.5000  12.7500 Du        
    516 ****       -13.0000  13.5000  13.0000 Du        
    517 ****       -13.0000  13.5000  24.2500 Du        
    518 ****       -13.0000  13.5000  24.5000 Du        
    519 ****       -12.7500  -1.0000   1.0000 Du        
    520 ****       -12.7500  -1.0000   1.2500 Du        
    521 ****       -12.7500  -0.7500   1.0000 Du        
    522 ****       -12.7500  -0.7500   1.2500 Du        
    523 ****       -12.7500  -0.7500   1.5000 Du        
    524 ****       -12.7500  -0.7500   1.7500 Du        
    525 ****       -12.7500  -0.5000   1.5000 Du        
    526 ****       -12.7500  -0.5000   1.7500 Du        
    527 ****       -12.7500  -0.5000   2.0000 Du        
    528 ****       -12.7500  -0.2500   1.7500 Du        
    529 ****       -12.7500  -0.2500   2.0000 Du        
    530 ****       -12.7500  -0.2500   2.2500 Du        
    531 ****       -12.7500   0.0000   2.0000 Du        
    532 ****       -12.7500   0.0000   2.5000 Du        
    533 ****       -12.7500   0.0000   2.7500 Du        
    534 ****       -12.7500   0.7500  21.0000 Du        
    535 ****       -12.7500   1.0000  20.0000 Du        
    536 ****       -12.7500   1.0000  20.2500 Du        
    537 ****       -12.7500   1.0000  20.5000 Du        
    538 ****       -12.7500   1.0000  20.7500 Du        
    539 ****       -12.7500   1.0000  21.0000 Du        
    540 ****       -12.7500   1.2500  19.7500 Du        
    541 ****       -12.7500   1.2500  20.0000 Du        
    542 ****       -12.7500   1.2500  20.2500 Du        
    543 ****       -12.7500   1.2500  20.5000 Du        
    544 ****       -12.7500   1.2500  20.7500 Du        
    545 ****       -12.7500   1.5000  19.5000 Du        
    546 ****       -12.7500   1.5000  19.7500 Du        
    547 ****       -12.7500   1.5000  20.0000 Du        
    548 ****       -12.7500   1.5000  20.2500 Du        
    549 ****       -12.7500   1.5000  20.5000 Du        
    550 ****       -12.7500   1.7500  19.2500 Du        
    551 ****       -12.7500   1.7500  19.5000 Du        
    552 ****       -12.7500   1.7500  19.7500 Du        
    553 ****       -12.7500   1.7500  20.0000 Du        
    554 ****       -12.7500   1.7500  20.2500 Du        
    555 ****       -12.7500   1.7500  20.5000 Du        
    556 ****       -12.7500   2.0000  19.2500 Du        
    557 ****       -12.7500   2.0000  19.5000 Du        
    558 ****       -12.7500   2.0000  19.7500 Du        
    559 ****       -12.7500   2.0000  20.0000 Du        
    560 ****       -12.7500   2.0000  20.2500 Du        
    561 ****       -12.7500   2.2500   5.5000 Du        
    562 ****       -12.7500   2.2500   5.7500 Du        
    563 ****       -12.7500   2.2500  19.0000 Du        
    564 ****       -12.7500   2.2500  19.2500 Du        
    565 ****       -12.7500   2.2500  19.5000 Du        
    566 ****       -12.7500   2.2500  19.7500 Du        
    567 ****       -12.7500   2.2500  20.0000 Du        
    568 ****       -12.7500   2.2500  20.2500 Du        
    569 ****       -12.7500   2.5000   5.7500 Du        
    570 ****       -12.7500   2.5000  19.0000 Du        
    571 ****       -12.7500   2.5000  19.2500 Du        
    572 ****       -12.7500   2.5000  19.5000 Du        
    573 ****       -12.7500   2.5000  19.7500 Du        
    574 ****       -12.7500   2.5000  20.0000 Du        
    575 ****       -12.7500   2.7500   5.7500 Du        
    576 ****       -12.7500   2.7500   6.0000 Du        
    577 ****       -12.7500   2.7500  18.7500 Du        
    578 ****       -12.7500   2.7500  19.0000 Du        
    579 ****       -12.7500   2.7500  19.2500 Du        
    580 ****       -12.7500   2.7500  19.5000 Du        
    581 ****       -12.7500   2.7500  19.7500 Du        
    582 ****       -12.7500   3.0000   5.7500 Du        
    583 ****       -12.7500   3.0000   6.0000 Du        
    584 ****       -12.7500   3.0000  18.7500 Du        
    585 ****       -12.7500   3.0000  19.0000 Du        
    586 ****       -12.7500   3.0000  19.2500 Du        
    587 ****       -12.7500   3.2500   6.0000 Du        
    588 ****       -12.7500   3.2500   6.2500 Du        
    589 ****       -12.7500   3.2500  16.5000 Du        
    590 ****       -12.7500   3.2500  16.7500 Du        
    591 ****       -12.7500   3.2500  17.0000 Du        
    592 ****       -12.7500   3.2500  17.2500 Du        
    593 ****       -12.7500   3.2500  17.5000 Du        
    594 ****       -12.7500   3.2500  17.7500 Du        
    595 ****       -12.7500   3.2500  18.0000 Du        
    596 ****       -12.7500   3.2500  18.2500 Du        
    597 ****       -12.7500   3.2500  18.5000 Du        
    598 ****       -12.7500   3.2500  18.7500 Du        
    599 ****       -12.7500   3.2500  19.0000 Du        
    600 ****       -12.7500   3.5000  16.5000 Du        
    601 ****       -12.7500   3.5000  16.7500 Du        
    602 ****       -12.7500   3.5000  17.0000 Du        
    603 ****       -12.7500   3.5000  17.2500 Du        
    604 ****       -12.7500   3.5000  17.5000 Du        
    605 ****       -12.7500   3.5000  17.7500 Du        
    606 ****       -12.7500   3.5000  18.0000 Du        
    607 ****       -12.7500   3.5000  18.2500 Du        
    608 ****       -12.7500   3.7500   6.5000 Du        
    609 ****       -12.7500   3.7500   6.7500 Du        
    610 ****       -12.7500   3.7500  16.2500 Du        
    611 ****       -12.7500   3.7500  16.5000 Du        
    612 ****       -12.7500   3.7500  16.7500 Du        
    613 ****       -12.7500   3.7500  17.0000 Du        
    614 ****       -12.7500   3.7500  17.2500 Du        
    615 ****       -12.7500   3.7500  17.5000 Du        
    616 ****       -12.7500   3.7500  17.7500 Du        
    617 ****       -12.7500   3.7500  18.0000 Du        
    618 ****       -12.7500   3.7500  18.2500 Du        
    619 ****       -12.7500   4.0000   6.5000 Du        
    620 ****       -12.7500   4.0000   6.7500 Du        
    621 ****       -12.7500   4.0000   7.0000 Du        
    622 ****       -12.7500   4.0000  16.2500 Du        
    623 ****       -12.7500   4.0000  16.5000 Du        
    624 ****       -12.7500   4.0000  16.7500 Du        
    625 ****       -12.7500   4.0000  17.0000 Du        
    626 ****       -12.7500   4.0000  17.2500 Du        
    627 ****       -12.7500   4.0000  17.5000 Du        
    628 ****       -12.7500   4.0000  17.7500 Du        
    629 ****       -12.7500   4.0000  18.0000 Du        
    630 ****       -12.7500   4.0000  18.2500 Du        
    631 ****       -12.7500   4.2500   6.7500 Du        
    632 ****       -12.7500   4.2500   7.0000 Du        
    633 ****       -12.7500   4.2500   7.2500 Du        
    634 ****       -12.7500   4.2500   7.5000 Du        
    635 ****       -12.7500   4.2500   7.7500 Du        
    636 ****       -12.7500   4.2500  16.0000 Du        
    637 ****       -12.7500   4.2500  16.2500 Du        
    638 ****       -12.7500   4.2500  16.5000 Du        
    639 ****       -12.7500   4.2500  16.7500 Du        
    640 ****       -12.7500   4.2500  17.0000 Du        
    641 ****       -12.7500   4.2500  17.2500 Du        
    642 ****       -12.7500   4.2500  17.5000 Du        
    643 ****       -12.7500   4.2500  17.7500 Du        
    644 ****       -12.7500   4.5000   7.2500 Du        
    645 ****       -12.7500   4.5000   7.5000 Du        
    646 ****       -12.7500   4.5000   7.7500 Du        
    647 ****       -12.7500   4.5000   8.0000 Du        
    648 ****       -12.7500   4.5000  16.0000 Du        
    649 ****       -12.7500   4.5000  16.2500 Du        
    650 ****       -12.7500   4.5000  16.5000 Du        
    651 ****       -12.7500   4.5000  16.7500 Du        
    652 ****       -12.7500   4.5000  17.0000 Du        
    653 ****       -12.7500   4.5000  17.2500 Du        
    654 ****       -12.7500   4.5000  17.5000 Du        
    655 ****       -12.7500   4.5000  17.7500 Du        
    656 ****       -12.7500   4.7500   7.2500 Du        
    657 ****       -12.7500   4.7500   7.5000 Du        
    658 ****       -12.7500   4.7500   7.7500 Du        
    659 ****       -12.7500   4.7500   8.0000 Du        
    660 ****       -12.7500   4.7500   8.2500 Du        
    661 ****       -12.7500   4.7500   8.5000 Du        
    662 ****       -12.7500   4.7500  15.7500 Du        
    663 ****       -12.7500   4.7500  16.0000 Du        
    664 ****       -12.7500   4.7500  16.2500 Du        
    665 ****       -12.7500   4.7500  16.5000 Du        
    666 ****       -12.7500   4.7500  16.7500 Du        
    667 ****       -12.7500   4.7500  17.0000 Du        
    668 ****       -12.7500   4.7500  17.2500 Du        
    669 ****       -12.7500   4.7500  17.5000 Du        
    670 ****       -12.7500   5.0000   7.5000 Du        
    671 ****       -12.7500   5.0000   7.7500 Du        
    672 ****       -12.7500   5.0000   8.0000 Du        
    673 ****       -12.7500   5.0000   8.2500 Du        
    674 ****       -12.7500   5.0000   8.5000 Du        
    675 ****       -12.7500   5.0000   8.7500 Du        
    676 ****       -12.7500   5.0000  15.5000 Du        
    677 ****       -12.7500   5.0000  15.7500 Du        
    678 ****       -12.7500   5.0000  16.0000 Du        
    679 ****       -12.7500   5.0000  16.2500 Du        
    680 ****       -12.7500   5.0000  16.5000 Du        
    681 ****       -12.7500   5.0000  16.7500 Du        
    682 ****       -12.7500   5.0000  17.0000 Du        
    683 ****       -12.7500   5.0000  17.2500 Du        
    684 ****       -12.7500   5.0000  17.5000 Du        
    685 ****       -12.7500   5.2500   7.5000 Du        
    686 ****       -12.7500   5.2500   7.7500 Du        
    687 ****       -12.7500   5.2500   8.0000 Du        
    688 ****       -12.7500   5.2500   8.2500 Du        
    689 ****       -12.7500   5.2500   8.5000 Du        
    690 ****       -12.7500   5.2500   8.7500 Du        
    691 ****       -12.7500   5.2500   9.0000 Du        
    692 ****       -12.7500   5.2500   9.2500 Du        
    693 ****       -12.7500   5.2500  15.2500 Du        
    694 ****       -12.7500   5.2500  15.5000 Du        
    695 ****       -12.7500   5.2500  15.7500 Du        
    696 ****       -12.7500   5.2500  16.0000 Du        
    697 ****       -12.7500   5.2500  16.2500 Du        
    698 ****       -12.7500   5.2500  16.5000 Du        
    699 ****       -12.7500   5.2500  16.7500 Du        
    700 ****       -12.7500   5.2500  17.0000 Du        
    701 ****       -12.7500   5.2500  17.2500 Du        
    702 ****       -12.7500   5.2500  17.5000 Du        
    703 ****       -12.7500   5.5000   8.0000 Du        
    704 ****       -12.7500   5.5000   8.2500 Du        
    705 ****       -12.7500   5.5000   8.5000 Du        
    706 ****       -12.7500   5.5000   8.7500 Du        
    707 ****       -12.7500   5.5000   9.0000 Du        
    708 ****       -12.7500   5.5000   9.2500 Du        
    709 ****       -12.7500   5.5000   9.5000 Du        
    710 ****       -12.7500   5.5000  14.7500 Du        
    711 ****       -12.7500   5.5000  15.0000 Du        
    712 ****       -12.7500   5.5000  15.2500 Du        
    713 ****       -12.7500   5.5000  15.5000 Du        
    714 ****       -12.7500   5.5000  15.7500 Du        
    715 ****       -12.7500   5.5000  16.0000 Du        
    716 ****       -12.7500   5.5000  16.2500 Du        
    717 ****       -12.7500   5.5000  16.5000 Du        
    718 ****       -12.7500   5.5000  16.7500 Du        
    719 ****       -12.7500   5.5000  17.0000 Du        
    720 ****       -12.7500   5.5000  17.2500 Du        
    721 ****       -12.7500   5.5000  17.5000 Du        
    722 ****       -12.7500   5.7500   8.0000 Du        
    723 ****       -12.7500   5.7500   8.2500 Du        
    724 ****       -12.7500   5.7500   8.5000 Du        
    725 ****       -12.7500   5.7500   8.7500 Du        
    726 ****       -12.7500   5.7500   9.0000 Du        
    727 ****       -12.7500   5.7500   9.2500 Du        
    728 ****       -12.7500   5.7500   9.5000 Du        
    729 ****       -12.7500   5.7500   9.7500 Du        
    730 ****       -12.7500   5.7500  10.0000 Du        
    731 ****       -12.7500   5.7500  10.2500 Du        
    732 ****       -12.7500   5.7500  14.5000 Du        
    733 ****       -12.7500   5.7500  14.7500 Du        
    734 ****       -12.7500   5.7500  15.0000 Du        
    735 ****       -12.7500   5.7500  15.2500 Du        
    736 ****       -12.7500   5.7500  15.5000 Du        
    737 ****       -12.7500   5.7500  15.7500 Du        
    738 ****       -12.7500   5.7500  16.0000 Du        
    739 ****       -12.7500   5.7500  16.2500 Du        
    740 ****       -12.7500   5.7500  16.5000 Du        
    741 ****       -12.7500   5.7500  16.7500 Du        
    742 ****       -12.7500   5.7500  17.0000 Du        
    743 ****       -12.7500   5.7500  17.2500 Du        
    744 ****       -12.7500   5.7500  17.5000 Du        
    745 ****       -12.7500   5.7500  17.7500 Du        
    746 ****       -12.7500   6.0000   8.2500 Du        
    747 ****       -12.7500   6.0000   8.5000 Du        
    748 ****       -12.7500   6.0000   8.7500 Du        
    749 ****       -12.7500   6.0000   9.0000 Du        
    750 ****       -12.7500   6.0000   9.2500 Du        
    751 ****       -12.7500   6.0000   9.5000 Du        
    752 ****       -12.7500   6.0000   9.7500 Du        
    753 ****       -12.7500   6.0000  10.0000 Du        
    754 ****       -12.7500   6.0000  10.2500 Du        
    755 ****       -12.7500   6.0000  10.5000 Du        
    756 ****       -12.7500   6.0000  10.7500 Du        
    757 ****       -12.7500   6.0000  14.2500 Du        
    758 ****       -12.7500   6.0000  14.5000 Du        
    759 ****       -12.7500   6.0000  14.7500 Du        
    760 ****       -12.7500   6.0000  15.0000 Du        
    761 ****       -12.7500   6.0000  15.2500 Du        
    762 ****       -12.7500   6.0000  15.5000 Du        
    763 ****       -12.7500   6.0000  15.7500 Du        
    764 ****       -12.7500   6.0000  16.0000 Du        
    765 ****       -12.7500   6.0000  16.2500 Du        
    766 ****       -12.7500   6.0000  16.5000 Du        
    767 ****       -12.7500   6.0000  16.7500 Du        
    768 ****       -12.7500   6.0000  17.0000 Du        
    769 ****       -12.7500   6.0000  17.2500 Du        
    770 ****       -12.7500   6.0000  17.5000 Du        
    771 ****       -12.7500   6.0000  17.7500 Du        
    772 ****       -12.7500   6.0000  18.0000 Du        
    773 ****       -12.7500   6.2500   8.5000 Du        
    774 ****       -12.7500   6.2500   8.7500 Du        
    775 ****       -12.7500   6.2500   9.0000 Du        
    776 ****       -12.7500   6.2500   9.2500 Du        
    777 ****       -12.7500   6.2500   9.5000 Du        
    778 ****       -12.7500   6.2500   9.7500 Du        
    779 ****       -12.7500   6.2500  10.0000 Du        
    780 ****       -12.7500   6.2500  10.2500 Du        
    781 ****       -12.7500   6.2500  10.5000 Du        
    782 ****       -12.7500   6.2500  10.7500 Du        
    783 ****       -12.7500   6.2500  14.0000 Du        
    784 ****       -12.7500   6.2500  14.2500 Du        
    785 ****       -12.7500   6.2500  14.5000 Du        
    786 ****       -12.7500   6.2500  14.7500 Du        
    787 ****       -12.7500   6.2500  15.0000 Du        
    788 ****       -12.7500   6.2500  15.2500 Du        
    789 ****       -12.7500   6.2500  15.5000 Du        
    790 ****       -12.7500   6.2500  15.7500 Du        
    791 ****       -12.7500   6.2500  16.0000 Du        
    792 ****       -12.7500   6.2500  16.2500 Du        
    793 ****       -12.7500   6.2500  16.5000 Du        
    794 ****       -12.7500   6.2500  16.7500 Du        
    795 ****       -12.7500   6.2500  17.0000 Du        
    796 ****       -12.7500   6.2500  17.2500 Du        
    797 ****       -12.7500   6.2500  17.5000 Du        
    798 ****       -12.7500   6.2500  17.7500 Du        
    799 ****       -12.7500   6.5000   9.0000 Du        
    800 ****       -12.7500   6.5000   9.2500 Du        
    801 ****       -12.7500   6.5000   9.5000 Du        
    802 ****       -12.7500   6.5000   9.7500 Du        
    803 ****       -12.7500   6.5000  10.0000 Du        
    804 ****       -12.7500   6.5000  10.2500 Du        
    805 ****       -12.7500   6.5000  10.5000 Du        
    806 ****       -12.7500   6.5000  10.7500 Du        
    807 ****       -12.7500   6.5000  14.0000 Du        
    808 ****       -12.7500   6.5000  14.2500 Du        
    809 ****       -12.7500   6.5000  14.5000 Du        
    810 ****       -12.7500   6.5000  14.7500 Du        
    811 ****       -12.7500   6.5000  15.0000 Du        
    812 ****       -12.7500   6.5000  15.2500 Du        
    813 ****       -12.7500   6.5000  15.5000 Du        
    814 ****       -12.7500   6.5000  15.7500 Du        
    815 ****       -12.7500   6.5000  16.0000 Du        
    816 ****       -12.7500   6.5000  16.2500 Du        
    817 ****       -12.7500   6.5000  16.5000 Du        
    818 ****       -12.7500   6.5000  16.7500 Du        
    819 ****       -12.7500   6.5000  17.0000 Du        
    820 ****       -12.7500   6.7500   9.2500 Du        
    821 ****       -12.7500   6.7500   9.5000 Du        
    822 ****       -12.7500   6.7500   9.7500 Du        
    823 ****       -12.7500   6.7500  10.0000 Du        
    824 ****       -12.7500   6.7500  10.2500 Du        
    825 ****       -12.7500   6.7500  10.5000 Du        
    826 ****       -12.7500   6.7500  10.7500 Du        
    827 ****       -12.7500   6.7500  14.0000 Du        
    828 ****       -12.7500   6.7500  14.2500 Du        
    829 ****       -12.7500   6.7500  14.5000 Du        
    830 ****       -12.7500   6.7500  14.7500 Du        
    831 ****       -12.7500   6.7500  15.0000 Du        
    832 ****       -12.7500   6.7500  15.2500 Du        
    833 ****       -12.7500   6.7500  15.5000 Du        
    834 ****       -12.7500   6.7500  15.7500 Du        
    835 ****       -12.7500   6.7500  16.0000 Du        
    836 ****       -12.7500   6.7500  16.2500 Du        
    837 ****       -12.7500   7.0000   9.5000 Du        
    838 ****       -12.7500   7.0000   9.7500 Du        
    839 ****       -12.7500   7.0000  10.0000 Du        
    840 ****       -12.7500   7.0000  10.2500 Du        
    841 ****       -12.7500   7.0000  10.5000 Du        
    842 ****       -12.7500   7.0000  14.0000 Du        
    843 ****       -12.7500   7.0000  14.2500 Du        
    844 ****       -12.7500   7.0000  14.5000 Du        
    845 ****       -12.7500   7.0000  14.7500 Du        
    846 ****       -12.7500   7.0000  15.0000 Du        
    847 ****       -12.7500   7.0000  15.2500 Du        
    848 ****       -12.7500   7.0000  15.5000 Du        
    849 ****       -12.7500   7.0000  15.7500 Du        
    850 ****       -12.7500   7.2500  10.0000 Du        
    851 ****       -12.7500   7.2500  10.2500 Du        
    852 ****       -12.7500   7.2500  14.5000 Du        
    853 ****       -12.7500   7.2500  14.7500 Du        
    854 ****       -12.7500   7.2500  15.0000 Du        
    855 ****       -12.7500   7.2500  15.2500 Du        
    856 ****       -12.7500   7.5000  14.7500 Du        
    857 ****       -12.7500   7.5000  15.0000 Du        
    858 ****       -12.7500   8.2500  21.7500 Du        
    859 ****       -12.7500   8.5000  21.7500 Du        
    860 ****       -12.7500   8.5000  22.0000 Du        
    861 ****       -12.7500   8.7500  21.7500 Du        
    862 ****       -12.7500   8.7500  22.0000 Du        
    863 ****       -12.7500   8.7500  22.2500 Du        
    864 ****       -12.7500   9.0000  21.7500 Du        
    865 ****       -12.7500   9.0000  22.0000 Du        
    866 ****       -12.7500   9.0000  22.2500 Du        
    867 ****       -12.7500   9.2500  22.0000 Du        
    868 ****       -12.7500  10.2500  13.0000 Du        
    869 ****       -12.7500  10.2500  13.2500 Du        
    870 ****       -12.7500  10.5000  12.7500 Du        
    871 ****       -12.7500  10.5000  13.0000 Du        
    872 ****       -12.7500  10.5000  13.2500 Du        
    873 ****       -12.7500  10.7500  12.5000 Du        
    874 ****       -12.7500  10.7500  12.7500 Du        
    875 ****       -12.7500  10.7500  13.0000 Du        
    876 ****       -12.7500  10.7500  13.2500 Du        
    877 ****       -12.7500  10.7500  13.5000 Du        
    878 ****       -12.7500  11.0000  12.5000 Du        
    879 ****       -12.7500  11.0000  12.7500 Du        
    880 ****       -12.7500  11.0000  13.0000 Du        
    881 ****       -12.7500  11.0000  13.2500 Du        
    882 ****       -12.7500  11.0000  13.5000 Du        
    883 ****       -12.7500  11.2500  12.5000 Du        
    884 ****       -12.7500  11.2500  12.7500 Du        
    885 ****       -12.7500  11.2500  13.0000 Du        
    886 ****       -12.7500  11.2500  13.2500 Du        
    887 ****       -12.7500  11.2500  13.5000 Du        
    888 ****       -12.7500  11.5000  12.5000 Du        
    889 ****       -12.7500  11.5000  12.7500 Du        
    890 ****       -12.7500  11.5000  13.0000 Du        
    891 ****       -12.7500  11.5000  13.2500 Du        
    892 ****       -12.7500  11.5000  13.5000 Du        
    893 ****       -12.7500  11.5000  13.7500 Du        
    894 ****       -12.7500  11.7500  12.2500 Du        
    895 ****       -12.7500  11.7500  12.5000 Du        
    896 ****       -12.7500  11.7500  12.7500 Du        
    897 ****       -12.7500  11.7500  13.0000 Du        
    898 ****       -12.7500  11.7500  13.2500 Du        
    899 ****       -12.7500  11.7500  13.5000 Du        
    900 ****       -12.7500  11.7500  13.7500 Du        
    901 ****       -12.7500  12.0000  12.0000 Du        
    902 ****       -12.7500  12.0000  12.2500 Du        
    903 ****       -12.7500  12.0000  12.5000 Du        
    904 ****       -12.7500  12.0000  12.7500 Du        
    905 ****       -12.7500  12.0000  13.0000 Du        
    906 ****       -12.7500  12.0000  13.2500 Du        
    907 ****       -12.7500  12.0000  13.5000 Du        
    908 ****       -12.7500  12.0000  13.7500 Du        
    909 ****       -12.7500  12.0000  14.0000 Du        
    910 ****       -12.7500  12.2500  12.0000 Du        
    911 ****       -12.7500  12.2500  12.2500 Du        
    912 ****       -12.7500  12.2500  12.5000 Du        
    913 ****       -12.7500  12.2500  12.7500 Du        
    914 ****       -12.7500  12.2500  13.0000 Du        
    915 ****       -12.7500  12.2500  13.2500 Du        
    916 ****       -12.7500  12.2500  13.5000 Du        
    917 ****       -12.7500  12.2500  13.7500 Du        
    918 ****       -12.7500  12.2500  14.0000 Du        
    919 ****       -12.7500  12.2500  25.0000 Du        
    920 ****       -12.7500  12.2500  25.2500 Du        
    921 ****       -12.7500  12.2500  25.5000 Du        
    922 ****       -12.7500  12.2500  25.7500 Du        
    923 ****       -12.7500  12.2500  26.0000 Du        
    924 ****       -12.7500  12.2500  26.2500 Du        
    925 ****       -12.7500  12.2500  26.5000 Du        
    926 ****       -12.7500  12.2500  26.7500 Du        
    927 ****       -12.7500  12.2500  27.0000 Du        
    928 ****       -12.7500  12.2500  27.2500 Du        
    929 ****       -12.7500  12.5000  12.0000 Du        
    930 ****       -12.7500  12.5000  12.2500 Du        
    931 ****       -12.7500  12.5000  12.5000 Du        
    932 ****       -12.7500  12.5000  12.7500 Du        
    933 ****       -12.7500  12.5000  13.0000 Du        
    934 ****       -12.7500  12.5000  13.2500 Du        
    935 ****       -12.7500  12.5000  13.5000 Du        
    936 ****       -12.7500  12.5000  13.7500 Du        
    937 ****       -12.7500  12.5000  14.0000 Du        
    938 ****       -12.7500  12.5000  14.2500 Du        
    939 ****       -12.7500  12.5000  24.5000 Du        
    940 ****       -12.7500  12.5000  24.7500 Du        
    941 ****       -12.7500  12.5000  25.0000 Du        
    942 ****       -12.7500  12.5000  25.2500 Du        
    943 ****       -12.7500  12.5000  25.5000 Du        
    944 ****       -12.7500  12.5000  25.7500 Du        
    945 ****       -12.7500  12.5000  26.0000 Du        
    946 ****       -12.7500  12.5000  26.2500 Du        
    947 ****       -12.7500  12.5000  26.5000 Du        
    948 ****       -12.7500  12.5000  26.7500 Du        
    949 ****       -12.7500  12.5000  27.0000 Du        
    950 ****       -12.7500  12.5000  27.2500 Du        
    951 ****       -12.7500  12.5000  27.5000 Du        
    952 ****       -12.7500  12.5000  27.7500 Du        
    953 ****       -12.7500  12.5000  28.0000 Du        
    954 ****       -12.7500  12.5000  28.2500 Du        
    955 ****       -12.7500  12.7500  12.0000 Du        
    956 ****       -12.7500  12.7500  12.2500 Du        
    957 ****       -12.7500  12.7500  12.5000 Du        
    958 ****       -12.7500  12.7500  12.7500 Du        
    959 ****       -12.7500  12.7500  13.0000 Du        
    960 ****       -12.7500  12.7500  13.2500 Du        
    961 ****       -12.7500  12.7500  13.5000 Du        
    962 ****       -12.7500  12.7500  13.7500 Du        
    963 ****       -12.7500  12.7500  14.0000 Du        
    964 ****       -12.7500  12.7500  14.2500 Du        
    965 ****       -12.7500  12.7500  24.5000 Du        
    966 ****       -12.7500  12.7500  24.7500 Du        
    967 ****       -12.7500  12.7500  25.0000 Du        
    968 ****       -12.7500  12.7500  25.2500 Du        
    969 ****       -12.7500  12.7500  25.5000 Du        
    970 ****       -12.7500  12.7500  25.7500 Du        
    971 ****       -12.7500  12.7500  26.0000 Du        
    972 ****       -12.7500  12.7500  26.2500 Du        
    973 ****       -12.7500  12.7500  26.5000 Du        
    974 ****       -12.7500  12.7500  26.7500 Du        
    975 ****       -12.7500  12.7500  27.0000 Du        
    976 ****       -12.7500  12.7500  27.2500 Du        
    977 ****       -12.7500  12.7500  27.5000 Du        
    978 ****       -12.7500  12.7500  27.7500 Du        
    979 ****       -12.7500  12.7500  28.0000 Du        
    980 ****       -12.7500  12.7500  28.2500 Du        
    981 ****       -12.7500  13.0000  12.0000 Du        
    982 ****       -12.7500  13.0000  12.2500 Du        
    983 ****       -12.7500  13.0000  12.5000 Du        
    984 ****       -12.7500  13.0000  12.7500 Du        
    985 ****       -12.7500  13.0000  13.0000 Du        
    986 ****       -12.7500  13.0000  13.2500 Du        
    987 ****       -12.7500  13.0000  13.5000 Du        
    988 ****       -12.7500  13.0000  13.7500 Du        
    989 ****       -12.7500  13.0000  14.0000 Du        
    990 ****       -12.7500  13.0000  24.2500 Du        
    991 ****       -12.7500  13.0000  24.5000 Du        
    992 ****       -12.7500  13.0000  24.7500 Du        
    993 ****       -12.7500  13.0000  25.0000 Du        
    994 ****       -12.7500  13.0000  25.2500 Du        
    995 ****       -12.7500  13.0000  25.5000 Du        
    996 ****       -12.7500  13.0000  25.7500 Du        
    997 ****       -12.7500  13.0000  26.0000 Du        
    998 ****       -12.7500  13.0000  26.2500 Du        
    999 ****       -12.7500  13.0000  26.5000 Du        
   1000 ****       -12.7500  13.0000  26.7500 Du        
   1001 ****       -12.7500  13.0000  27.0000 Du        
   1002 ****       -12.7500  13.0000  27.2500 Du        
   1003 ****       -12.7500  13.0000  27.5000 Du        
   1004 ****       -12.7500  13.0000  27.7500 Du        
   1005 ****       -12.7500  13.0000  28.0000 Du        
   1006 ****       -12.7500  13.2500  12.5000 Du        
   1007 ****       -12.7500  13.2500  12.7500 Du        
   1008 ****       -12.7500  13.2500  13.0000 Du        
   1009 ****       -12.7500  13.2500  13.2500 Du        
   1010 ****       -12.7500  13.2500  13.5000 Du        
   1011 ****       -12.7500  13.2500  24.2500 Du        
   1012 ****       -12.7500  13.2500  24.5000 Du        
   1013 ****       -12.7500  13.2500  24.7500 Du        
   1014 ****       -12.7500  13.2500  25.0000 Du        
   1015 ****       -12.7500  13.2500  25.2500 Du        
   1016 ****       -12.7500  13.2500  25.5000 Du        
   1017 ****       -12.7500  13.2500  25.7500 Du        
   1018 ****       -12.7500  13.2500  26.0000 Du        
   1019 ****       -12.7500  13.2500  26.2500 Du        
   1020 ****       -12.7500  13.2500  26.5000 Du        
   1021 ****       -12.7500  13.2500  26.7500 Du        
   1022 ****       -12.7500  13.2500  27.0000 Du        
   1023 ****       -12.7500  13.2500  27.2500 Du        
   1024 ****       -12.7500  13.2500  27.5000 Du        
   1025 ****       -12.7500  13.2500  27.7500 Du        
   1026 ****       -12.7500  13.2500  28.0000 Du        
   1027 ****       -12.7500  13.5000  24.2500 Du        
   1028 ****       -12.7500  13.5000  24.5000 Du        
   1029 ****       -12.7500  13.5000  24.7500 Du        
   1030 ****       -12.7500  13.5000  25.0000 Du        
   1031 ****       -12.7500  13.5000  27.0000 Du        
   1032 ****       -12.7500  13.5000  27.2500 Du        
   1033 ****       -12.5000  -0.2500   2.0000 Du        
   1034 ****       -12.5000  -0.2500   2.2500 Du        
   1035 ****       -12.5000  -0.2500   2.5000 Du        
   1036 ****       -12.5000  -0.2500   2.7500 Du        
   1037 ****       -12.5000  -0.2500   3.0000 Du        
   1038 ****       -12.5000  -0.2500   3.2500 Du        
   1039 ****       -12.5000  -0.2500   3.5000 Du        
   1040 ****       -12.5000   0.0000   2.5000 Du        
   1041 ****       -12.5000   0.0000   2.7500 Du        
   1042 ****       -12.5000   0.0000   3.0000 Du        
   1043 ****       -12.5000   0.0000   3.2500 Du        
   1044 ****       -12.5000   0.0000   3.5000 Du        
   1045 ****       -12.5000   0.0000   3.7500 Du        
   1046 ****       -12.5000   0.2500   2.5000 Du        
   1047 ****       -12.5000   0.2500   2.7500 Du        
   1048 ****       -12.5000   0.2500   3.0000 Du        
   1049 ****       -12.5000   0.2500   3.2500 Du        
   1050 ****       -12.5000   0.2500   3.5000 Du        
   1051 ****       -12.5000   1.2500  20.0000 Du        
   1052 ****       -12.5000   1.2500  20.2500 Du        
   1053 ****       -12.5000   1.2500  20.5000 Du        
   1054 ****       -12.5000   1.5000  19.5000 Du        
   1055 ****       -12.5000   1.5000  19.7500 Du        
   1056 ****       -12.5000   1.5000  20.0000 Du        
   1057 ****       -12.5000   1.5000  20.2500 Du        
   1058 ****       -12.5000   1.7500  19.0000 Du        
   1059 ****       -12.5000   1.7500  19.2500 Du        
   1060 ****       -12.5000   1.7500  19.5000 Du        
   1061 ****       -12.5000   1.7500  19.7500 Du        
   1062 ****       -12.5000   1.7500  20.0000 Du        
   1063 ****       -12.5000   1.7500  20.2500 Du        
   1064 ****       -12.5000   1.7500  20.5000 Du        
   1065 ****       -12.5000   2.0000   5.5000 Du        
   1066 ****       -12.5000   2.0000  19.0000 Du        
   1067 ****       -12.5000   2.0000  19.2500 Du        
   1068 ****       -12.5000   2.0000  19.5000 Du        
   1069 ****       -12.5000   2.0000  19.7500 Du        
   1070 ****       -12.5000   2.0000  20.0000 Du        
   1071 ****       -12.5000   2.0000  20.2500 Du        
   1072 ****       -12.5000   2.2500   5.5000 Du        
   1073 ****       -12.5000   2.2500   5.7500 Du        
   1074 ****       -12.5000   2.2500  18.7500 Du        
   1075 ****       -12.5000   2.2500  19.0000 Du        
   1076 ****       -12.5000   2.2500  19.2500 Du        
   1077 ****       -12.5000   2.2500  19.5000 Du        
   1078 ****       -12.5000   2.2500  19.7500 Du        
   1079 ****       -12.5000   2.2500  20.0000 Du        
   1080 ****       -12.5000   2.2500  20.2500 Du        
   1081 ****       -12.5000   2.5000  18.5000 Du        
   1082 ****       -12.5000   2.5000  18.7500 Du        
   1083 ****       -12.5000   2.5000  19.0000 Du        
   1084 ****       -12.5000   2.5000  19.2500 Du        
   1085 ****       -12.5000   2.5000  19.5000 Du        
   1086 ****       -12.5000   2.7500   6.0000 Du        
   1087 ****       -12.5000   2.7500  17.0000 Du        
   1088 ****       -12.5000   2.7500  17.2500 Du        
   1089 ****       -12.5000   2.7500  17.7500 Du        
   1090 ****       -12.5000   2.7500  18.0000 Du        
   1091 ****       -12.5000   2.7500  18.2500 Du        
   1092 ****       -12.5000   2.7500  18.5000 Du        
   1093 ****       -12.5000   2.7500  18.7500 Du        
   1094 ****       -12.5000   2.7500  19.0000 Du        
   1095 ****       -12.5000   2.7500  19.2500 Du        
   1096 ****       -12.5000   3.0000   6.0000 Du        
   1097 ****       -12.5000   3.0000  16.7500 Du        
   1098 ****       -12.5000   3.0000  17.0000 Du        
   1099 ****       -12.5000   3.0000  17.2500 Du        
   1100 ****       -12.5000   3.0000  17.5000 Du        
   1101 ****       -12.5000   3.0000  17.7500 Du        
   1102 ****       -12.5000   3.0000  18.0000 Du        
   1103 ****       -12.5000   3.0000  18.2500 Du        
   1104 ****       -12.5000   3.0000  18.5000 Du        
   1105 ****       -12.5000   3.0000  18.7500 Du        
   1106 ****       -12.5000   3.0000  19.0000 Du        
   1107 ****       -12.5000   3.0000  19.2500 Du        
   1108 ****       -12.5000   3.2500  16.5000 Du        
   1109 ****       -12.5000   3.2500  16.7500 Du        
   1110 ****       -12.5000   3.2500  17.0000 Du        
   1111 ****       -12.5000   3.2500  17.2500 Du        
   1112 ****       -12.5000   3.2500  17.5000 Du        
   1113 ****       -12.5000   3.2500  17.7500 Du        
   1114 ****       -12.5000   3.2500  18.0000 Du        
   1115 ****       -12.5000   3.2500  18.2500 Du        
   1116 ****       -12.5000   3.2500  18.5000 Du        
   1117 ****       -12.5000   3.2500  18.7500 Du        
   1118 ****       -12.5000   3.5000  16.7500 Du        
   1119 ****       -12.5000   3.5000  17.0000 Du        
   1120 ****       -12.5000   3.5000  17.2500 Du        
   1121 ****       -12.5000   3.5000  17.5000 Du        
   1122 ****       -12.5000   3.5000  17.7500 Du        
   1123 ****       -12.5000   3.5000  18.0000 Du        
   1124 ****       -12.5000   3.5000  18.2500 Du        
   1125 ****       -12.5000   3.7500  16.5000 Du        
   1126 ****       -12.5000   3.7500  16.7500 Du        
   1127 ****       -12.5000   3.7500  17.0000 Du        
   1128 ****       -12.5000   3.7500  17.2500 Du        
   1129 ****       -12.5000   3.7500  17.5000 Du        
   1130 ****       -12.5000   3.7500  17.7500 Du        
   1131 ****       -12.5000   3.7500  18.0000 Du        
   1132 ****       -12.5000   4.0000  16.2500 Du        
   1133 ****       -12.5000   4.0000  16.5000 Du        
   1134 ****       -12.5000   4.0000  16.7500 Du        
   1135 ****       -12.5000   4.0000  17.0000 Du        
   1136 ****       -12.5000   4.0000  17.2500 Du        
   1137 ****       -12.5000   4.0000  17.5000 Du        
   1138 ****       -12.5000   4.0000  17.7500 Du        
   1139 ****       -12.5000   4.0000  18.0000 Du        
   1140 ****       -12.5000   4.2500  16.2500 Du        
   1141 ****       -12.5000   4.2500  16.5000 Du        
   1142 ****       -12.5000   4.2500  16.7500 Du        
   1143 ****       -12.5000   4.2500  17.0000 Du        
   1144 ****       -12.5000   4.2500  17.2500 Du        
   1145 ****       -12.5000   4.2500  17.5000 Du        
   1146 ****       -12.5000   4.2500  17.7500 Du        
   1147 ****       -12.5000   4.5000   7.5000 Du        
   1148 ****       -12.5000   4.5000   7.7500 Du        
   1149 ****       -12.5000   4.5000  16.0000 Du        
   1150 ****       -12.5000   4.5000  16.2500 Du        
   1151 ****       -12.5000   4.5000  16.5000 Du        
   1152 ****       -12.5000   4.5000  16.7500 Du        
   1153 ****       -12.5000   4.5000  17.0000 Du        
   1154 ****       -12.5000   4.5000  17.2500 Du        
   1155 ****       -12.5000   4.7500   7.5000 Du        
   1156 ****       -12.5000   4.7500   7.7500 Du        
   1157 ****       -12.5000   4.7500   8.0000 Du        
   1158 ****       -12.5000   4.7500   8.2500 Du        
   1159 ****       -12.5000   4.7500   8.5000 Du        
   1160 ****       -12.5000   4.7500  16.0000 Du        
   1161 ****       -12.5000   4.7500  16.2500 Du        
   1162 ****       -12.5000   4.7500  16.5000 Du        
   1163 ****       -12.5000   4.7500  16.7500 Du        
   1164 ****       -12.5000   4.7500  17.0000 Du        
   1165 ****       -12.5000   4.7500  17.2500 Du        
   1166 ****       -12.5000   5.0000   7.5000 Du        
   1167 ****       -12.5000   5.0000   7.7500 Du        
   1168 ****       -12.5000   5.0000   8.0000 Du        
   1169 ****       -12.5000   5.0000   8.2500 Du        
   1170 ****       -12.5000   5.0000   8.5000 Du        
   1171 ****       -12.5000   5.0000   8.7500 Du        
   1172 ****       -12.5000   5.0000   9.0000 Du        
   1173 ****       -12.5000   5.0000  15.7500 Du        
   1174 ****       -12.5000   5.0000  16.0000 Du        
   1175 ****       -12.5000   5.0000  16.2500 Du        
   1176 ****       -12.5000   5.0000  16.5000 Du        
   1177 ****       -12.5000   5.0000  16.7500 Du        
   1178 ****       -12.5000   5.0000  17.0000 Du        
   1179 ****       -12.5000   5.0000  17.2500 Du        
   1180 ****       -12.5000   5.2500   7.7500 Du        
   1181 ****       -12.5000   5.2500   8.0000 Du        
   1182 ****       -12.5000   5.2500   8.2500 Du        
   1183 ****       -12.5000   5.2500   8.5000 Du        
   1184 ****       -12.5000   5.2500   8.7500 Du        
   1185 ****       -12.5000   5.2500   9.0000 Du        
   1186 ****       -12.5000   5.2500   9.2500 Du        
   1187 ****       -12.5000   5.2500  15.2500 Du        
   1188 ****       -12.5000   5.2500  15.5000 Du        
   1189 ****       -12.5000   5.2500  15.7500 Du        
   1190 ****       -12.5000   5.2500  16.0000 Du        
   1191 ****       -12.5000   5.2500  16.2500 Du        
   1192 ****       -12.5000   5.2500  16.5000 Du        
   1193 ****       -12.5000   5.2500  16.7500 Du        
   1194 ****       -12.5000   5.2500  17.0000 Du        
   1195 ****       -12.5000   5.2500  17.2500 Du        
   1196 ****       -12.5000   5.5000   8.0000 Du        
   1197 ****       -12.5000   5.5000   8.2500 Du        
   1198 ****       -12.5000   5.5000   8.5000 Du        
   1199 ****       -12.5000   5.5000   8.7500 Du        
   1200 ****       -12.5000   5.5000   9.0000 Du        
   1201 ****       -12.5000   5.5000   9.2500 Du        
   1202 ****       -12.5000   5.5000   9.5000 Du        
   1203 ****       -12.5000   5.5000   9.7500 Du        
   1204 ****       -12.5000   5.5000  15.2500 Du        
   1205 ****       -12.5000   5.5000  15.5000 Du        
   1206 ****       -12.5000   5.5000  15.7500 Du        
   1207 ****       -12.5000   5.5000  16.0000 Du        
   1208 ****       -12.5000   5.5000  16.2500 Du        
   1209 ****       -12.5000   5.5000  16.5000 Du        
   1210 ****       -12.5000   5.5000  16.7500 Du        
   1211 ****       -12.5000   5.5000  17.0000 Du        
   1212 ****       -12.5000   5.5000  17.2500 Du        
   1213 ****       -12.5000   5.7500   8.0000 Du        
   1214 ****       -12.5000   5.7500   8.2500 Du        
   1215 ****       -12.5000   5.7500   8.5000 Du        
   1216 ****       -12.5000   5.7500   8.7500 Du        
   1217 ****       -12.5000   5.7500   9.0000 Du        
   1218 ****       -12.5000   5.7500   9.2500 Du        
   1219 ****       -12.5000   5.7500   9.5000 Du        
   1220 ****       -12.5000   5.7500   9.7500 Du        
   1221 ****       -12.5000   5.7500  10.0000 Du        
   1222 ****       -12.5000   5.7500  10.2500 Du        
   1223 ****       -12.5000   5.7500  15.0000 Du        
   1224 ****       -12.5000   5.7500  15.2500 Du        
   1225 ****       -12.5000   5.7500  15.5000 Du        
   1226 ****       -12.5000   5.7500  15.7500 Du        
   1227 ****       -12.5000   5.7500  16.0000 Du        
   1228 ****       -12.5000   5.7500  16.2500 Du        
   1229 ****       -12.5000   5.7500  16.5000 Du        
   1230 ****       -12.5000   5.7500  16.7500 Du        
   1231 ****       -12.5000   5.7500  17.0000 Du        
   1232 ****       -12.5000   5.7500  17.2500 Du        
   1233 ****       -12.5000   6.0000   8.2500 Du        
   1234 ****       -12.5000   6.0000   8.5000 Du        
   1235 ****       -12.5000   6.0000   8.7500 Du        
   1236 ****       -12.5000   6.0000   9.0000 Du        
   1237 ****       -12.5000   6.0000   9.2500 Du        
   1238 ****       -12.5000   6.0000   9.5000 Du        
   1239 ****       -12.5000   6.0000   9.7500 Du        
   1240 ****       -12.5000   6.0000  10.0000 Du        
   1241 ****       -12.5000   6.0000  10.2500 Du        
   1242 ****       -12.5000   6.0000  10.5000 Du        
   1243 ****       -12.5000   6.0000  14.7500 Du        
   1244 ****       -12.5000   6.0000  15.0000 Du        
   1245 ****       -12.5000   6.0000  15.2500 Du        
   1246 ****       -12.5000   6.0000  15.5000 Du        
   1247 ****       -12.5000   6.0000  15.7500 Du        
   1248 ****       -12.5000   6.0000  16.0000 Du        
   1249 ****       -12.5000   6.0000  16.2500 Du        
   1250 ****       -12.5000   6.0000  16.5000 Du        
   1251 ****       -12.5000   6.0000  16.7500 Du        
   1252 ****       -12.5000   6.0000  17.0000 Du        
   1253 ****       -12.5000   6.0000  17.2500 Du        
   1254 ****       -12.5000   6.0000  17.5000 Du        
   1255 ****       -12.5000   6.2500   8.5000 Du        
   1256 ****       -12.5000   6.2500   8.7500 Du        
   1257 ****       -12.5000   6.2500   9.0000 Du        
   1258 ****       -12.5000   6.2500   9.2500 Du        
   1259 ****       -12.5000   6.2500   9.5000 Du        
   1260 ****       -12.5000   6.2500   9.7500 Du        
   1261 ****       -12.5000   6.2500  10.0000 Du        
   1262 ****       -12.5000   6.2500  10.2500 Du        
   1263 ****       -12.5000   6.2500  10.5000 Du        
   1264 ****       -12.5000   6.2500  14.5000 Du        
   1265 ****       -12.5000   6.2500  14.7500 Du        
   1266 ****       -12.5000   6.2500  15.0000 Du        
   1267 ****       -12.5000   6.2500  15.2500 Du        
   1268 ****       -12.5000   6.2500  15.5000 Du        
   1269 ****       -12.5000   6.2500  15.7500 Du        
   1270 ****       -12.5000   6.2500  16.0000 Du        
   1271 ****       -12.5000   6.2500  16.2500 Du        
   1272 ****       -12.5000   6.2500  16.5000 Du        
   1273 ****       -12.5000   6.2500  16.7500 Du        
   1274 ****       -12.5000   6.2500  17.0000 Du        
   1275 ****       -12.5000   6.2500  17.2500 Du        
   1276 ****       -12.5000   6.2500  17.5000 Du        
   1277 ****       -12.5000   6.5000   9.2500 Du        
   1278 ****       -12.5000   6.5000   9.5000 Du        
   1279 ****       -12.5000   6.5000   9.7500 Du        
   1280 ****       -12.5000   6.5000  10.0000 Du        
   1281 ****       -12.5000   6.5000  10.2500 Du        
   1282 ****       -12.5000   6.5000  14.5000 Du        
   1283 ****       -12.5000   6.5000  14.7500 Du        
   1284 ****       -12.5000   6.5000  15.0000 Du        
   1285 ****       -12.5000   6.5000  15.2500 Du        
   1286 ****       -12.5000   6.5000  15.5000 Du        
   1287 ****       -12.5000   6.5000  15.7500 Du        
   1288 ****       -12.5000   6.5000  16.0000 Du        
   1289 ****       -12.5000   6.5000  16.2500 Du        
   1290 ****       -12.5000   6.5000  16.5000 Du        
   1291 ****       -12.5000   6.5000  16.7500 Du        
   1292 ****       -12.5000   6.5000  17.0000 Du        
   1293 ****       -12.5000   6.5000  17.2500 Du        
   1294 ****       -12.5000   6.7500   9.5000 Du        
   1295 ****       -12.5000   6.7500   9.7500 Du        
   1296 ****       -12.5000   6.7500  10.0000 Du        
   1297 ****       -12.5000   6.7500  10.2500 Du        
   1298 ****       -12.5000   6.7500  14.5000 Du        
   1299 ****       -12.5000   6.7500  14.7500 Du        
   1300 ****       -12.5000   6.7500  15.0000 Du        
   1301 ****       -12.5000   6.7500  15.2500 Du        
   1302 ****       -12.5000   6.7500  15.5000 Du        
   1303 ****       -12.5000   6.7500  15.7500 Du        
   1304 ****       -12.5000   6.7500  16.0000 Du        
   1305 ****       -12.5000   6.7500  16.2500 Du        
   1306 ****       -12.5000   6.7500  16.5000 Du        
   1307 ****       -12.5000   7.0000   9.5000 Du        
   1308 ****       -12.5000   7.0000   9.7500 Du        
   1309 ****       -12.5000   7.0000  10.0000 Du        
   1310 ****       -12.5000   7.0000  14.5000 Du        
   1311 ****       -12.5000   7.0000  14.7500 Du        
   1312 ****       -12.5000   7.0000  15.0000 Du        
   1313 ****       -12.5000   7.0000  15.2500 Du        
   1314 ****       -12.5000   7.0000  15.5000 Du        
   1315 ****       -12.5000   7.0000  15.7500 Du        
   1316 ****       -12.5000   7.0000  16.0000 Du        
   1317 ****       -12.5000   7.2500  14.7500 Du        
   1318 ****       -12.5000   7.2500  15.0000 Du        
   1319 ****       -12.5000   7.2500  15.2500 Du        
   1320 ****       -12.5000   7.2500  15.5000 Du        
   1321 ****       -12.5000   7.5000  20.7500 Du        
   1322 ****       -12.5000   7.5000  21.0000 Du        
   1323 ****       -12.5000   7.5000  21.2500 Du        
   1324 ****       -12.5000   7.5000  21.5000 Du        
   1325 ****       -12.5000   7.7500  20.7500 Du        
   1326 ****       -12.5000   7.7500  21.0000 Du        
   1327 ****       -12.5000   7.7500  21.2500 Du        
   1328 ****       -12.5000   7.7500  21.5000 Du        
   1329 ****       -12.5000   7.7500  21.7500 Du        
   1330 ****       -12.5000   8.0000  21.0000 Du        
   1331 ****       -12.5000   8.0000  21.2500 Du        
   1332 ****       -12.5000   8.0000  21.5000 Du        
   1333 ****       -12.5000   8.0000  21.7500 Du        
   1334 ****       -12.5000   8.2500  21.2500 Du        
   1335 ****       -12.5000   8.2500  21.5000 Du        
   1336 ****       -12.5000   8.2500  21.7500 Du        
   1337 ****       -12.5000   8.2500  22.0000 Du        
   1338 ****       -12.5000   8.5000  21.5000 Du        
   1339 ****       -12.5000   8.5000  21.7500 Du        
   1340 ****       -12.5000   8.5000  22.0000 Du        
   1341 ****       -12.5000   8.5000  22.2500 Du        
   1342 ****       -12.5000   8.7500  21.5000 Du        
   1343 ****       -12.5000   8.7500  21.7500 Du        
   1344 ****       -12.5000   8.7500  22.0000 Du        
   1345 ****       -12.5000   8.7500  22.2500 Du        
   1346 ****       -12.5000   9.0000  21.7500 Du        
   1347 ****       -12.5000   9.0000  22.0000 Du        
   1348 ****       -12.5000  10.2500  13.0000 Du        
   1349 ****       -12.5000  10.2500  13.2500 Du        
   1350 ****       -12.5000  10.2500  13.5000 Du        
   1351 ****       -12.5000  10.5000  12.7500 Du        
   1352 ****       -12.5000  10.5000  13.0000 Du        
   1353 ****       -12.5000  10.5000  13.2500 Du        
   1354 ****       -12.5000  10.5000  13.5000 Du        
   1355 ****       -12.5000  10.7500  12.5000 Du        
   1356 ****       -12.5000  10.7500  12.7500 Du        
   1357 ****       -12.5000  10.7500  13.0000 Du        
   1358 ****       -12.5000  10.7500  13.2500 Du        
   1359 ****       -12.5000  10.7500  13.5000 Du        
   1360 ****       -12.5000  11.0000  12.2500 Du        
   1361 ****       -12.5000  11.0000  12.5000 Du        
   1362 ****       -12.5000  11.0000  12.7500 Du        
   1363 ****       -12.5000  11.0000  13.0000 Du        
   1364 ****       -12.5000  11.0000  13.2500 Du        
   1365 ****       -12.5000  11.0000  13.5000 Du        
   1366 ****       -12.5000  11.0000  13.7500 Du        
   1367 ****       -12.5000  11.2500  12.2500 Du        
   1368 ****       -12.5000  11.2500  12.5000 Du        
   1369 ****       -12.5000  11.2500  12.7500 Du        
   1370 ****       -12.5000  11.2500  13.0000 Du        
   1371 ****       -12.5000  11.2500  13.2500 Du        
   1372 ****       -12.5000  11.2500  13.5000 Du        
   1373 ****       -12.5000  11.2500  13.7500 Du        
   1374 ****       -12.5000  11.5000  12.2500 Du        
   1375 ****       -12.5000  11.5000  12.5000 Du        
   1376 ****       -12.5000  11.5000  12.7500 Du        
   1377 ****       -12.5000  11.5000  13.0000 Du        
   1378 ****       -12.5000  11.5000  13.2500 Du        
   1379 ****       -12.5000  11.5000  13.5000 Du        
   1380 ****       -12.5000  11.5000  13.7500 Du        
   1381 ****       -12.5000  11.5000  14.0000 Du        
   1382 ****       -12.5000  11.7500  12.0000 Du        
   1383 ****       -12.5000  11.7500  12.2500 Du        
   1384 ****       -12.5000  11.7500  12.5000 Du        
   1385 ****       -12.5000  11.7500  12.7500 Du        
   1386 ****       -12.5000  11.7500  13.0000 Du        
   1387 ****       -12.5000  11.7500  13.2500 Du        
   1388 ****       -12.5000  11.7500  13.5000 Du        
   1389 ****       -12.5000  11.7500  13.7500 Du        
   1390 ****       -12.5000  11.7500  14.0000 Du        
   1391 ****       -12.5000  12.0000  11.7500 Du        
   1392 ****       -12.5000  12.0000  12.0000 Du        
   1393 ****       -12.5000  12.0000  12.2500 Du        
   1394 ****       -12.5000  12.0000  12.5000 Du        
   1395 ****       -12.5000  12.0000  12.7500 Du        
   1396 ****       -12.5000  12.0000  13.0000 Du        
   1397 ****       -12.5000  12.0000  13.2500 Du        
   1398 ****       -12.5000  12.0000  13.5000 Du        
   1399 ****       -12.5000  12.0000  13.7500 Du        
   1400 ****       -12.5000  12.0000  14.0000 Du        
   1401 ****       -12.5000  12.0000  14.2500 Du        
   1402 ****       -12.5000  12.2500  11.7500 Du        
   1403 ****       -12.5000  12.2500  12.0000 Du        
   1404 ****       -12.5000  12.2500  12.2500 Du        
   1405 ****       -12.5000  12.2500  12.5000 Du        
   1406 ****       -12.5000  12.2500  12.7500 Du        
   1407 ****       -12.5000  12.2500  13.0000 Du        
   1408 ****       -12.5000  12.2500  13.2500 Du        
   1409 ****       -12.5000  12.2500  13.5000 Du        
   1410 ****       -12.5000  12.2500  13.7500 Du        
   1411 ****       -12.5000  12.2500  14.0000 Du        
   1412 ****       -12.5000  12.2500  14.2500 Du        
   1413 ****       -12.5000  12.2500  28.0000 Du        
   1414 ****       -12.5000  12.2500  28.2500 Du        
   1415 ****       -12.5000  12.5000  11.7500 Du        
   1416 ****       -12.5000  12.5000  12.0000 Du        
   1417 ****       -12.5000  12.5000  12.2500 Du        
   1418 ****       -12.5000  12.5000  12.5000 Du        
   1419 ****       -12.5000  12.5000  12.7500 Du        
   1420 ****       -12.5000  12.5000  13.0000 Du        
   1421 ****       -12.5000  12.5000  13.2500 Du        
   1422 ****       -12.5000  12.5000  13.5000 Du        
   1423 ****       -12.5000  12.5000  13.7500 Du        
   1424 ****       -12.5000  12.5000  14.0000 Du        
   1425 ****       -12.5000  12.5000  14.2500 Du        
   1426 ****       -12.5000  12.5000  25.0000 Du        
   1427 ****       -12.5000  12.5000  25.2500 Du        
   1428 ****       -12.5000  12.5000  25.5000 Du        
   1429 ****       -12.5000  12.5000  25.7500 Du        
   1430 ****       -12.5000  12.5000  26.0000 Du        
   1431 ****       -12.5000  12.5000  26.2500 Du        
   1432 ****       -12.5000  12.5000  26.5000 Du        
   1433 ****       -12.5000  12.5000  26.7500 Du        
   1434 ****       -12.5000  12.5000  27.0000 Du        
   1435 ****       -12.5000  12.5000  27.2500 Du        
   1436 ****       -12.5000  12.5000  27.5000 Du        
   1437 ****       -12.5000  12.5000  27.7500 Du        
   1438 ****       -12.5000  12.5000  28.0000 Du        
   1439 ****       -12.5000  12.5000  28.2500 Du        
   1440 ****       -12.5000  12.7500  11.7500 Du        
   1441 ****       -12.5000  12.7500  12.0000 Du        
   1442 ****       -12.5000  12.7500  12.2500 Du        
   1443 ****       -12.5000  12.7500  12.5000 Du        
   1444 ****       -12.5000  12.7500  12.7500 Du        
   1445 ****       -12.5000  12.7500  13.0000 Du        
   1446 ****       -12.5000  12.7500  13.2500 Du        
   1447 ****       -12.5000  12.7500  13.5000 Du        
   1448 ****       -12.5000  12.7500  13.7500 Du        
   1449 ****       -12.5000  12.7500  14.0000 Du        
   1450 ****       -12.5000  12.7500  14.2500 Du        
   1451 ****       -12.5000  12.7500  24.7500 Du        
   1452 ****       -12.5000  12.7500  25.0000 Du        
   1453 ****       -12.5000  12.7500  25.2500 Du        
   1454 ****       -12.5000  12.7500  25.5000 Du        
   1455 ****       -12.5000  12.7500  25.7500 Du        
   1456 ****       -12.5000  12.7500  26.0000 Du        
   1457 ****       -12.5000  12.7500  26.2500 Du        
   1458 ****       -12.5000  12.7500  26.5000 Du        
   1459 ****       -12.5000  12.7500  26.7500 Du        
   1460 ****       -12.5000  12.7500  27.0000 Du        
   1461 ****       -12.5000  12.7500  27.2500 Du        
   1462 ****       -12.5000  12.7500  27.5000 Du        
   1463 ****       -12.5000  12.7500  27.7500 Du        
   1464 ****       -12.5000  12.7500  28.0000 Du        
   1465 ****       -12.5000  12.7500  28.2500 Du        
   1466 ****       -12.5000  13.0000  12.5000 Du        
   1467 ****       -12.5000  13.0000  12.7500 Du        
   1468 ****       -12.5000  13.0000  13.0000 Du        
   1469 ****       -12.5000  13.0000  13.2500 Du        
   1470 ****       -12.5000  13.0000  13.5000 Du        
   1471 ****       -12.5000  13.0000  13.7500 Du        
   1472 ****       -12.5000  13.0000  14.0000 Du        
   1473 ****       -12.5000  13.0000  24.5000 Du        
   1474 ****       -12.5000  13.0000  24.7500 Du        
   1475 ****       -12.5000  13.0000  25.0000 Du        
   1476 ****       -12.5000  13.0000  25.2500 Du        
   1477 ****       -12.5000  13.0000  25.5000 Du        
   1478 ****       -12.5000  13.0000  25.7500 Du        
   1479 ****       -12.5000  13.0000  26.0000 Du        
   1480 ****       -12.5000  13.0000  26.2500 Du        
   1481 ****       -12.5000  13.0000  26.5000 Du        
   1482 ****       -12.5000  13.0000  26.7500 Du        
   1483 ****       -12.5000  13.0000  27.0000 Du        
   1484 ****       -12.5000  13.0000  27.2500 Du        
   1485 ****       -12.5000  13.0000  27.5000 Du        
   1486 ****       -12.5000  13.0000  27.7500 Du        
   1487 ****       -12.5000  13.0000  28.0000 Du        
   1488 ****       -12.5000  13.0000  28.2500 Du        
   1489 ****       -12.5000  13.2500  13.0000 Du        
   1490 ****       -12.5000  13.2500  13.2500 Du        
   1491 ****       -12.5000  13.2500  13.5000 Du        
   1492 ****       -12.5000  13.2500  24.5000 Du        
   1493 ****       -12.5000  13.2500  24.7500 Du        
   1494 ****       -12.5000  13.2500  25.0000 Du        
   1495 ****       -12.5000  13.2500  25.2500 Du        
   1496 ****       -12.5000  13.2500  25.5000 Du        
   1497 ****       -12.5000  13.2500  25.7500 Du        
   1498 ****       -12.5000  13.2500  26.0000 Du        
   1499 ****       -12.5000  13.2500  26.2500 Du        
   1500 ****       -12.5000  13.2500  26.5000 Du        
   1501 ****       -12.5000  13.2500  26.7500 Du        
   1502 ****       -12.5000  13.2500  27.0000 Du        
   1503 ****       -12.5000  13.2500  27.2500 Du        
   1504 ****       -12.5000  13.2500  27.5000 Du        
   1505 ****       -12.5000  13.2500  27.7500 Du        
   1506 ****       -12.5000  13.2500  28.0000 Du        
   1507 ****       -12.5000  13.5000  24.5000 Du        
   1508 ****       -12.5000  13.5000  24.7500 Du        
   1509 ****       -12.5000  13.5000  25.0000 Du        
   1510 ****       -12.5000  13.5000  25.2500 Du        
   1511 ****       -12.5000  13.5000  25.5000 Du        
   1512 ****       -12.5000  13.5000  25.7500 Du        
   1513 ****       -12.5000  13.5000  26.0000 Du        
   1514 ****       -12.5000  13.5000  26.2500 Du        
   1515 ****       -12.5000  13.5000  26.5000 Du        
   1516 ****       -12.5000  13.5000  26.7500 Du        
   1517 ****       -12.5000  13.5000  27.0000 Du        
   1518 ****       -12.5000  13.5000  27.2500 Du        
   1519 ****       -12.5000  13.5000  27.5000 Du        
   1520 ****       -12.5000  13.5000  27.7500 Du        
   1521 ****       -12.5000  13.5000  28.0000 Du        
   1522 ****       -12.2500  -0.5000   4.0000 Du        
   1523 ****       -12.2500  -0.2500   2.0000 Du        
   1524 ****       -12.2500  -0.2500   2.2500 Du        
   1525 ****       -12.2500  -0.2500   2.5000 Du        
   1526 ****       -12.2500  -0.2500   2.7500 Du        
   1527 ****       -12.2500  -0.2500   3.0000 Du        
   1528 ****       -12.2500  -0.2500   3.2500 Du        
   1529 ****       -12.2500  -0.2500   3.5000 Du        
   1530 ****       -12.2500  -0.2500   3.7500 Du        
   1531 ****       -12.2500  -0.2500   4.0000 Du        
   1532 ****       -12.2500  -0.2500   4.2500 Du        
   1533 ****       -12.2500  -0.2500   4.5000 Du        
   1534 ****       -12.2500   0.0000   2.2500 Du        
   1535 ****       -12.2500   0.0000   2.5000 Du        
   1536 ****       -12.2500   0.0000   2.7500 Du        
   1537 ****       -12.2500   0.0000   3.0000 Du        
   1538 ****       -12.2500   0.0000   3.2500 Du        
   1539 ****       -12.2500   0.0000   3.5000 Du        
   1540 ****       -12.2500   0.0000   3.7500 Du        
   1541 ****       -12.2500   0.0000   4.0000 Du        
   1542 ****       -12.2500   0.0000   4.2500 Du        
   1543 ****       -12.2500   0.0000   4.5000 Du        
   1544 ****       -12.2500   0.2500   2.7500 Du        
   1545 ****       -12.2500   0.2500   3.0000 Du        
   1546 ****       -12.2500   0.2500   3.2500 Du        
   1547 ****       -12.2500   0.2500   3.5000 Du        
   1548 ****       -12.2500   0.2500   3.7500 Du        
   1549 ****       -12.2500   0.2500   4.0000 Du        
   1550 ****       -12.2500   0.2500   4.2500 Du        
   1551 ****       -12.2500   0.2500   4.5000 Du        
   1552 ****       -12.2500   0.5000   3.7500 Du        
   1553 ****       -12.2500   0.5000   4.0000 Du        
   1554 ****       -12.2500   0.7500   4.0000 Du        
   1555 ****       -12.2500   0.7500   4.5000 Du        
   1556 ****       -12.2500   1.0000   4.2500 Du        
   1557 ****       -12.2500   1.0000   4.5000 Du        
   1558 ****       -12.2500   1.2500   4.5000 Du        
   1559 ****       -12.2500   1.2500   4.7500 Du        
   1560 ****       -12.2500   1.2500   5.0000 Du        
   1561 ****       -12.2500   1.2500  20.2500 Du        
   1562 ****       -12.2500   1.2500  20.5000 Du        
   1563 ****       -12.2500   1.2500  20.7500 Du        
   1564 ****       -12.2500   1.5000  19.5000 Du        
   1565 ****       -12.2500   1.5000  19.7500 Du        
   1566 ****       -12.2500   1.5000  20.0000 Du        
   1567 ****       -12.2500   1.5000  20.2500 Du        
   1568 ****       -12.2500   1.5000  20.5000 Du        
   1569 ****       -12.2500   1.7500   4.7500 Du        
   1570 ****       -12.2500   1.7500   5.0000 Du        
   1571 ****       -12.2500   1.7500   5.2500 Du        
   1572 ****       -12.2500   1.7500   5.5000 Du        
   1573 ****       -12.2500   1.7500  18.7500 Du        
   1574 ****       -12.2500   1.7500  19.0000 Du        
   1575 ****       -12.2500   1.7500  19.2500 Du        
   1576 ****       -12.2500   1.7500  19.5000 Du        
   1577 ****       -12.2500   1.7500  19.7500 Du        
   1578 ****       -12.2500   1.7500  20.0000 Du        
   1579 ****       -12.2500   1.7500  20.2500 Du        
   1580 ****       -12.2500   1.7500  20.5000 Du        
   1581 ****       -12.2500   2.0000   5.0000 Du        
   1582 ****       -12.2500   2.0000   5.2500 Du        
   1583 ****       -12.2500   2.0000   5.5000 Du        
   1584 ****       -12.2500   2.0000   5.7500 Du        
   1585 ****       -12.2500   2.0000  18.2500 Du        
   1586 ****       -12.2500   2.0000  18.5000 Du        
   1587 ****       -12.2500   2.0000  18.7500 Du        
   1588 ****       -12.2500   2.0000  19.0000 Du        
   1589 ****       -12.2500   2.0000  19.2500 Du        
   1590 ****       -12.2500   2.0000  19.5000 Du        
   1591 ****       -12.2500   2.0000  19.7500 Du        
   1592 ****       -12.2500   2.0000  20.0000 Du        
   1593 ****       -12.2500   2.0000  20.2500 Du        
   1594 ****       -12.2500   2.2500   5.2500 Du        
   1595 ****       -12.2500   2.2500   5.5000 Du        
   1596 ****       -12.2500   2.2500   5.7500 Du        
   1597 ****       -12.2500   2.2500  16.7500 Du        
   1598 ****       -12.2500   2.2500  17.0000 Du        
   1599 ****       -12.2500   2.2500  17.2500 Du        
   1600 ****       -12.2500   2.2500  17.5000 Du        
   1601 ****       -12.2500   2.2500  17.7500 Du        
   1602 ****       -12.2500   2.2500  18.0000 Du        
   1603 ****       -12.2500   2.2500  18.2500 Du        
   1604 ****       -12.2500   2.2500  18.5000 Du        
   1605 ****       -12.2500   2.2500  18.7500 Du        
   1606 ****       -12.2500   2.2500  19.0000 Du        
   1607 ****       -12.2500   2.2500  19.2500 Du        
   1608 ****       -12.2500   2.2500  19.5000 Du        
   1609 ****       -12.2500   2.2500  19.7500 Du        
   1610 ****       -12.2500   2.2500  20.0000 Du        
   1611 ****       -12.2500   2.2500  20.2500 Du        
   1612 ****       -12.2500   2.5000  16.7500 Du        
   1613 ****       -12.2500   2.5000  17.0000 Du        
   1614 ****       -12.2500   2.5000  17.2500 Du        
   1615 ****       -12.2500   2.5000  17.5000 Du        
   1616 ****       -12.2500   2.5000  17.7500 Du        
   1617 ****       -12.2500   2.5000  18.0000 Du        
   1618 ****       -12.2500   2.5000  18.2500 Du        
   1619 ****       -12.2500   2.5000  18.5000 Du        
   1620 ****       -12.2500   2.5000  18.7500 Du        
   1621 ****       -12.2500   2.5000  19.0000 Du        
   1622 ****       -12.2500   2.5000  19.2500 Du        
   1623 ****       -12.2500   2.5000  19.5000 Du        
   1624 ****       -12.2500   2.5000  19.7500 Du        
   1625 ****       -12.2500   2.7500  16.7500 Du        
   1626 ****       -12.2500   2.7500  17.0000 Du        
   1627 ****       -12.2500   2.7500  17.2500 Du        
   1628 ****       -12.2500   2.7500  17.5000 Du        
   1629 ****       -12.2500   2.7500  17.7500 Du        
   1630 ****       -12.2500   2.7500  18.0000 Du        
   1631 ****       -12.2500   2.7500  18.2500 Du        
   1632 ****       -12.2500   2.7500  18.5000 Du        
   1633 ****       -12.2500   2.7500  18.7500 Du        
   1634 ****       -12.2500   2.7500  19.0000 Du        
   1635 ****       -12.2500   2.7500  19.2500 Du        
   1636 ****       -12.2500   2.7500  19.5000 Du        
   1637 ****       -12.2500   2.7500  19.7500 Du        
   1638 ****       -12.2500   3.0000  16.7500 Du        
   1639 ****       -12.2500   3.0000  17.0000 Du        
   1640 ****       -12.2500   3.0000  17.2500 Du        
   1641 ****       -12.2500   3.0000  17.5000 Du        
   1642 ****       -12.2500   3.0000  17.7500 Du        
   1643 ****       -12.2500   3.0000  18.0000 Du        
   1644 ****       -12.2500   3.0000  18.2500 Du        
   1645 ****       -12.2500   3.0000  18.5000 Du        
   1646 ****       -12.2500   3.0000  18.7500 Du        
   1647 ****       -12.2500   3.0000  19.0000 Du        
   1648 ****       -12.2500   3.0000  19.2500 Du        
   1649 ****       -12.2500   3.2500  16.7500 Du        
   1650 ****       -12.2500   3.2500  17.0000 Du        
   1651 ****       -12.2500   3.2500  17.2500 Du        
   1652 ****       -12.2500   3.2500  17.5000 Du        
   1653 ****       -12.2500   3.2500  17.7500 Du        
   1654 ****       -12.2500   3.2500  18.0000 Du        
   1655 ****       -12.2500   3.2500  18.2500 Du        
   1656 ****       -12.2500   3.5000  16.7500 Du        
   1657 ****       -12.2500   3.5000  17.0000 Du        
   1658 ****       -12.2500   3.5000  17.2500 Du        
   1659 ****       -12.2500   3.5000  17.5000 Du        
   1660 ****       -12.2500   3.5000  17.7500 Du        
   1661 ****       -12.2500   3.5000  18.0000 Du        
   1662 ****       -12.2500   3.7500  16.5000 Du        
   1663 ****       -12.2500   3.7500  16.7500 Du        
   1664 ****       -12.2500   3.7500  17.0000 Du        
   1665 ****       -12.2500   3.7500  17.2500 Du        
   1666 ****       -12.2500   3.7500  17.5000 Du        
   1667 ****       -12.2500   3.7500  17.7500 Du        
   1668 ****       -12.2500   4.0000  16.5000 Du        
   1669 ****       -12.2500   4.0000  16.7500 Du        
   1670 ****       -12.2500   4.0000  17.0000 Du        
   1671 ****       -12.2500   4.0000  17.2500 Du        
   1672 ****       -12.2500   4.0000  17.5000 Du        
   1673 ****       -12.2500   4.2500  16.2500 Du        
   1674 ****       -12.2500   4.2500  16.5000 Du        
   1675 ****       -12.2500   4.2500  16.7500 Du        
   1676 ****       -12.2500   4.2500  17.0000 Du        
   1677 ****       -12.2500   4.2500  17.2500 Du        
   1678 ****       -12.2500   4.5000  16.2500 Du        
   1679 ****       -12.2500   4.5000  16.5000 Du        
   1680 ****       -12.2500   4.5000  16.7500 Du        
   1681 ****       -12.2500   4.5000  17.0000 Du        
   1682 ****       -12.2500   4.5000  17.2500 Du        
   1683 ****       -12.2500   4.7500   7.5000 Du        
   1684 ****       -12.2500   4.7500   7.7500 Du        
   1685 ****       -12.2500   4.7500   8.0000 Du        
   1686 ****       -12.2500   4.7500   8.2500 Du        
   1687 ****       -12.2500   4.7500   8.5000 Du        
   1688 ****       -12.2500   4.7500  16.0000 Du        
   1689 ****       -12.2500   4.7500  16.2500 Du        
   1690 ****       -12.2500   4.7500  16.5000 Du        
   1691 ****       -12.2500   4.7500  16.7500 Du        
   1692 ****       -12.2500   4.7500  17.0000 Du        
   1693 ****       -12.2500   4.7500  17.2500 Du        
   1694 ****       -12.2500   5.0000   7.5000 Du        
   1695 ****       -12.2500   5.0000   7.7500 Du        
   1696 ****       -12.2500   5.0000   8.0000 Du        
   1697 ****       -12.2500   5.0000   8.2500 Du        
   1698 ****       -12.2500   5.0000   8.5000 Du        
   1699 ****       -12.2500   5.0000   8.7500 Du        
   1700 ****       -12.2500   5.0000   9.0000 Du        
   1701 ****       -12.2500   5.0000  15.7500 Du        
   1702 ****       -12.2500   5.0000  16.0000 Du        
   1703 ****       -12.2500   5.0000  16.2500 Du        
   1704 ****       -12.2500   5.0000  16.5000 Du        
   1705 ****       -12.2500   5.0000  16.7500 Du        
   1706 ****       -12.2500   5.0000  17.0000 Du        
   1707 ****       -12.2500   5.2500   7.7500 Du        
   1708 ****       -12.2500   5.2500   8.0000 Du        
   1709 ****       -12.2500   5.2500   8.2500 Du        
   1710 ****       -12.2500   5.2500   8.5000 Du        
   1711 ****       -12.2500   5.2500   8.7500 Du        
   1712 ****       -12.2500   5.2500   9.0000 Du        
   1713 ****       -12.2500   5.2500   9.2500 Du        
   1714 ****       -12.2500   5.2500   9.5000 Du        
   1715 ****       -12.2500   5.2500  15.5000 Du        
   1716 ****       -12.2500   5.2500  15.7500 Du        
   1717 ****       -12.2500   5.2500  16.0000 Du        
   1718 ****       -12.2500   5.2500  16.2500 Du        
   1719 ****       -12.2500   5.2500  16.5000 Du        
   1720 ****       -12.2500   5.2500  16.7500 Du        
   1721 ****       -12.2500   5.2500  17.0000 Du        
   1722 ****       -12.2500   5.2500  17.2500 Du        
   1723 ****       -12.2500   5.5000   8.0000 Du        
   1724 ****       -12.2500   5.5000   8.2500 Du        
   1725 ****       -12.2500   5.5000   8.5000 Du        
   1726 ****       -12.2500   5.5000   8.7500 Du        
   1727 ****       -12.2500   5.5000   9.0000 Du        
   1728 ****       -12.2500   5.5000   9.2500 Du        
   1729 ****       -12.2500   5.5000   9.5000 Du        
   1730 ****       -12.2500   5.5000   9.7500 Du        
   1731 ****       -12.2500   5.5000  15.2500 Du        
   1732 ****       -12.2500   5.5000  15.5000 Du        
   1733 ****       -12.2500   5.5000  15.7500 Du        
   1734 ****       -12.2500   5.5000  16.0000 Du        
   1735 ****       -12.2500   5.5000  16.2500 Du        
   1736 ****       -12.2500   5.5000  16.5000 Du        
   1737 ****       -12.2500   5.5000  16.7500 Du        
   1738 ****       -12.2500   5.5000  17.0000 Du        
   1739 ****       -12.2500   5.5000  17.2500 Du        
   1740 ****       -12.2500   5.7500   8.0000 Du        
   1741 ****       -12.2500   5.7500   8.2500 Du        
   1742 ****       -12.2500   5.7500   8.5000 Du        
   1743 ****       -12.2500   5.7500   8.7500 Du        
   1744 ****       -12.2500   5.7500   9.0000 Du        
   1745 ****       -12.2500   5.7500   9.2500 Du        
   1746 ****       -12.2500   5.7500   9.5000 Du        
   1747 ****       -12.2500   5.7500   9.7500 Du        
   1748 ****       -12.2500   5.7500  10.0000 Du        
   1749 ****       -12.2500   5.7500  15.2500 Du        
   1750 ****       -12.2500   5.7500  15.5000 Du        
   1751 ****       -12.2500   5.7500  15.7500 Du        
   1752 ****       -12.2500   5.7500  16.0000 Du        
   1753 ****       -12.2500   5.7500  16.2500 Du        
   1754 ****       -12.2500   5.7500  16.5000 Du        
   1755 ****       -12.2500   5.7500  16.7500 Du        
   1756 ****       -12.2500   5.7500  17.0000 Du        
   1757 ****       -12.2500   5.7500  17.2500 Du        
   1758 ****       -12.2500   6.0000   8.2500 Du        
   1759 ****       -12.2500   6.0000   8.5000 Du        
   1760 ****       -12.2500   6.0000   8.7500 Du        
   1761 ****       -12.2500   6.0000   9.0000 Du        
   1762 ****       -12.2500   6.0000   9.2500 Du        
   1763 ****       -12.2500   6.0000   9.5000 Du        
   1764 ****       -12.2500   6.0000   9.7500 Du        
   1765 ****       -12.2500   6.0000  10.0000 Du        
   1766 ****       -12.2500   6.0000  10.2500 Du        
   1767 ****       -12.2500   6.0000  15.0000 Du        
   1768 ****       -12.2500   6.0000  15.2500 Du        
   1769 ****       -12.2500   6.0000  15.5000 Du        
   1770 ****       -12.2500   6.0000  15.7500 Du        
   1771 ****       -12.2500   6.0000  16.0000 Du        
   1772 ****       -12.2500   6.0000  16.2500 Du        
   1773 ****       -12.2500   6.0000  16.5000 Du        
   1774 ****       -12.2500   6.0000  16.7500 Du        
   1775 ****       -12.2500   6.0000  17.0000 Du        
   1776 ****       -12.2500   6.0000  17.2500 Du        
   1777 ****       -12.2500   6.2500   8.5000 Du        
   1778 ****       -12.2500   6.2500   8.7500 Du        
   1779 ****       -12.2500   6.2500   9.0000 Du        
   1780 ****       -12.2500   6.2500   9.2500 Du        
   1781 ****       -12.2500   6.2500   9.5000 Du        
   1782 ****       -12.2500   6.2500   9.7500 Du        
   1783 ****       -12.2500   6.2500  10.0000 Du        
   1784 ****       -12.2500   6.2500  15.0000 Du        
   1785 ****       -12.2500   6.2500  15.2500 Du        
   1786 ****       -12.2500   6.2500  15.5000 Du        
   1787 ****       -12.2500   6.2500  15.7500 Du        
   1788 ****       -12.2500   6.2500  16.0000 Du        
   1789 ****       -12.2500   6.2500  16.2500 Du        
   1790 ****       -12.2500   6.2500  16.5000 Du        
   1791 ****       -12.2500   6.2500  16.7500 Du        
   1792 ****       -12.2500   6.2500  17.0000 Du        
   1793 ****       -12.2500   6.2500  17.2500 Du        
   1794 ****       -12.2500   6.5000   9.2500 Du        
   1795 ****       -12.2500   6.5000   9.5000 Du        
   1796 ****       -12.2500   6.5000   9.7500 Du        
   1797 ****       -12.2500   6.5000  10.0000 Du        
   1798 ****       -12.2500   6.5000  15.0000 Du        
   1799 ****       -12.2500   6.5000  15.2500 Du        
   1800 ****       -12.2500   6.5000  15.5000 Du        
   1801 ****       -12.2500   6.5000  15.7500 Du        
   1802 ****       -12.2500   6.5000  16.0000 Du        
   1803 ****       -12.2500   6.5000  16.2500 Du        
   1804 ****       -12.2500   6.5000  16.5000 Du        
   1805 ****       -12.2500   6.5000  16.7500 Du        
   1806 ****       -12.2500   6.5000  17.0000 Du        
   1807 ****       -12.2500   6.7500   9.5000 Du        
   1808 ****       -12.2500   6.7500   9.7500 Du        
   1809 ****       -12.2500   6.7500  15.0000 Du        
   1810 ****       -12.2500   6.7500  15.2500 Du        
   1811 ****       -12.2500   6.7500  15.5000 Du        
   1812 ****       -12.2500   6.7500  15.7500 Du        
   1813 ****       -12.2500   6.7500  16.0000 Du        
   1814 ****       -12.2500   6.7500  16.2500 Du        
   1815 ****       -12.2500   6.7500  16.5000 Du        
   1816 ****       -12.2500   6.7500  16.7500 Du        
   1817 ****       -12.2500   7.0000   9.5000 Du        
   1818 ****       -12.2500   7.0000  15.0000 Du        
   1819 ****       -12.2500   7.0000  15.2500 Du        
   1820 ****       -12.2500   7.0000  15.5000 Du        
   1821 ****       -12.2500   7.0000  15.7500 Du        
   1822 ****       -12.2500   7.0000  16.0000 Du        
   1823 ****       -12.2500   7.0000  16.2500 Du        
   1824 ****       -12.2500   7.2500  15.2500 Du        
   1825 ****       -12.2500   7.2500  15.5000 Du        
   1826 ****       -12.2500   7.2500  20.7500 Du        
   1827 ****       -12.2500   7.2500  21.0000 Du        
   1828 ****       -12.2500   7.2500  21.2500 Du        
   1829 ****       -12.2500   7.2500  21.5000 Du        
   1830 ****       -12.2500   7.2500  21.7500 Du        
   1831 ****       -12.2500   7.5000  20.5000 Du        
   1832 ****       -12.2500   7.5000  20.7500 Du        
   1833 ****       -12.2500   7.5000  21.0000 Du        
   1834 ****       -12.2500   7.5000  21.2500 Du        
   1835 ****       -12.2500   7.5000  21.5000 Du        
   1836 ****       -12.2500   7.5000  21.7500 Du        
   1837 ****       -12.2500   7.5000  22.0000 Du        
   1838 ****       -12.2500   7.7500  20.7500 Du        
   1839 ****       -12.2500   7.7500  21.0000 Du        
   1840 ****       -12.2500   7.7500  21.2500 Du        
   1841 ****       -12.2500   7.7500  21.5000 Du        
   1842 ****       -12.2500   7.7500  21.7500 Du        
   1843 ****       -12.2500   7.7500  22.0000 Du        
   1844 ****       -12.2500   7.7500  22.2500 Du        
   1845 ****       -12.2500   8.0000  21.0000 Du        
   1846 ****       -12.2500   8.0000  21.2500 Du        
   1847 ****       -12.2500   8.0000  21.5000 Du        
   1848 ****       -12.2500   8.0000  21.7500 Du        
   1849 ****       -12.2500   8.0000  22.0000 Du        
   1850 ****       -12.2500   8.0000  22.2500 Du        
   1851 ****       -12.2500   8.2500  21.2500 Du        
   1852 ****       -12.2500   8.2500  21.5000 Du        
   1853 ****       -12.2500   8.2500  21.7500 Du        
   1854 ****       -12.2500   8.2500  22.0000 Du        
   1855 ****       -12.2500   8.2500  22.2500 Du        
   1856 ****       -12.2500   8.5000  21.2500 Du        
   1857 ****       -12.2500   8.5000  21.5000 Du        
   1858 ****       -12.2500   8.5000  21.7500 Du        
   1859 ****       -12.2500   8.5000  22.0000 Du        
   1860 ****       -12.2500   8.5000  22.2500 Du        
   1861 ****       -12.2500   8.7500  21.5000 Du        
   1862 ****       -12.2500   8.7500  21.7500 Du        
   1863 ****       -12.2500   8.7500  22.0000 Du        
   1864 ****       -12.2500   8.7500  22.2500 Du        
   1865 ****       -12.2500   9.0000  21.7500 Du        
   1866 ****       -12.2500  10.2500  13.5000 Du        
   1867 ****       -12.2500  10.5000  12.7500 Du        
   1868 ****       -12.2500  10.5000  13.0000 Du        
   1869 ****       -12.2500  10.5000  13.2500 Du        
   1870 ****       -12.2500  10.5000  13.5000 Du        
   1871 ****       -12.2500  10.5000  13.7500 Du        
   1872 ****       -12.2500  10.7500  12.5000 Du        
   1873 ****       -12.2500  10.7500  12.7500 Du        
   1874 ****       -12.2500  10.7500  13.0000 Du        
   1875 ****       -12.2500  10.7500  13.2500 Du        
   1876 ****       -12.2500  10.7500  13.5000 Du        
   1877 ****       -12.2500  10.7500  13.7500 Du        
   1878 ****       -12.2500  11.0000  12.0000 Du        
   1879 ****       -12.2500  11.0000  12.2500 Du        
   1880 ****       -12.2500  11.0000  12.5000 Du        
   1881 ****       -12.2500  11.0000  12.7500 Du        
   1882 ****       -12.2500  11.0000  13.0000 Du        
   1883 ****       -12.2500  11.0000  13.2500 Du        
   1884 ****       -12.2500  11.0000  13.5000 Du        
   1885 ****       -12.2500  11.0000  13.7500 Du        
   1886 ****       -12.2500  11.0000  14.0000 Du        
   1887 ****       -12.2500  11.2500  12.0000 Du        
   1888 ****       -12.2500  11.2500  12.2500 Du        
   1889 ****       -12.2500  11.2500  12.5000 Du        
   1890 ****       -12.2500  11.2500  12.7500 Du        
   1891 ****       -12.2500  11.2500  13.0000 Du        
   1892 ****       -12.2500  11.2500  13.2500 Du        
   1893 ****       -12.2500  11.2500  13.5000 Du        
   1894 ****       -12.2500  11.2500  13.7500 Du        
   1895 ****       -12.2500  11.2500  14.0000 Du        
   1896 ****       -12.2500  11.5000  12.0000 Du        
   1897 ****       -12.2500  11.5000  12.2500 Du        
   1898 ****       -12.2500  11.5000  12.5000 Du        
   1899 ****       -12.2500  11.5000  12.7500 Du        
   1900 ****       -12.2500  11.5000  13.0000 Du        
   1901 ****       -12.2500  11.5000  13.2500 Du        
   1902 ****       -12.2500  11.5000  13.5000 Du        
   1903 ****       -12.2500  11.5000  13.7500 Du        
   1904 ****       -12.2500  11.5000  14.0000 Du        
   1905 ****       -12.2500  11.7500  11.7500 Du        
   1906 ****       -12.2500  11.7500  12.0000 Du        
   1907 ****       -12.2500  11.7500  12.2500 Du        
   1908 ****       -12.2500  11.7500  12.5000 Du        
   1909 ****       -12.2500  11.7500  12.7500 Du        
   1910 ****       -12.2500  11.7500  13.0000 Du        
   1911 ****       -12.2500  11.7500  13.2500 Du        
   1912 ****       -12.2500  11.7500  13.5000 Du        
   1913 ****       -12.2500  11.7500  13.7500 Du        
   1914 ****       -12.2500  11.7500  14.0000 Du        
   1915 ****       -12.2500  11.7500  14.2500 Du        
   1916 ****       -12.2500  12.0000  11.5000 Du        
   1917 ****       -12.2500  12.0000  11.7500 Du        
   1918 ****       -12.2500  12.0000  12.0000 Du        
   1919 ****       -12.2500  12.0000  12.2500 Du        
   1920 ****       -12.2500  12.0000  12.5000 Du        
   1921 ****       -12.2500  12.0000  12.7500 Du        
   1922 ****       -12.2500  12.0000  13.0000 Du        
   1923 ****       -12.2500  12.0000  13.2500 Du        
   1924 ****       -12.2500  12.0000  13.5000 Du        
   1925 ****       -12.2500  12.0000  13.7500 Du        
   1926 ****       -12.2500  12.0000  14.0000 Du        
   1927 ****       -12.2500  12.0000  14.2500 Du        
   1928 ****       -12.2500  12.0000  14.5000 Du        
   1929 ****       -12.2500  12.2500  11.7500 Du        
   1930 ****       -12.2500  12.2500  12.0000 Du        
   1931 ****       -12.2500  12.2500  12.2500 Du        
   1932 ****       -12.2500  12.2500  12.5000 Du        
   1933 ****       -12.2500  12.2500  12.7500 Du        
   1934 ****       -12.2500  12.2500  13.0000 Du        
   1935 ****       -12.2500  12.2500  13.2500 Du        
   1936 ****       -12.2500  12.2500  13.5000 Du        
   1937 ****       -12.2500  12.2500  13.7500 Du        
   1938 ****       -12.2500  12.2500  14.0000 Du        
   1939 ****       -12.2500  12.2500  14.2500 Du        
   1940 ****       -12.2500  12.2500  14.5000 Du        
   1941 ****       -12.2500  12.2500  27.7500 Du        
   1942 ****       -12.2500  12.2500  28.0000 Du        
   1943 ****       -12.2500  12.2500  28.2500 Du        
   1944 ****       -12.2500  12.5000  11.7500 Du        
   1945 ****       -12.2500  12.5000  12.0000 Du        
   1946 ****       -12.2500  12.5000  12.2500 Du        
   1947 ****       -12.2500  12.5000  12.5000 Du        
   1948 ****       -12.2500  12.5000  12.7500 Du        
   1949 ****       -12.2500  12.5000  13.0000 Du        
   1950 ****       -12.2500  12.5000  13.2500 Du        
   1951 ****       -12.2500  12.5000  13.5000 Du        
   1952 ****       -12.2500  12.5000  13.7500 Du        
   1953 ****       -12.2500  12.5000  14.0000 Du        
   1954 ****       -12.2500  12.5000  14.2500 Du        
   1955 ****       -12.2500  12.5000  14.5000 Du        
   1956 ****       -12.2500  12.5000  25.7500 Du        
   1957 ****       -12.2500  12.5000  26.0000 Du        
   1958 ****       -12.2500  12.5000  26.2500 Du        
   1959 ****       -12.2500  12.5000  26.5000 Du        
   1960 ****       -12.2500  12.5000  26.7500 Du        
   1961 ****       -12.2500  12.5000  27.0000 Du        
   1962 ****       -12.2500  12.5000  27.2500 Du        
   1963 ****       -12.2500  12.5000  27.5000 Du        
   1964 ****       -12.2500  12.5000  27.7500 Du        
   1965 ****       -12.2500  12.5000  28.0000 Du        
   1966 ****       -12.2500  12.5000  28.2500 Du        
   1967 ****       -12.2500  12.7500  12.5000 Du        
   1968 ****       -12.2500  12.7500  12.7500 Du        
   1969 ****       -12.2500  12.7500  13.0000 Du        
   1970 ****       -12.2500  12.7500  13.2500 Du        
   1971 ****       -12.2500  12.7500  13.5000 Du        
   1972 ****       -12.2500  12.7500  13.7500 Du        
   1973 ****       -12.2500  12.7500  14.0000 Du        
   1974 ****       -12.2500  12.7500  14.2500 Du        
   1975 ****       -12.2500  12.7500  14.5000 Du        
   1976 ****       -12.2500  12.7500  25.0000 Du        
   1977 ****       -12.2500  12.7500  25.2500 Du        
   1978 ****       -12.2500  12.7500  25.5000 Du        
   1979 ****       -12.2500  12.7500  25.7500 Du        
   1980 ****       -12.2500  12.7500  26.0000 Du        
   1981 ****       -12.2500  12.7500  26.2500 Du        
   1982 ****       -12.2500  12.7500  26.5000 Du        
   1983 ****       -12.2500  12.7500  26.7500 Du        
   1984 ****       -12.2500  12.7500  27.0000 Du        
   1985 ****       -12.2500  12.7500  27.2500 Du        
   1986 ****       -12.2500  12.7500  27.5000 Du        
   1987 ****       -12.2500  12.7500  27.7500 Du        
   1988 ****       -12.2500  12.7500  28.0000 Du        
   1989 ****       -12.2500  12.7500  28.2500 Du        
   1990 ****       -12.2500  13.0000  13.0000 Du        
   1991 ****       -12.2500  13.0000  13.2500 Du        
   1992 ****       -12.2500  13.0000  13.5000 Du        
   1993 ****       -12.2500  13.0000  13.7500 Du        
   1994 ****       -12.2500  13.0000  14.0000 Du        
   1995 ****       -12.2500  13.0000  24.7500 Du        
   1996 ****       -12.2500  13.0000  25.0000 Du        
   1997 ****       -12.2500  13.0000  25.2500 Du        
   1998 ****       -12.2500  13.0000  25.5000 Du        
   1999 ****       -12.2500  13.0000  25.7500 Du        
   2000 ****       -12.2500  13.0000  26.0000 Du        
   2001 ****       -12.2500  13.0000  26.2500 Du        
   2002 ****       -12.2500  13.0000  26.5000 Du        
   2003 ****       -12.2500  13.0000  26.7500 Du        
   2004 ****       -12.2500  13.0000  27.0000 Du        
   2005 ****       -12.2500  13.0000  27.2500 Du        
   2006 ****       -12.2500  13.0000  27.5000 Du        
   2007 ****       -12.2500  13.0000  27.7500 Du        
   2008 ****       -12.2500  13.0000  28.0000 Du        
   2009 ****       -12.2500  13.0000  28.2500 Du        
   2010 ****       -12.2500  13.2500  24.5000 Du        
   2011 ****       -12.2500  13.2500  24.7500 Du        
   2012 ****       -12.2500  13.2500  25.0000 Du        
   2013 ****       -12.2500  13.2500  25.2500 Du        
   2014 ****       -12.2500  13.2500  25.5000 Du        
   2015 ****       -12.2500  13.2500  25.7500 Du        
   2016 ****       -12.2500  13.2500  26.0000 Du        
   2017 ****       -12.2500  13.2500  26.2500 Du        
   2018 ****       -12.2500  13.2500  26.5000 Du        
   2019 ****       -12.2500  13.2500  26.7500 Du        
   2020 ****       -12.2500  13.2500  27.0000 Du        
   2021 ****       -12.2500  13.2500  27.2500 Du        
   2022 ****       -12.2500  13.2500  27.5000 Du        
   2023 ****       -12.2500  13.2500  27.7500 Du        
   2024 ****       -12.2500  13.2500  28.0000 Du        
   2025 ****       -12.2500  13.2500  28.2500 Du        
   2026 ****       -12.2500  13.5000  24.5000 Du        
   2027 ****       -12.2500  13.5000  24.7500 Du        
   2028 ****       -12.2500  13.5000  25.0000 Du        
   2029 ****       -12.2500  13.5000  25.2500 Du        
   2030 ****       -12.2500  13.5000  25.5000 Du        
   2031 ****       -12.2500  13.5000  25.7500 Du        
   2032 ****       -12.2500  13.5000  26.0000 Du        
   2033 ****       -12.2500  13.5000  26.2500 Du        
   2034 ****       -12.2500  13.5000  26.5000 Du        
   2035 ****       -12.2500  13.5000  26.7500 Du        
   2036 ****       -12.2500  13.5000  27.0000 Du        
   2037 ****       -12.2500  13.5000  27.2500 Du        
   2038 ****       -12.2500  13.5000  27.5000 Du        
   2039 ****       -12.2500  13.5000  27.7500 Du        
   2040 ****       -12.2500  13.5000  28.0000 Du        
   2041 ****       -12.2500  13.7500  26.5000 Du        
   2042 ****       -12.2500  13.7500  26.7500 Du        
   2043 ****       -12.2500  13.7500  27.0000 Du        
   2044 ****       -12.2500  13.7500  27.2500 Du        
   2045 ****       -12.2500  13.7500  27.5000 Du        
   2046 ****       -12.2500  13.7500  27.7500 Du        
   2047 ****       -12.2500  13.7500  28.0000 Du        
   2048 ****       -12.0000  -0.7500   4.5000 Du        
   2049 ****       -12.0000  -0.7500   4.7500 Du        
   2050 ****       -12.0000  -0.7500   5.0000 Du        
   2051 ****       -12.0000  -0.5000   2.7500 Du        
   2052 ****       -12.0000  -0.5000   3.5000 Du        
   2053 ****       -12.0000  -0.5000   3.7500 Du        
   2054 ****       -12.0000  -0.5000   4.0000 Du        
   2055 ****       -12.0000  -0.5000   4.2500 Du        
   2056 ****       -12.0000  -0.5000   4.5000 Du        
   2057 ****       -12.0000  -0.5000   4.7500 Du        
   2058 ****       -12.0000  -0.5000   5.0000 Du        
   2059 ****       -12.0000  -0.2500   2.2500 Du        
   2060 ****       -12.0000  -0.2500   2.5000 Du        
   2061 ****       -12.0000  -0.2500   2.7500 Du        
   2062 ****       -12.0000  -0.2500   3.0000 Du        
   2063 ****       -12.0000  -0.2500   3.2500 Du        
   2064 ****       -12.0000  -0.2500   3.5000 Du        
   2065 ****       -12.0000  -0.2500   3.7500 Du        
   2066 ****       -12.0000  -0.2500   4.0000 Du        
   2067 ****       -12.0000  -0.2500   4.2500 Du        
   2068 ****       -12.0000  -0.2500   4.5000 Du        
   2069 ****       -12.0000  -0.2500   4.7500 Du        
   2070 ****       -12.0000  -0.2500   5.0000 Du        
   2071 ****       -12.0000   0.0000   2.5000 Du        
   2072 ****       -12.0000   0.0000   2.7500 Du        
   2073 ****       -12.0000   0.0000   3.0000 Du        
   2074 ****       -12.0000   0.0000   3.2500 Du        
   2075 ****       -12.0000   0.0000   3.5000 Du        
   2076 ****       -12.0000   0.0000   3.7500 Du        
   2077 ****       -12.0000   0.0000   4.0000 Du        
   2078 ****       -12.0000   0.0000   4.2500 Du        
   2079 ****       -12.0000   0.0000   4.5000 Du        
   2080 ****       -12.0000   0.0000   4.7500 Du        
   2081 ****       -12.0000   0.0000   5.0000 Du        
   2082 ****       -12.0000   0.2500   3.0000 Du        
   2083 ****       -12.0000   0.2500   3.2500 Du        
   2084 ****       -12.0000   0.2500   3.5000 Du        
   2085 ****       -12.0000   0.2500   3.7500 Du        
   2086 ****       -12.0000   0.2500   4.0000 Du        
   2087 ****       -12.0000   0.2500   4.2500 Du        
   2088 ****       -12.0000   0.2500   4.5000 Du        
   2089 ****       -12.0000   0.2500   4.7500 Du        
   2090 ****       -12.0000   0.2500   5.0000 Du        
   2091 ****       -12.0000   0.2500   5.2500 Du        
   2092 ****       -12.0000   0.5000   3.5000 Du        
   2093 ****       -12.0000   0.5000   3.7500 Du        
   2094 ****       -12.0000   0.5000   4.0000 Du        
   2095 ****       -12.0000   0.5000   4.2500 Du        
   2096 ****       -12.0000   0.5000   4.5000 Du        
   2097 ****       -12.0000   0.5000   4.7500 Du        
   2098 ****       -12.0000   0.5000   5.0000 Du        
   2099 ****       -12.0000   0.7500   3.7500 Du        
   2100 ****       -12.0000   0.7500   4.0000 Du        
   2101 ****       -12.0000   0.7500   4.2500 Du        
   2102 ****       -12.0000   0.7500   4.5000 Du        
   2103 ****       -12.0000   0.7500   4.7500 Du        
   2104 ****       -12.0000   0.7500   5.0000 Du        
   2105 ****       -12.0000   0.7500   5.2500 Du        
   2106 ****       -12.0000   1.0000   4.0000 Du        
   2107 ****       -12.0000   1.0000   4.2500 Du        
   2108 ****       -12.0000   1.0000   4.5000 Du        
   2109 ****       -12.0000   1.0000   4.7500 Du        
   2110 ****       -12.0000   1.0000   5.0000 Du        
   2111 ****       -12.0000   1.0000   5.2500 Du        
   2112 ****       -12.0000   1.0000   5.5000 Du        
   2113 ****       -12.0000   1.2500   4.2500 Du        
   2114 ****       -12.0000   1.2500   4.5000 Du        
   2115 ****       -12.0000   1.2500   4.7500 Du        
   2116 ****       -12.0000   1.2500   5.0000 Du        
   2117 ****       -12.0000   1.2500   5.2500 Du        
   2118 ****       -12.0000   1.2500   5.5000 Du        
   2119 ****       -12.0000   1.5000   4.5000 Du        
   2120 ****       -12.0000   1.5000   4.7500 Du        
   2121 ****       -12.0000   1.5000   5.0000 Du        
   2122 ****       -12.0000   1.5000   5.2500 Du        
   2123 ****       -12.0000   1.5000   5.5000 Du        
   2124 ****       -12.0000   1.5000  19.7500 Du        
   2125 ****       -12.0000   1.5000  20.0000 Du        
   2126 ****       -12.0000   1.5000  20.2500 Du        
   2127 ****       -12.0000   1.7500   4.7500 Du        
   2128 ****       -12.0000   1.7500   5.0000 Du        
   2129 ****       -12.0000   1.7500   5.2500 Du        
   2130 ****       -12.0000   1.7500   5.5000 Du        
   2131 ****       -12.0000   1.7500   5.7500 Du        
   2132 ****       -12.0000   1.7500  16.7500 Du        
   2133 ****       -12.0000   1.7500  17.0000 Du        
   2134 ****       -12.0000   1.7500  17.2500 Du        
   2135 ****       -12.0000   1.7500  18.0000 Du        
   2136 ****       -12.0000   1.7500  18.2500 Du        
   2137 ****       -12.0000   1.7500  18.5000 Du        
   2138 ****       -12.0000   1.7500  18.7500 Du        
   2139 ****       -12.0000   1.7500  19.0000 Du        
   2140 ****       -12.0000   1.7500  19.2500 Du        
   2141 ****       -12.0000   1.7500  19.5000 Du        
   2142 ****       -12.0000   1.7500  19.7500 Du        
   2143 ****       -12.0000   1.7500  20.0000 Du        
   2144 ****       -12.0000   1.7500  20.2500 Du        
   2145 ****       -12.0000   1.7500  20.5000 Du        
   2146 ****       -12.0000   2.0000   5.0000 Du        
   2147 ****       -12.0000   2.0000   5.2500 Du        
   2148 ****       -12.0000   2.0000   5.5000 Du        
   2149 ****       -12.0000   2.0000   5.7500 Du        
   2150 ****       -12.0000   2.0000  16.5000 Du        
   2151 ****       -12.0000   2.0000  16.7500 Du        
   2152 ****       -12.0000   2.0000  17.0000 Du        
   2153 ****       -12.0000   2.0000  17.2500 Du        
   2154 ****       -12.0000   2.0000  17.5000 Du        
   2155 ****       -12.0000   2.0000  17.7500 Du        
   2156 ****       -12.0000   2.0000  18.0000 Du        
   2157 ****       -12.0000   2.0000  18.2500 Du        
   2158 ****       -12.0000   2.0000  18.5000 Du        
   2159 ****       -12.0000   2.0000  18.7500 Du        
   2160 ****       -12.0000   2.0000  19.0000 Du        
   2161 ****       -12.0000   2.0000  19.2500 Du        
   2162 ****       -12.0000   2.0000  19.5000 Du        
   2163 ****       -12.0000   2.0000  19.7500 Du        
   2164 ****       -12.0000   2.0000  20.0000 Du        
   2165 ****       -12.0000   2.0000  20.2500 Du        
   2166 ****       -12.0000   2.2500   5.2500 Du        
   2167 ****       -12.0000   2.2500   5.5000 Du        
   2168 ****       -12.0000   2.2500  16.7500 Du        
   2169 ****       -12.0000   2.2500  17.0000 Du        
   2170 ****       -12.0000   2.2500  17.2500 Du        
   2171 ****       -12.0000   2.2500  17.5000 Du        
   2172 ****       -12.0000   2.2500  17.7500 Du        
   2173 ****       -12.0000   2.2500  18.0000 Du        
   2174 ****       -12.0000   2.2500  18.2500 Du        
   2175 ****       -12.0000   2.2500  18.5000 Du        
   2176 ****       -12.0000   2.2500  18.7500 Du        
   2177 ****       -12.0000   2.2500  19.0000 Du        
   2178 ****       -12.0000   2.2500  19.2500 Du        
   2179 ****       -12.0000   2.2500  19.5000 Du        
   2180 ****       -12.0000   2.2500  19.7500 Du        
   2181 ****       -12.0000   2.2500  20.0000 Du        
   2182 ****       -12.0000   2.2500  20.2500 Du        
   2183 ****       -12.0000   2.5000  16.7500 Du        
   2184 ****       -12.0000   2.5000  17.0000 Du        
   2185 ****       -12.0000   2.5000  17.2500 Du        
   2186 ****       -12.0000   2.5000  17.5000 Du        
   2187 ****       -12.0000   2.5000  17.7500 Du        
   2188 ****       -12.0000   2.5000  18.0000 Du        
   2189 ****       -12.0000   2.5000  18.2500 Du        
   2190 ****       -12.0000   2.5000  18.5000 Du        
   2191 ****       -12.0000   2.5000  18.7500 Du        
   2192 ****       -12.0000   2.5000  19.0000 Du        
   2193 ****       -12.0000   2.5000  19.2500 Du        
   2194 ****       -12.0000   2.5000  19.5000 Du        
   2195 ****       -12.0000   2.5000  19.7500 Du        
   2196 ****       -12.0000   2.5000  20.0000 Du        
   2197 ****       -12.0000   2.7500  16.7500 Du        
   2198 ****       -12.0000   2.7500  17.0000 Du        
   2199 ****       -12.0000   2.7500  17.2500 Du        
   2200 ****       -12.0000   2.7500  17.5000 Du        
   2201 ****       -12.0000   2.7500  17.7500 Du        
   2202 ****       -12.0000   2.7500  18.0000 Du        
   2203 ****       -12.0000   2.7500  18.2500 Du        
   2204 ****       -12.0000   2.7500  18.5000 Du        
   2205 ****       -12.0000   2.7500  18.7500 Du        
   2206 ****       -12.0000   2.7500  19.0000 Du        
   2207 ****       -12.0000   2.7500  19.2500 Du        
   2208 ****       -12.0000   3.0000  16.7500 Du        
   2209 ****       -12.0000   3.0000  17.0000 Du        
   2210 ****       -12.0000   3.0000  17.2500 Du        
   2211 ****       -12.0000   3.0000  17.5000 Du        
   2212 ****       -12.0000   3.0000  17.7500 Du        
   2213 ****       -12.0000   3.0000  18.0000 Du        
   2214 ****       -12.0000   3.0000  18.2500 Du        
   2215 ****       -12.0000   3.0000  18.5000 Du        
   2216 ****       -12.0000   3.0000  18.7500 Du        
   2217 ****       -12.0000   3.2500  16.7500 Du        
   2218 ****       -12.0000   3.2500  17.0000 Du        
   2219 ****       -12.0000   3.2500  17.2500 Du        
   2220 ****       -12.0000   3.2500  17.5000 Du        
   2221 ****       -12.0000   3.2500  17.7500 Du        
   2222 ****       -12.0000   3.2500  18.0000 Du        
   2223 ****       -12.0000   3.5000  16.7500 Du        
   2224 ****       -12.0000   3.5000  17.0000 Du        
   2225 ****       -12.0000   3.5000  17.2500 Du        
   2226 ****       -12.0000   3.5000  17.5000 Du        
   2227 ****       -12.0000   3.7500  16.7500 Du        
   2228 ****       -12.0000   3.7500  17.0000 Du        
   2229 ****       -12.0000   3.7500  17.2500 Du        
   2230 ****       -12.0000   4.0000  16.7500 Du        
   2231 ****       -12.0000   4.0000  17.0000 Du        
   2232 ****       -12.0000   4.0000  17.2500 Du        
   2233 ****       -12.0000   4.2500  16.5000 Du        
   2234 ****       -12.0000   4.2500  16.7500 Du        
   2235 ****       -12.0000   4.2500  17.0000 Du        
   2236 ****       -12.0000   4.5000  16.2500 Du        
   2237 ****       -12.0000   4.5000  16.5000 Du        
   2238 ****       -12.0000   4.5000  16.7500 Du        
   2239 ****       -12.0000   4.5000  17.0000 Du        
   2240 ****       -12.0000   4.7500  16.2500 Du        
   2241 ****       -12.0000   4.7500  16.5000 Du        
   2242 ****       -12.0000   4.7500  16.7500 Du        
   2243 ****       -12.0000   4.7500  17.0000 Du        
   2244 ****       -12.0000   5.0000   7.7500 Du        
   2245 ****       -12.0000   5.0000   8.0000 Du        
   2246 ****       -12.0000   5.0000   8.2500 Du        
   2247 ****       -12.0000   5.0000   8.5000 Du        
   2248 ****       -12.0000   5.0000   8.7500 Du        
   2249 ****       -12.0000   5.0000  16.0000 Du        
   2250 ****       -12.0000   5.0000  16.2500 Du        
   2251 ****       -12.0000   5.0000  16.5000 Du        
   2252 ****       -12.0000   5.0000  16.7500 Du        
   2253 ****       -12.0000   5.0000  17.0000 Du        
   2254 ****       -12.0000   5.2500   8.0000 Du        
   2255 ****       -12.0000   5.2500   8.2500 Du        
   2256 ****       -12.0000   5.2500   8.5000 Du        
   2257 ****       -12.0000   5.2500   8.7500 Du        
   2258 ****       -12.0000   5.2500   9.0000 Du        
   2259 ****       -12.0000   5.2500   9.2500 Du        
   2260 ****       -12.0000   5.2500  15.7500 Du        
   2261 ****       -12.0000   5.2500  16.0000 Du        
   2262 ****       -12.0000   5.2500  16.2500 Du        
   2263 ****       -12.0000   5.2500  16.5000 Du        
   2264 ****       -12.0000   5.2500  16.7500 Du        
   2265 ****       -12.0000   5.2500  17.0000 Du        
   2266 ****       -12.0000   5.5000   8.0000 Du        
   2267 ****       -12.0000   5.5000   8.2500 Du        
   2268 ****       -12.0000   5.5000   8.5000 Du        
   2269 ****       -12.0000   5.5000   8.7500 Du        
   2270 ****       -12.0000   5.5000   9.0000 Du        
   2271 ****       -12.0000   5.5000   9.2500 Du        
   2272 ****       -12.0000   5.5000   9.5000 Du        
   2273 ****       -12.0000   5.5000  15.5000 Du        
   2274 ****       -12.0000   5.5000  15.7500 Du        
   2275 ****       -12.0000   5.5000  16.0000 Du        
   2276 ****       -12.0000   5.5000  16.2500 Du        
   2277 ****       -12.0000   5.5000  16.5000 Du        
   2278 ****       -12.0000   5.5000  16.7500 Du        
   2279 ****       -12.0000   5.5000  17.0000 Du        
   2280 ****       -12.0000   5.7500   8.2500 Du        
   2281 ****       -12.0000   5.7500   8.5000 Du        
   2282 ****       -12.0000   5.7500   8.7500 Du        
   2283 ****       -12.0000   5.7500   9.0000 Du        
   2284 ****       -12.0000   5.7500   9.2500 Du        
   2285 ****       -12.0000   5.7500   9.5000 Du        
   2286 ****       -12.0000   5.7500   9.7500 Du        
   2287 ****       -12.0000   5.7500  15.5000 Du        
   2288 ****       -12.0000   5.7500  15.7500 Du        
   2289 ****       -12.0000   5.7500  16.0000 Du        
   2290 ****       -12.0000   5.7500  16.2500 Du        
   2291 ****       -12.0000   5.7500  16.5000 Du        
   2292 ****       -12.0000   5.7500  16.7500 Du        
   2293 ****       -12.0000   5.7500  17.0000 Du        
   2294 ****       -12.0000   6.0000   8.2500 Du        
   2295 ****       -12.0000   6.0000   8.5000 Du        
   2296 ****       -12.0000   6.0000   8.7500 Du        
   2297 ****       -12.0000   6.0000   9.0000 Du        
   2298 ****       -12.0000   6.0000   9.2500 Du        
   2299 ****       -12.0000   6.0000   9.5000 Du        
   2300 ****       -12.0000   6.0000   9.7500 Du        
   2301 ****       -12.0000   6.0000  15.5000 Du        
   2302 ****       -12.0000   6.0000  15.7500 Du        
   2303 ****       -12.0000   6.0000  16.0000 Du        
   2304 ****       -12.0000   6.0000  16.2500 Du        
   2305 ****       -12.0000   6.0000  16.5000 Du        
   2306 ****       -12.0000   6.0000  16.7500 Du        
   2307 ****       -12.0000   6.0000  17.0000 Du        
   2308 ****       -12.0000   6.2500   8.5000 Du        
   2309 ****       -12.0000   6.2500   8.7500 Du        
   2310 ****       -12.0000   6.2500   9.0000 Du        
   2311 ****       -12.0000   6.2500   9.2500 Du        
   2312 ****       -12.0000   6.2500   9.5000 Du        
   2313 ****       -12.0000   6.2500   9.7500 Du        
   2314 ****       -12.0000   6.2500  15.7500 Du        
   2315 ****       -12.0000   6.2500  16.0000 Du        
   2316 ****       -12.0000   6.2500  16.2500 Du        
   2317 ****       -12.0000   6.2500  16.5000 Du        
   2318 ****       -12.0000   6.2500  16.7500 Du        
   2319 ****       -12.0000   6.2500  17.0000 Du        
   2320 ****       -12.0000   6.5000   9.5000 Du        
   2321 ****       -12.0000   6.5000   9.7500 Du        
   2322 ****       -12.0000   6.5000  15.7500 Du        
   2323 ****       -12.0000   6.5000  16.0000 Du        
   2324 ****       -12.0000   6.5000  16.2500 Du        
   2325 ****       -12.0000   6.5000  16.5000 Du        
   2326 ****       -12.0000   6.5000  16.7500 Du        
   2327 ****       -12.0000   6.7500   9.5000 Du        
   2328 ****       -12.0000   6.7500  15.7500 Du        
   2329 ****       -12.0000   6.7500  16.0000 Du        
   2330 ****       -12.0000   6.7500  16.2500 Du        
   2331 ****       -12.0000   6.7500  16.5000 Du        
   2332 ****       -12.0000   7.0000  15.7500 Du        
   2333 ****       -12.0000   7.0000  16.0000 Du        
   2334 ****       -12.0000   7.0000  16.2500 Du        
   2335 ****       -12.0000   7.2500  20.7500 Du        
   2336 ****       -12.0000   7.2500  21.0000 Du        
   2337 ****       -12.0000   7.2500  21.2500 Du        
   2338 ****       -12.0000   7.2500  21.5000 Du        
   2339 ****       -12.0000   7.2500  21.7500 Du        
   2340 ****       -12.0000   7.2500  22.0000 Du        
   2341 ****       -12.0000   7.2500  22.2500 Du        
   2342 ****       -12.0000   7.5000  20.7500 Du        
   2343 ****       -12.0000   7.5000  21.0000 Du        
   2344 ****       -12.0000   7.5000  21.2500 Du        
   2345 ****       -12.0000   7.5000  21.5000 Du        
   2346 ****       -12.0000   7.5000  21.7500 Du        
   2347 ****       -12.0000   7.5000  22.0000 Du        
   2348 ****       -12.0000   7.5000  22.2500 Du        
   2349 ****       -12.0000   7.7500  20.7500 Du        
   2350 ****       -12.0000   7.7500  21.0000 Du        
   2351 ****       -12.0000   7.7500  21.2500 Du        
   2352 ****       -12.0000   7.7500  21.5000 Du        
   2353 ****       -12.0000   7.7500  21.7500 Du        
   2354 ****       -12.0000   7.7500  22.0000 Du        
   2355 ****       -12.0000   7.7500  22.2500 Du        
   2356 ****       -12.0000   8.0000  21.0000 Du        
   2357 ****       -12.0000   8.0000  21.2500 Du        
   2358 ****       -12.0000   8.0000  21.5000 Du        
   2359 ****       -12.0000   8.0000  21.7500 Du        
   2360 ****       -12.0000   8.0000  22.0000 Du        
   2361 ****       -12.0000   8.0000  22.2500 Du        
   2362 ****       -12.0000   8.2500  21.0000 Du        
   2363 ****       -12.0000   8.2500  21.2500 Du        
   2364 ****       -12.0000   8.2500  21.5000 Du        
   2365 ****       -12.0000   8.2500  21.7500 Du        
   2366 ****       -12.0000   8.2500  22.0000 Du        
   2367 ****       -12.0000   8.2500  22.2500 Du        
   2368 ****       -12.0000   8.5000  21.2500 Du        
   2369 ****       -12.0000   8.5000  21.5000 Du        
   2370 ****       -12.0000   8.5000  21.7500 Du        
   2371 ****       -12.0000   8.5000  22.0000 Du        
   2372 ****       -12.0000   8.7500  21.5000 Du        
   2373 ****       -12.0000   8.7500  21.7500 Du        
   2374 ****       -12.0000   8.7500  22.0000 Du        
   2375 ****       -12.0000  10.2500  13.5000 Du        
   2376 ****       -12.0000  10.2500  13.7500 Du        
   2377 ****       -12.0000  10.5000  12.7500 Du        
   2378 ****       -12.0000  10.5000  13.0000 Du        
   2379 ****       -12.0000  10.5000  13.2500 Du        
   2380 ****       -12.0000  10.5000  13.5000 Du        
   2381 ****       -12.0000  10.5000  13.7500 Du        
   2382 ****       -12.0000  10.7500  12.2500 Du        
   2383 ****       -12.0000  10.7500  12.5000 Du        
   2384 ****       -12.0000  10.7500  12.7500 Du        
   2385 ****       -12.0000  10.7500  13.0000 Du        
   2386 ****       -12.0000  10.7500  13.2500 Du        
   2387 ****       -12.0000  10.7500  13.5000 Du        
   2388 ****       -12.0000  10.7500  13.7500 Du        
   2389 ****       -12.0000  10.7500  14.0000 Du        
   2390 ****       -12.0000  11.0000  12.0000 Du        
   2391 ****       -12.0000  11.0000  12.2500 Du        
   2392 ****       -12.0000  11.0000  12.5000 Du        
   2393 ****       -12.0000  11.0000  12.7500 Du        
   2394 ****       -12.0000  11.0000  13.0000 Du        
   2395 ****       -12.0000  11.0000  13.2500 Du        
   2396 ****       -12.0000  11.0000  13.5000 Du        
   2397 ****       -12.0000  11.0000  13.7500 Du        
   2398 ****       -12.0000  11.0000  14.0000 Du        
   2399 ****       -12.0000  11.2500  12.0000 Du        
   2400 ****       -12.0000  11.2500  12.2500 Du        
   2401 ****       -12.0000  11.2500  12.5000 Du        
   2402 ****       -12.0000  11.2500  12.7500 Du        
   2403 ****       -12.0000  11.2500  13.0000 Du        
   2404 ****       -12.0000  11.2500  13.2500 Du        
   2405 ****       -12.0000  11.2500  13.5000 Du        
   2406 ****       -12.0000  11.2500  13.7500 Du        
   2407 ****       -12.0000  11.2500  14.0000 Du        
   2408 ****       -12.0000  11.5000  12.0000 Du        
   2409 ****       -12.0000  11.5000  12.2500 Du        
   2410 ****       -12.0000  11.5000  12.5000 Du        
   2411 ****       -12.0000  11.5000  12.7500 Du        
   2412 ****       -12.0000  11.5000  13.0000 Du        
   2413 ****       -12.0000  11.5000  13.2500 Du        
   2414 ****       -12.0000  11.5000  13.5000 Du        
   2415 ****       -12.0000  11.5000  13.7500 Du        
   2416 ****       -12.0000  11.5000  14.0000 Du        
   2417 ****       -12.0000  11.5000  14.2500 Du        
   2418 ****       -12.0000  11.7500  11.5000 Du        
   2419 ****       -12.0000  11.7500  11.7500 Du        
   2420 ****       -12.0000  11.7500  12.0000 Du        
   2421 ****       -12.0000  11.7500  12.2500 Du        
   2422 ****       -12.0000  11.7500  12.5000 Du        
   2423 ****       -12.0000  11.7500  12.7500 Du        
   2424 ****       -12.0000  11.7500  13.0000 Du        
   2425 ****       -12.0000  11.7500  13.2500 Du        
   2426 ****       -12.0000  11.7500  13.5000 Du        
   2427 ****       -12.0000  11.7500  13.7500 Du        
   2428 ****       -12.0000  11.7500  14.0000 Du        
   2429 ****       -12.0000  11.7500  14.2500 Du        
   2430 ****       -12.0000  12.0000  11.5000 Du        
   2431 ****       -12.0000  12.0000  11.7500 Du        
   2432 ****       -12.0000  12.0000  12.0000 Du        
   2433 ****       -12.0000  12.0000  12.2500 Du        
   2434 ****       -12.0000  12.0000  12.5000 Du        
   2435 ****       -12.0000  12.0000  12.7500 Du        
   2436 ****       -12.0000  12.0000  13.0000 Du        
   2437 ****       -12.0000  12.0000  13.2500 Du        
   2438 ****       -12.0000  12.0000  13.5000 Du        
   2439 ****       -12.0000  12.0000  13.7500 Du        
   2440 ****       -12.0000  12.0000  14.0000 Du        
   2441 ****       -12.0000  12.0000  14.2500 Du        
   2442 ****       -12.0000  12.0000  14.5000 Du        
   2443 ****       -12.0000  12.2500  11.7500 Du        
   2444 ****       -12.0000  12.2500  12.0000 Du        
   2445 ****       -12.0000  12.2500  12.2500 Du        
   2446 ****       -12.0000  12.2500  12.5000 Du        
   2447 ****       -12.0000  12.2500  12.7500 Du        
   2448 ****       -12.0000  12.2500  13.0000 Du        
   2449 ****       -12.0000  12.2500  13.2500 Du        
   2450 ****       -12.0000  12.2500  13.5000 Du        
   2451 ****       -12.0000  12.2500  13.7500 Du        
   2452 ****       -12.0000  12.2500  14.0000 Du        
   2453 ****       -12.0000  12.2500  14.2500 Du        
   2454 ****       -12.0000  12.2500  14.5000 Du        
   2455 ****       -12.0000  12.2500  27.7500 Du        
   2456 ****       -12.0000  12.2500  28.0000 Du        
   2457 ****       -12.0000  12.2500  28.2500 Du        
   2458 ****       -12.0000  12.5000  12.5000 Du        
   2459 ****       -12.0000  12.5000  12.7500 Du        
   2460 ****       -12.0000  12.5000  13.0000 Du        
   2461 ****       -12.0000  12.5000  13.2500 Du        
   2462 ****       -12.0000  12.5000  13.5000 Du        
   2463 ****       -12.0000  12.5000  13.7500 Du        
   2464 ****       -12.0000  12.5000  14.0000 Du        
   2465 ****       -12.0000  12.5000  14.2500 Du        
   2466 ****       -12.0000  12.5000  14.5000 Du        
   2467 ****       -12.0000  12.5000  27.0000 Du        
   2468 ****       -12.0000  12.5000  27.2500 Du        
   2469 ****       -12.0000  12.5000  27.5000 Du        
   2470 ****       -12.0000  12.5000  27.7500 Du        
   2471 ****       -12.0000  12.5000  28.0000 Du        
   2472 ****       -12.0000  12.5000  28.2500 Du        
   2473 ****       -12.0000  12.7500  13.2500 Du        
   2474 ****       -12.0000  12.7500  13.5000 Du        
   2475 ****       -12.0000  12.7500  13.7500 Du        
   2476 ****       -12.0000  12.7500  14.0000 Du        
   2477 ****       -12.0000  12.7500  14.2500 Du        
   2478 ****       -12.0000  12.7500  25.5000 Du        
   2479 ****       -12.0000  12.7500  25.7500 Du        
   2480 ****       -12.0000  12.7500  26.0000 Du        
   2481 ****       -12.0000  12.7500  26.2500 Du        
   2482 ****       -12.0000  12.7500  26.5000 Du        
   2483 ****       -12.0000  12.7500  26.7500 Du        
   2484 ****       -12.0000  12.7500  27.0000 Du        
   2485 ****       -12.0000  12.7500  27.2500 Du        
   2486 ****       -12.0000  12.7500  27.5000 Du        
   2487 ****       -12.0000  12.7500  27.7500 Du        
   2488 ****       -12.0000  12.7500  28.0000 Du        
   2489 ****       -12.0000  12.7500  28.2500 Du        
   2490 ****       -12.0000  13.0000  25.0000 Du        
   2491 ****       -12.0000  13.0000  25.2500 Du        
   2492 ****       -12.0000  13.0000  25.5000 Du        
   2493 ****       -12.0000  13.0000  25.7500 Du        
   2494 ****       -12.0000  13.0000  26.0000 Du        
   2495 ****       -12.0000  13.0000  26.2500 Du        
   2496 ****       -12.0000  13.0000  26.5000 Du        
   2497 ****       -12.0000  13.0000  26.7500 Du        
   2498 ****       -12.0000  13.0000  27.0000 Du        
   2499 ****       -12.0000  13.0000  27.2500 Du        
   2500 ****       -12.0000  13.0000  27.5000 Du        
   2501 ****       -12.0000  13.0000  27.7500 Du        
   2502 ****       -12.0000  13.0000  28.0000 Du        
   2503 ****       -12.0000  13.0000  28.2500 Du        
   2504 ****       -12.0000  13.2500  24.7500 Du        
   2505 ****       -12.0000  13.2500  25.0000 Du        
   2506 ****       -12.0000  13.2500  25.2500 Du        
   2507 ****       -12.0000  13.2500  25.5000 Du        
   2508 ****       -12.0000  13.2500  25.7500 Du        
   2509 ****       -12.0000  13.2500  26.0000 Du        
   2510 ****       -12.0000  13.2500  26.2500 Du        
   2511 ****       -12.0000  13.2500  26.5000 Du        
   2512 ****       -12.0000  13.2500  26.7500 Du        
   2513 ****       -12.0000  13.2500  27.0000 Du        
   2514 ****       -12.0000  13.2500  27.2500 Du        
   2515 ****       -12.0000  13.2500  27.5000 Du        
   2516 ****       -12.0000  13.2500  27.7500 Du        
   2517 ****       -12.0000  13.2500  28.0000 Du        
   2518 ****       -12.0000  13.2500  28.2500 Du        
   2519 ****       -12.0000  13.5000  24.7500 Du        
   2520 ****       -12.0000  13.5000  25.0000 Du        
   2521 ****       -12.0000  13.5000  25.2500 Du        
   2522 ****       -12.0000  13.5000  25.5000 Du        
   2523 ****       -12.0000  13.5000  25.7500 Du        
   2524 ****       -12.0000  13.5000  26.0000 Du        
   2525 ****       -12.0000  13.5000  26.2500 Du        
   2526 ****       -12.0000  13.5000  26.5000 Du        
   2527 ****       -12.0000  13.5000  26.7500 Du        
   2528 ****       -12.0000  13.5000  27.0000 Du        
   2529 ****       -12.0000  13.5000  27.2500 Du        
   2530 ****       -12.0000  13.5000  27.5000 Du        
   2531 ****       -12.0000  13.5000  27.7500 Du        
   2532 ****       -12.0000  13.5000  28.0000 Du        
   2533 ****       -12.0000  13.7500  24.7500 Du        
   2534 ****       -12.0000  13.7500  25.0000 Du        
   2535 ****       -12.0000  13.7500  25.2500 Du        
   2536 ****       -12.0000  13.7500  26.0000 Du        
   2537 ****       -12.0000  13.7500  26.2500 Du        
   2538 ****       -12.0000  13.7500  26.5000 Du        
   2539 ****       -12.0000  13.7500  26.7500 Du        
   2540 ****       -12.0000  13.7500  27.0000 Du        
   2541 ****       -12.0000  13.7500  27.2500 Du        
   2542 ****       -12.0000  13.7500  27.5000 Du        
   2543 ****       -12.0000  13.7500  27.7500 Du        
   2544 ****       -12.0000  13.7500  28.0000 Du        
   2545 ****       -12.0000  14.0000  27.0000 Du        
   2546 ****       -12.0000  14.0000  27.2500 Du        
   2547 ****       -12.0000  14.0000  27.5000 Du        
   2548 ****       -12.0000  14.0000  27.7500 Du        
   2549 ****       -11.7500  -0.7500   4.2500 Du        
   2550 ****       -11.7500  -0.7500   4.5000 Du        
   2551 ****       -11.7500  -0.7500   4.7500 Du        
   2552 ****       -11.7500  -0.7500   5.0000 Du        
   2553 ****       -11.7500  -0.7500   5.2500 Du        
   2554 ****       -11.7500  -0.5000   3.5000 Du        
   2555 ****       -11.7500  -0.5000   3.7500 Du        
   2556 ****       -11.7500  -0.5000   4.0000 Du        
   2557 ****       -11.7500  -0.5000   4.2500 Du        
   2558 ****       -11.7500  -0.5000   4.5000 Du        
   2559 ****       -11.7500  -0.5000   4.7500 Du        
   2560 ****       -11.7500  -0.5000   5.0000 Du        
   2561 ****       -11.7500  -0.5000   5.2500 Du        
   2562 ****       -11.7500  -0.2500   2.5000 Du        
   2563 ****       -11.7500  -0.2500   2.7500 Du        
   2564 ****       -11.7500  -0.2500   3.0000 Du        
   2565 ****       -11.7500  -0.2500   3.2500 Du        
   2566 ****       -11.7500  -0.2500   3.5000 Du        
   2567 ****       -11.7500  -0.2500   3.7500 Du        
   2568 ****       -11.7500  -0.2500   4.0000 Du        
   2569 ****       -11.7500  -0.2500   4.2500 Du        
   2570 ****       -11.7500  -0.2500   4.5000 Du        
   2571 ****       -11.7500  -0.2500   4.7500 Du        
   2572 ****       -11.7500  -0.2500   5.0000 Du        
   2573 ****       -11.7500  -0.2500   5.2500 Du        
   2574 ****       -11.7500   0.0000   2.7500 Du        
   2575 ****       -11.7500   0.0000   3.0000 Du        
   2576 ****       -11.7500   0.0000   3.2500 Du        
   2577 ****       -11.7500   0.0000   3.5000 Du        
   2578 ****       -11.7500   0.0000   3.7500 Du        
   2579 ****       -11.7500   0.0000   4.0000 Du        
   2580 ****       -11.7500   0.0000   4.2500 Du        
   2581 ****       -11.7500   0.0000   4.5000 Du        
   2582 ****       -11.7500   0.0000   4.7500 Du        
   2583 ****       -11.7500   0.0000   5.0000 Du        
   2584 ****       -11.7500   0.0000   5.2500 Du        
   2585 ****       -11.7500   0.0000   5.5000 Du        
   2586 ****       -11.7500   0.2500   3.0000 Du        
   2587 ****       -11.7500   0.2500   3.2500 Du        
   2588 ****       -11.7500   0.2500   3.5000 Du        
   2589 ****       -11.7500   0.2500   3.7500 Du        
   2590 ****       -11.7500   0.2500   4.0000 Du        
   2591 ****       -11.7500   0.2500   4.2500 Du        
   2592 ****       -11.7500   0.2500   4.5000 Du        
   2593 ****       -11.7500   0.2500   4.7500 Du        
   2594 ****       -11.7500   0.2500   5.0000 Du        
   2595 ****       -11.7500   0.2500   5.2500 Du        
   2596 ****       -11.7500   0.2500   5.5000 Du        
   2597 ****       -11.7500   0.5000   3.7500 Du        
   2598 ****       -11.7500   0.5000   4.0000 Du        
   2599 ****       -11.7500   0.5000   4.2500 Du        
   2600 ****       -11.7500   0.5000   4.5000 Du        
   2601 ****       -11.7500   0.5000   4.7500 Du        
   2602 ****       -11.7500   0.5000   5.0000 Du        
   2603 ****       -11.7500   0.5000   5.2500 Du        
   2604 ****       -11.7500   0.5000   5.5000 Du        
   2605 ****       -11.7500   0.7500   3.7500 Du        
   2606 ****       -11.7500   0.7500   4.0000 Du        
   2607 ****       -11.7500   0.7500   4.2500 Du        
   2608 ****       -11.7500   0.7500   4.5000 Du        
   2609 ****       -11.7500   0.7500   4.7500 Du        
   2610 ****       -11.7500   0.7500   5.0000 Du        
   2611 ****       -11.7500   0.7500   5.2500 Du        
   2612 ****       -11.7500   0.7500   5.5000 Du        
   2613 ****       -11.7500   1.0000   4.0000 Du        
   2614 ****       -11.7500   1.0000   4.2500 Du        
   2615 ****       -11.7500   1.0000   4.5000 Du        
   2616 ****       -11.7500   1.0000   4.7500 Du        
   2617 ****       -11.7500   1.0000   5.0000 Du        
   2618 ****       -11.7500   1.0000   5.2500 Du        
   2619 ****       -11.7500   1.0000   5.5000 Du        
   2620 ****       -11.7500   1.2500   4.2500 Du        
   2621 ****       -11.7500   1.2500   4.5000 Du        
   2622 ****       -11.7500   1.2500   4.7500 Du        
   2623 ****       -11.7500   1.2500   5.0000 Du        
   2624 ****       -11.7500   1.2500   5.2500 Du        
   2625 ****       -11.7500   1.2500   5.5000 Du        
   2626 ****       -11.7500   1.5000   4.5000 Du        
   2627 ****       -11.7500   1.5000   4.7500 Du        
   2628 ****       -11.7500   1.5000   5.0000 Du        
   2629 ****       -11.7500   1.5000   5.2500 Du        
   2630 ****       -11.7500   1.5000   5.5000 Du        
   2631 ****       -11.7500   1.7500   5.0000 Du        
   2632 ****       -11.7500   1.7500   5.2500 Du        
   2633 ****       -11.7500   1.7500   5.5000 Du        
   2634 ****       -11.7500   1.7500  16.7500 Du        
   2635 ****       -11.7500   1.7500  17.0000 Du        
   2636 ****       -11.7500   1.7500  17.2500 Du        
   2637 ****       -11.7500   1.7500  17.5000 Du        
   2638 ****       -11.7500   1.7500  17.7500 Du        
   2639 ****       -11.7500   1.7500  18.0000 Du        
   2640 ****       -11.7500   1.7500  18.2500 Du        
   2641 ****       -11.7500   1.7500  18.5000 Du        
   2642 ****       -11.7500   1.7500  18.7500 Du        
   2643 ****       -11.7500   1.7500  19.0000 Du        
   2644 ****       -11.7500   1.7500  19.2500 Du        
   2645 ****       -11.7500   1.7500  19.5000 Du        
   2646 ****       -11.7500   1.7500  19.7500 Du        
   2647 ****       -11.7500   1.7500  20.0000 Du        
   2648 ****       -11.7500   1.7500  20.2500 Du        
   2649 ****       -11.7500   2.0000   5.0000 Du        
   2650 ****       -11.7500   2.0000   5.2500 Du        
   2651 ****       -11.7500   2.0000   5.5000 Du        
   2652 ****       -11.7500   2.0000  16.5000 Du        
   2653 ****       -11.7500   2.0000  16.7500 Du        
   2654 ****       -11.7500   2.0000  17.0000 Du        
   2655 ****       -11.7500   2.0000  17.2500 Du        
   2656 ****       -11.7500   2.0000  17.5000 Du        
   2657 ****       -11.7500   2.0000  17.7500 Du        
   2658 ****       -11.7500   2.0000  18.0000 Du        
   2659 ****       -11.7500   2.0000  18.2500 Du        
   2660 ****       -11.7500   2.0000  18.5000 Du        
   2661 ****       -11.7500   2.0000  18.7500 Du        
   2662 ****       -11.7500   2.0000  19.0000 Du        
   2663 ****       -11.7500   2.0000  19.2500 Du        
   2664 ****       -11.7500   2.0000  19.5000 Du        
   2665 ****       -11.7500   2.0000  19.7500 Du        
   2666 ****       -11.7500   2.0000  20.0000 Du        
   2667 ****       -11.7500   2.0000  20.2500 Du        
   2668 ****       -11.7500   2.2500  16.7500 Du        
   2669 ****       -11.7500   2.2500  17.0000 Du        
   2670 ****       -11.7500   2.2500  17.2500 Du        
   2671 ****       -11.7500   2.2500  17.5000 Du        
   2672 ****       -11.7500   2.2500  17.7500 Du        
   2673 ****       -11.7500   2.2500  18.0000 Du        
   2674 ****       -11.7500   2.2500  18.2500 Du        
   2675 ****       -11.7500   2.2500  18.5000 Du        
   2676 ****       -11.7500   2.2500  18.7500 Du        
   2677 ****       -11.7500   2.2500  19.0000 Du        
   2678 ****       -11.7500   2.2500  19.2500 Du        
   2679 ****       -11.7500   2.2500  19.5000 Du        
   2680 ****       -11.7500   2.2500  19.7500 Du        
   2681 ****       -11.7500   2.5000  16.7500 Du        
   2682 ****       -11.7500   2.5000  17.0000 Du        
   2683 ****       -11.7500   2.5000  17.2500 Du        
   2684 ****       -11.7500   2.5000  17.5000 Du        
   2685 ****       -11.7500   2.5000  17.7500 Du        
   2686 ****       -11.7500   2.5000  18.0000 Du        
   2687 ****       -11.7500   2.5000  18.2500 Du        
   2688 ****       -11.7500   2.5000  18.5000 Du        
   2689 ****       -11.7500   2.5000  18.7500 Du        
   2690 ****       -11.7500   2.5000  19.0000 Du        
   2691 ****       -11.7500   2.5000  19.2500 Du        
   2692 ****       -11.7500   2.7500  16.7500 Du        
   2693 ****       -11.7500   2.7500  17.0000 Du        
   2694 ****       -11.7500   2.7500  17.2500 Du        
   2695 ****       -11.7500   2.7500  17.5000 Du        
   2696 ****       -11.7500   2.7500  17.7500 Du        
   2697 ****       -11.7500   2.7500  18.0000 Du        
   2698 ****       -11.7500   2.7500  18.2500 Du        
   2699 ****       -11.7500   2.7500  18.5000 Du        
   2700 ****       -11.7500   3.0000  16.7500 Du        
   2701 ****       -11.7500   3.0000  17.0000 Du        
   2702 ****       -11.7500   3.0000  17.2500 Du        
   2703 ****       -11.7500   3.0000  17.5000 Du        
   2704 ****       -11.7500   3.0000  17.7500 Du        
   2705 ****       -11.7500   3.0000  18.0000 Du        
   2706 ****       -11.7500   3.2500  16.7500 Du        
   2707 ****       -11.7500   3.2500  17.0000 Du        
   2708 ****       -11.7500   3.2500  17.2500 Du        
   2709 ****       -11.7500   3.2500  17.5000 Du        
   2710 ****       -11.7500   3.2500  17.7500 Du        
   2711 ****       -11.7500   3.5000  16.7500 Du        
   2712 ****       -11.7500   3.5000  17.0000 Du        
   2713 ****       -11.7500   3.5000  17.2500 Du        
   2714 ****       -11.7500   3.7500  16.7500 Du        
   2715 ****       -11.7500   3.7500  17.0000 Du        
   2716 ****       -11.7500   4.0000  16.7500 Du        
   2717 ****       -11.7500   4.2500  16.7500 Du        
   2718 ****       -11.7500   4.7500  16.2500 Du        
   2719 ****       -11.7500   4.7500  16.5000 Du        
   2720 ****       -11.7500   5.0000  16.0000 Du        
   2721 ****       -11.7500   5.0000  16.2500 Du        
   2722 ****       -11.7500   5.0000  16.5000 Du        
   2723 ****       -11.7500   5.2500   8.5000 Du        
   2724 ****       -11.7500   5.2500   8.7500 Du        
   2725 ****       -11.7500   5.2500  16.0000 Du        
   2726 ****       -11.7500   5.2500  16.2500 Du        
   2727 ****       -11.7500   5.2500  16.5000 Du        
   2728 ****       -11.7500   5.2500  16.7500 Du        
   2729 ****       -11.7500   5.5000   8.2500 Du        
   2730 ****       -11.7500   5.5000   8.5000 Du        
   2731 ****       -11.7500   5.5000   8.7500 Du        
   2732 ****       -11.7500   5.5000   9.0000 Du        
   2733 ****       -11.7500   5.5000  16.0000 Du        
   2734 ****       -11.7500   5.5000  16.2500 Du        
   2735 ****       -11.7500   5.5000  16.5000 Du        
   2736 ****       -11.7500   5.5000  16.7500 Du        
   2737 ****       -11.7500   5.7500   8.2500 Du        
   2738 ****       -11.7500   5.7500   8.5000 Du        
   2739 ****       -11.7500   5.7500   8.7500 Du        
   2740 ****       -11.7500   5.7500   9.0000 Du        
   2741 ****       -11.7500   5.7500   9.2500 Du        
   2742 ****       -11.7500   5.7500   9.5000 Du        
   2743 ****       -11.7500   5.7500  16.0000 Du        
   2744 ****       -11.7500   5.7500  16.2500 Du        
   2745 ****       -11.7500   5.7500  16.5000 Du        
   2746 ****       -11.7500   5.7500  16.7500 Du        
   2747 ****       -11.7500   6.0000   8.5000 Du        
   2748 ****       -11.7500   6.0000   8.7500 Du        
   2749 ****       -11.7500   6.0000   9.0000 Du        
   2750 ****       -11.7500   6.0000   9.2500 Du        
   2751 ****       -11.7500   6.0000   9.5000 Du        
   2752 ****       -11.7500   6.0000  16.0000 Du        
   2753 ****       -11.7500   6.0000  16.2500 Du        
   2754 ****       -11.7500   6.0000  16.5000 Du        
   2755 ****       -11.7500   6.0000  16.7500 Du        
   2756 ****       -11.7500   6.2500   8.7500 Du        
   2757 ****       -11.7500   6.2500   9.0000 Du        
   2758 ****       -11.7500   6.2500   9.2500 Du        
   2759 ****       -11.7500   6.2500   9.5000 Du        
   2760 ****       -11.7500   6.2500  16.2500 Du        
   2761 ****       -11.7500   6.2500  16.5000 Du        
   2762 ****       -11.7500   7.0000  21.7500 Du        
   2763 ****       -11.7500   7.0000  22.0000 Du        
   2764 ****       -11.7500   7.2500  21.2500 Du        
   2765 ****       -11.7500   7.2500  21.5000 Du        
   2766 ****       -11.7500   7.2500  21.7500 Du        
   2767 ****       -11.7500   7.2500  22.0000 Du        
   2768 ****       -11.7500   7.2500  22.2500 Du        
   2769 ****       -11.7500   7.5000  21.0000 Du        
   2770 ****       -11.7500   7.5000  21.2500 Du        
   2771 ****       -11.7500   7.5000  21.5000 Du        
   2772 ****       -11.7500   7.5000  21.7500 Du        
   2773 ****       -11.7500   7.5000  22.0000 Du        
   2774 ****       -11.7500   7.5000  22.2500 Du        
   2775 ****       -11.7500   7.7500  21.0000 Du        
   2776 ****       -11.7500   7.7500  21.2500 Du        
   2777 ****       -11.7500   7.7500  21.5000 Du        
   2778 ****       -11.7500   7.7500  21.7500 Du        
   2779 ****       -11.7500   7.7500  22.0000 Du        
   2780 ****       -11.7500   7.7500  22.2500 Du        
   2781 ****       -11.7500   8.0000  21.0000 Du        
   2782 ****       -11.7500   8.0000  21.2500 Du        
   2783 ****       -11.7500   8.0000  21.5000 Du        
   2784 ****       -11.7500   8.0000  21.7500 Du        
   2785 ****       -11.7500   8.0000  22.0000 Du        
   2786 ****       -11.7500   8.0000  22.2500 Du        
   2787 ****       -11.7500   8.2500  21.0000 Du        
   2788 ****       -11.7500   8.2500  21.2500 Du        
   2789 ****       -11.7500   8.2500  21.5000 Du        
   2790 ****       -11.7500   8.2500  21.7500 Du        
   2791 ****       -11.7500   8.2500  22.0000 Du        
   2792 ****       -11.7500   8.2500  22.2500 Du        
   2793 ****       -11.7500   8.5000  21.2500 Du        
   2794 ****       -11.7500   8.5000  21.5000 Du        
   2795 ****       -11.7500   8.5000  21.7500 Du        
   2796 ****       -11.7500   8.5000  22.0000 Du        
   2797 ****       -11.7500   8.7500  21.2500 Du        
   2798 ****       -11.7500   8.7500  21.5000 Du        
   2799 ****       -11.7500   8.7500  21.7500 Du        
   2800 ****       -11.7500  10.5000  13.0000 Du        
   2801 ****       -11.7500  10.5000  13.2500 Du        
   2802 ****       -11.7500  10.5000  13.5000 Du        
   2803 ****       -11.7500  10.5000  13.7500 Du        
   2804 ****       -11.7500  10.7500  12.2500 Du        
   2805 ****       -11.7500  10.7500  12.5000 Du        
   2806 ****       -11.7500  10.7500  12.7500 Du        
   2807 ****       -11.7500  10.7500  13.0000 Du        
   2808 ****       -11.7500  10.7500  13.2500 Du        
   2809 ****       -11.7500  10.7500  13.5000 Du        
   2810 ****       -11.7500  10.7500  13.7500 Du        
   2811 ****       -11.7500  10.7500  14.0000 Du        
   2812 ****       -11.7500  11.0000  11.7500 Du        
   2813 ****       -11.7500  11.0000  12.0000 Du        
   2814 ****       -11.7500  11.0000  12.2500 Du        
   2815 ****       -11.7500  11.0000  12.5000 Du        
   2816 ****       -11.7500  11.0000  12.7500 Du        
   2817 ****       -11.7500  11.0000  13.0000 Du        
   2818 ****       -11.7500  11.0000  13.2500 Du        
   2819 ****       -11.7500  11.0000  13.5000 Du        
   2820 ****       -11.7500  11.0000  13.7500 Du        
   2821 ****       -11.7500  11.0000  14.0000 Du        
   2822 ****       -11.7500  11.2500  11.7500 Du        
   2823 ****       -11.7500  11.2500  12.0000 Du        
   2824 ****       -11.7500  11.2500  12.2500 Du        
   2825 ****       -11.7500  11.2500  12.5000 Du        
   2826 ****       -11.7500  11.2500  12.7500 Du        
   2827 ****       -11.7500  11.2500  13.0000 Du        
   2828 ****       -11.7500  11.2500  13.2500 Du        
   2829 ****       -11.7500  11.2500  13.5000 Du        
   2830 ****       -11.7500  11.2500  13.7500 Du        
   2831 ****       -11.7500  11.2500  14.0000 Du        
   2832 ****       -11.7500  11.5000  11.7500 Du        
   2833 ****       -11.7500  11.5000  12.0000 Du        
   2834 ****       -11.7500  11.5000  12.2500 Du        
   2835 ****       -11.7500  11.5000  12.5000 Du        
   2836 ****       -11.7500  11.5000  12.7500 Du        
   2837 ****       -11.7500  11.5000  13.0000 Du        
   2838 ****       -11.7500  11.5000  13.2500 Du        
   2839 ****       -11.7500  11.5000  13.5000 Du        
   2840 ****       -11.7500  11.5000  13.7500 Du        
   2841 ****       -11.7500  11.5000  14.0000 Du        
   2842 ****       -11.7500  11.7500  11.5000 Du        
   2843 ****       -11.7500  11.7500  11.7500 Du        
   2844 ****       -11.7500  11.7500  12.0000 Du        
   2845 ****       -11.7500  11.7500  12.2500 Du        
   2846 ****       -11.7500  11.7500  12.5000 Du        
   2847 ****       -11.7500  11.7500  12.7500 Du        
   2848 ****       -11.7500  11.7500  13.0000 Du        
   2849 ****       -11.7500  11.7500  13.2500 Du        
   2850 ****       -11.7500  11.7500  13.5000 Du        
   2851 ****       -11.7500  11.7500  13.7500 Du        
   2852 ****       -11.7500  11.7500  14.0000 Du        
   2853 ****       -11.7500  11.7500  14.2500 Du        
   2854 ****       -11.7500  12.0000  11.7500 Du        
   2855 ****       -11.7500  12.0000  12.0000 Du        
   2856 ****       -11.7500  12.0000  12.2500 Du        
   2857 ****       -11.7500  12.0000  12.5000 Du        
   2858 ****       -11.7500  12.0000  12.7500 Du        
   2859 ****       -11.7500  12.0000  13.0000 Du        
   2860 ****       -11.7500  12.0000  13.2500 Du        
   2861 ****       -11.7500  12.0000  13.5000 Du        
   2862 ****       -11.7500  12.0000  13.7500 Du        
   2863 ****       -11.7500  12.0000  14.0000 Du        
   2864 ****       -11.7500  12.0000  14.2500 Du        
   2865 ****       -11.7500  12.2500  12.5000 Du        
   2866 ****       -11.7500  12.2500  12.7500 Du        
   2867 ****       -11.7500  12.2500  13.0000 Du        
   2868 ****       -11.7500  12.2500  13.2500 Du        
   2869 ****       -11.7500  12.2500  13.5000 Du        
   2870 ****       -11.7500  12.2500  13.7500 Du        
   2871 ****       -11.7500  12.2500  14.0000 Du        
   2872 ****       -11.7500  12.2500  14.2500 Du        
   2873 ****       -11.7500  12.2500  28.0000 Du        
   2874 ****       -11.7500  12.2500  28.2500 Du        
   2875 ****       -11.7500  12.5000  13.5000 Du        
   2876 ****       -11.7500  12.5000  13.7500 Du        
   2877 ****       -11.7500  12.5000  14.0000 Du        
   2878 ****       -11.7500  12.5000  27.5000 Du        
   2879 ****       -11.7500  12.5000  27.7500 Du        
   2880 ****       -11.7500  12.5000  28.0000 Du        
   2881 ****       -11.7500  12.5000  28.2500 Du        
   2882 ****       -11.7500  12.7500  26.7500 Du        
   2883 ****       -11.7500  12.7500  27.0000 Du        
   2884 ****       -11.7500  12.7500  27.2500 Du        
   2885 ****       -11.7500  12.7500  27.5000 Du        
   2886 ****       -11.7500  12.7500  27.7500 Du        
   2887 ****       -11.7500  12.7500  28.0000 Du        
   2888 ****       -11.7500  12.7500  28.2500 Du        
   2889 ****       -11.7500  13.0000  25.5000 Du        
   2890 ****       -11.7500  13.0000  25.7500 Du        
   2891 ****       -11.7500  13.0000  26.0000 Du        
   2892 ****       -11.7500  13.0000  26.2500 Du        
   2893 ****       -11.7500  13.0000  26.5000 Du        
   2894 ****       -11.7500  13.0000  26.7500 Du        
   2895 ****       -11.7500  13.0000  27.0000 Du        
   2896 ****       -11.7500  13.0000  27.2500 Du        
   2897 ****       -11.7500  13.0000  27.5000 Du        
   2898 ****       -11.7500  13.0000  27.7500 Du        
   2899 ****       -11.7500  13.0000  28.0000 Du        
   2900 ****       -11.7500  13.0000  28.2500 Du        
   2901 ****       -11.7500  13.2500  25.0000 Du        
   2902 ****       -11.7500  13.2500  25.2500 Du        
   2903 ****       -11.7500  13.2500  25.5000 Du        
   2904 ****       -11.7500  13.2500  25.7500 Du        
   2905 ****       -11.7500  13.2500  26.0000 Du        
   2906 ****       -11.7500  13.2500  26.2500 Du        
   2907 ****       -11.7500  13.2500  26.5000 Du        
   2908 ****       -11.7500  13.2500  26.7500 Du        
   2909 ****       -11.7500  13.2500  27.0000 Du        
   2910 ****       -11.7500  13.2500  27.2500 Du        
   2911 ****       -11.7500  13.2500  27.5000 Du        
   2912 ****       -11.7500  13.2500  27.7500 Du        
   2913 ****       -11.7500  13.2500  28.0000 Du        
   2914 ****       -11.7500  13.2500  28.2500 Du        
   2915 ****       -11.7500  13.5000  24.7500 Du        
   2916 ****       -11.7500  13.5000  25.0000 Du        
   2917 ****       -11.7500  13.5000  25.2500 Du        
   2918 ****       -11.7500  13.5000  25.5000 Du        
   2919 ****       -11.7500  13.5000  25.7500 Du        
   2920 ****       -11.7500  13.5000  26.0000 Du        
   2921 ****       -11.7500  13.5000  26.2500 Du        
   2922 ****       -11.7500  13.5000  26.5000 Du        
   2923 ****       -11.7500  13.5000  26.7500 Du        
   2924 ****       -11.7500  13.5000  27.0000 Du        
   2925 ****       -11.7500  13.5000  27.2500 Du        
   2926 ****       -11.7500  13.5000  27.5000 Du        
   2927 ****       -11.7500  13.5000  27.7500 Du        
   2928 ****       -11.7500  13.5000  28.0000 Du        
   2929 ****       -11.7500  13.7500  24.7500 Du        
   2930 ****       -11.7500  13.7500  25.0000 Du        
   2931 ****       -11.7500  13.7500  25.2500 Du        
   2932 ****       -11.7500  13.7500  25.5000 Du        
   2933 ****       -11.7500  13.7500  25.7500 Du        
   2934 ****       -11.7500  13.7500  26.0000 Du        
   2935 ****       -11.7500  13.7500  26.2500 Du        
   2936 ****       -11.7500  13.7500  26.5000 Du        
   2937 ****       -11.7500  13.7500  26.7500 Du        
   2938 ****       -11.7500  13.7500  27.0000 Du        
   2939 ****       -11.7500  13.7500  27.2500 Du        
   2940 ****       -11.7500  13.7500  27.5000 Du        
   2941 ****       -11.7500  13.7500  27.7500 Du        
   2942 ****       -11.7500  13.7500  28.0000 Du        
   2943 ****       -11.7500  14.0000  26.5000 Du        
   2944 ****       -11.7500  14.0000  26.7500 Du        
   2945 ****       -11.7500  14.0000  27.0000 Du        
   2946 ****       -11.7500  14.0000  27.2500 Du        
   2947 ****       -11.7500  14.0000  27.5000 Du        
   2948 ****       -11.7500  14.0000  27.7500 Du        
   2949 ****       -11.5000  -0.7500   4.2500 Du        
   2950 ****       -11.5000  -0.7500   4.5000 Du        
   2951 ****       -11.5000  -0.7500   4.7500 Du        
   2952 ****       -11.5000  -0.7500   5.0000 Du        
   2953 ****       -11.5000  -0.7500   5.2500 Du        
   2954 ****       -11.5000  -0.7500   5.5000 Du        
   2955 ****       -11.5000  -0.5000   2.7500 Du        
   2956 ****       -11.5000  -0.5000   3.2500 Du        
   2957 ****       -11.5000  -0.5000   3.5000 Du        
   2958 ****       -11.5000  -0.5000   3.7500 Du        
   2959 ****       -11.5000  -0.5000   4.0000 Du        
   2960 ****       -11.5000  -0.5000   4.2500 Du        
   2961 ****       -11.5000  -0.5000   4.5000 Du        
   2962 ****       -11.5000  -0.5000   4.7500 Du        
   2963 ****       -11.5000  -0.5000   5.0000 Du        
   2964 ****       -11.5000  -0.5000   5.2500 Du        
   2965 ****       -11.5000  -0.5000   5.5000 Du        
   2966 ****       -11.5000  -0.2500   2.5000 Du        
   2967 ****       -11.5000  -0.2500   2.7500 Du        
   2968 ****       -11.5000  -0.2500   3.0000 Du        
   2969 ****       -11.5000  -0.2500   3.2500 Du        
   2970 ****       -11.5000  -0.2500   3.5000 Du        
   2971 ****       -11.5000  -0.2500   3.7500 Du        
   2972 ****       -11.5000  -0.2500   4.0000 Du        
   2973 ****       -11.5000  -0.2500   4.2500 Du        
   2974 ****       -11.5000  -0.2500   4.5000 Du        
   2975 ****       -11.5000  -0.2500   4.7500 Du        
   2976 ****       -11.5000  -0.2500   5.0000 Du        
   2977 ****       -11.5000  -0.2500   5.2500 Du        
   2978 ****       -11.5000  -0.2500   5.5000 Du        
   2979 ****       -11.5000   0.0000   3.0000 Du        
   2980 ****       -11.5000   0.0000   3.2500 Du        
   2981 ****       -11.5000   0.0000   3.5000 Du        
   2982 ****       -11.5000   0.0000   3.7500 Du        
   2983 ****       -11.5000   0.0000   4.0000 Du        
   2984 ****       -11.5000   0.0000   4.2500 Du        
   2985 ****       -11.5000   0.0000   4.5000 Du        
   2986 ****       -11.5000   0.0000   4.7500 Du        
   2987 ****       -11.5000   0.0000   5.0000 Du        
   2988 ****       -11.5000   0.0000   5.2500 Du        
   2989 ****       -11.5000   0.0000   5.5000 Du        
   2990 ****       -11.5000   0.2500   3.2500 Du        
   2991 ****       -11.5000   0.2500   3.5000 Du        
   2992 ****       -11.5000   0.2500   3.7500 Du        
   2993 ****       -11.5000   0.2500   4.0000 Du        
   2994 ****       -11.5000   0.2500   4.2500 Du        
   2995 ****       -11.5000   0.2500   4.5000 Du        
   2996 ****       -11.5000   0.2500   4.7500 Du        
   2997 ****       -11.5000   0.2500   5.0000 Du        
   2998 ****       -11.5000   0.2500   5.2500 Du        
   2999 ****       -11.5000   0.2500   5.5000 Du        
   3000 ****       -11.5000   0.5000   3.7500 Du        
   3001 ****       -11.5000   0.5000   4.0000 Du        
   3002 ****       -11.5000   0.5000   4.2500 Du        
   3003 ****       -11.5000   0.5000   4.5000 Du        
   3004 ****       -11.5000   0.5000   4.7500 Du        
   3005 ****       -11.5000   0.5000   5.0000 Du        
   3006 ****       -11.5000   0.5000   5.2500 Du        
   3007 ****       -11.5000   0.5000   5.5000 Du        
   3008 ****       -11.5000   0.7500   4.0000 Du        
   3009 ****       -11.5000   0.7500   4.2500 Du        
   3010 ****       -11.5000   0.7500   4.5000 Du        
   3011 ****       -11.5000   0.7500   4.7500 Du        
   3012 ****       -11.5000   0.7500   5.0000 Du        
   3013 ****       -11.5000   0.7500   5.2500 Du        
   3014 ****       -11.5000   0.7500   5.5000 Du        
   3015 ****       -11.5000   1.0000   4.2500 Du        
   3016 ****       -11.5000   1.0000   4.5000 Du        
   3017 ****       -11.5000   1.0000   4.7500 Du        
   3018 ****       -11.5000   1.0000   5.0000 Du        
   3019 ****       -11.5000   1.0000   5.2500 Du        
   3020 ****       -11.5000   1.0000   5.5000 Du        
   3021 ****       -11.5000   1.2500   4.5000 Du        
   3022 ****       -11.5000   1.2500   4.7500 Du        
   3023 ****       -11.5000   1.2500   5.0000 Du        
   3024 ****       -11.5000   1.2500   5.2500 Du        
   3025 ****       -11.5000   1.2500   5.5000 Du        
   3026 ****       -11.5000   1.7500  16.7500 Du        
   3027 ****       -11.5000   1.7500  17.0000 Du        
   3028 ****       -11.5000   1.7500  17.2500 Du        
   3029 ****       -11.5000   1.7500  17.5000 Du        
   3030 ****       -11.5000   1.7500  17.7500 Du        
   3031 ****       -11.5000   1.7500  18.0000 Du        
   3032 ****       -11.5000   1.7500  18.2500 Du        
   3033 ****       -11.5000   2.0000  16.7500 Du        
   3034 ****       -11.5000   2.0000  17.0000 Du        
   3035 ****       -11.5000   2.0000  17.2500 Du        
   3036 ****       -11.5000   2.0000  17.5000 Du        
   3037 ****       -11.5000   2.0000  17.7500 Du        
   3038 ****       -11.5000   2.0000  18.0000 Du        
   3039 ****       -11.5000   2.0000  18.2500 Du        
   3040 ****       -11.5000   2.0000  18.5000 Du        
   3041 ****       -11.5000   2.0000  18.7500 Du        
   3042 ****       -11.5000   2.0000  19.0000 Du        
   3043 ****       -11.5000   2.2500  16.7500 Du        
   3044 ****       -11.5000   2.2500  17.0000 Du        
   3045 ****       -11.5000   2.2500  17.2500 Du        
   3046 ****       -11.5000   2.2500  17.5000 Du        
   3047 ****       -11.5000   2.2500  17.7500 Du        
   3048 ****       -11.5000   2.2500  18.0000 Du        
   3049 ****       -11.5000   2.2500  18.2500 Du        
   3050 ****       -11.5000   2.2500  18.5000 Du        
   3051 ****       -11.5000   2.2500  18.7500 Du        
   3052 ****       -11.5000   2.2500  19.0000 Du        
   3053 ****       -11.5000   2.5000  16.7500 Du        
   3054 ****       -11.5000   2.5000  17.0000 Du        
   3055 ****       -11.5000   2.5000  17.2500 Du        
   3056 ****       -11.5000   2.5000  17.5000 Du        
   3057 ****       -11.5000   2.5000  17.7500 Du        
   3058 ****       -11.5000   2.5000  18.0000 Du        
   3059 ****       -11.5000   2.5000  18.2500 Du        
   3060 ****       -11.5000   2.7500  16.7500 Du        
   3061 ****       -11.5000   2.7500  17.0000 Du        
   3062 ****       -11.5000   2.7500  17.2500 Du        
   3063 ****       -11.5000   2.7500  17.5000 Du        
   3064 ****       -11.5000   2.7500  17.7500 Du        
   3065 ****       -11.5000   2.7500  18.0000 Du        
   3066 ****       -11.5000   3.0000  16.7500 Du        
   3067 ****       -11.5000   3.0000  17.0000 Du        
   3068 ****       -11.5000   3.0000  17.2500 Du        
   3069 ****       -11.5000   3.0000  17.5000 Du        
   3070 ****       -11.5000   3.0000  17.7500 Du        
   3071 ****       -11.5000   3.2500  16.7500 Du        
   3072 ****       -11.5000   3.2500  17.0000 Du        
   3073 ****       -11.5000   3.2500  17.2500 Du        
   3074 ****       -11.5000   3.5000  17.0000 Du        
   3075 ****       -11.5000   7.0000  22.0000 Du        
   3076 ****       -11.5000   7.0000  22.2500 Du        
   3077 ****       -11.5000   7.2500  21.7500 Du        
   3078 ****       -11.5000   7.2500  22.0000 Du        
   3079 ****       -11.5000   7.2500  22.2500 Du        
   3080 ****       -11.5000   7.5000  21.5000 Du        
   3081 ****       -11.5000   7.5000  21.7500 Du        
   3082 ****       -11.5000   7.5000  22.0000 Du        
   3083 ****       -11.5000   7.5000  22.2500 Du        
   3084 ****       -11.5000   7.5000  22.5000 Du        
   3085 ****       -11.5000   7.7500  21.2500 Du        
   3086 ****       -11.5000   7.7500  21.5000 Du        
   3087 ****       -11.5000   7.7500  21.7500 Du        
   3088 ****       -11.5000   7.7500  22.0000 Du        
   3089 ****       -11.5000   7.7500  22.2500 Du        
   3090 ****       -11.5000   8.0000  21.0000 Du        
   3091 ****       -11.5000   8.0000  21.2500 Du        
   3092 ****       -11.5000   8.0000  21.5000 Du        
   3093 ****       -11.5000   8.0000  21.7500 Du        
   3094 ****       -11.5000   8.0000  22.0000 Du        
   3095 ****       -11.5000   8.0000  22.2500 Du        
   3096 ****       -11.5000   8.2500  21.0000 Du        
   3097 ****       -11.5000   8.2500  21.2500 Du        
   3098 ****       -11.5000   8.2500  21.5000 Du        
   3099 ****       -11.5000   8.2500  21.7500 Du        
   3100 ****       -11.5000   8.2500  22.0000 Du        
   3101 ****       -11.5000   8.5000  21.2500 Du        
   3102 ****       -11.5000   8.5000  21.5000 Du        
   3103 ****       -11.5000   8.5000  21.7500 Du        
   3104 ****       -11.5000   8.7500  21.5000 Du        
   3105 ****       -11.5000  10.7500  12.2500 Du        
   3106 ****       -11.5000  10.7500  12.5000 Du        
   3107 ****       -11.5000  10.7500  12.7500 Du        
   3108 ****       -11.5000  10.7500  13.0000 Du        
   3109 ****       -11.5000  10.7500  13.2500 Du        
   3110 ****       -11.5000  10.7500  13.5000 Du        
   3111 ****       -11.5000  10.7500  13.7500 Du        
   3112 ****       -11.5000  11.0000  11.7500 Du        
   3113 ****       -11.5000  11.0000  12.0000 Du        
   3114 ****       -11.5000  11.0000  12.2500 Du        
   3115 ****       -11.5000  11.0000  12.5000 Du        
   3116 ****       -11.5000  11.0000  12.7500 Du        
   3117 ****       -11.5000  11.0000  13.0000 Du        
   3118 ****       -11.5000  11.0000  13.2500 Du        
   3119 ****       -11.5000  11.0000  13.5000 Du        
   3120 ****       -11.5000  11.0000  13.7500 Du        
   3121 ****       -11.5000  11.2500  11.7500 Du        
   3122 ****       -11.5000  11.2500  12.0000 Du        
   3123 ****       -11.5000  11.2500  12.2500 Du        
   3124 ****       -11.5000  11.2500  12.5000 Du        
   3125 ****       -11.5000  11.2500  12.7500 Du        
   3126 ****       -11.5000  11.2500  13.0000 Du        
   3127 ****       -11.5000  11.2500  13.2500 Du        
   3128 ****       -11.5000  11.2500  13.5000 Du        
   3129 ****       -11.5000  11.2500  13.7500 Du        
   3130 ****       -11.5000  11.5000  11.5000 Du        
   3131 ****       -11.5000  11.5000  11.7500 Du        
   3132 ****       -11.5000  11.5000  12.0000 Du        
   3133 ****       -11.5000  11.5000  12.2500 Du        
   3134 ****       -11.5000  11.5000  12.5000 Du        
   3135 ****       -11.5000  11.5000  12.7500 Du        
   3136 ****       -11.5000  11.5000  13.0000 Du        
   3137 ****       -11.5000  11.5000  13.2500 Du        
   3138 ****       -11.5000  11.5000  13.5000 Du        
   3139 ****       -11.5000  11.5000  13.7500 Du        
   3140 ****       -11.5000  11.7500  11.5000 Du        
   3141 ****       -11.5000  11.7500  11.7500 Du        
   3142 ****       -11.5000  11.7500  12.0000 Du        
   3143 ****       -11.5000  11.7500  12.2500 Du        
   3144 ****       -11.5000  11.7500  12.5000 Du        
   3145 ****       -11.5000  11.7500  12.7500 Du        
   3146 ****       -11.5000  11.7500  13.0000 Du        
   3147 ****       -11.5000  11.7500  13.2500 Du        
   3148 ****       -11.5000  11.7500  13.5000 Du        
   3149 ****       -11.5000  11.7500  13.7500 Du        
   3150 ****       -11.5000  12.0000  11.7500 Du        
   3151 ****       -11.5000  12.0000  12.0000 Du        
   3152 ****       -11.5000  12.0000  12.2500 Du        
   3153 ****       -11.5000  12.0000  12.5000 Du        
   3154 ****       -11.5000  12.0000  12.7500 Du        
   3155 ****       -11.5000  12.0000  13.0000 Du        
   3156 ****       -11.5000  12.0000  13.2500 Du        
   3157 ****       -11.5000  12.2500  28.2500 Du        
   3158 ****       -11.5000  12.5000  27.7500 Du        
   3159 ****       -11.5000  12.5000  28.0000 Du        
   3160 ****       -11.5000  12.5000  28.2500 Du        
   3161 ****       -11.5000  12.7500  27.0000 Du        
   3162 ****       -11.5000  12.7500  27.2500 Du        
   3163 ****       -11.5000  12.7500  27.5000 Du        
   3164 ****       -11.5000  12.7500  27.7500 Du        
   3165 ****       -11.5000  12.7500  28.0000 Du        
   3166 ****       -11.5000  12.7500  28.2500 Du        
   3167 ****       -11.5000  13.0000  26.0000 Du        
   3168 ****       -11.5000  13.0000  26.2500 Du        
   3169 ****       -11.5000  13.0000  26.5000 Du        
   3170 ****       -11.5000  13.0000  26.7500 Du        
   3171 ****       -11.5000  13.0000  27.0000 Du        
   3172 ****       -11.5000  13.0000  27.2500 Du        
   3173 ****       -11.5000  13.0000  27.5000 Du        
   3174 ****       -11.5000  13.0000  27.7500 Du        
   3175 ****       -11.5000  13.0000  28.0000 Du        
   3176 ****       -11.5000  13.0000  28.2500 Du        
   3177 ****       -11.5000  13.2500  25.2500 Du        
   3178 ****       -11.5000  13.2500  25.5000 Du        
   3179 ****       -11.5000  13.2500  25.7500 Du        
   3180 ****       -11.5000  13.2500  26.0000 Du        
   3181 ****       -11.5000  13.2500  26.2500 Du        
   3182 ****       -11.5000  13.2500  26.5000 Du        
   3183 ****       -11.5000  13.2500  26.7500 Du        
   3184 ****       -11.5000  13.2500  27.0000 Du        
   3185 ****       -11.5000  13.2500  27.2500 Du        
   3186 ****       -11.5000  13.2500  27.5000 Du        
   3187 ****       -11.5000  13.2500  27.7500 Du        
   3188 ****       -11.5000  13.2500  28.0000 Du        
   3189 ****       -11.5000  13.2500  28.2500 Du        
   3190 ****       -11.5000  13.5000  25.0000 Du        
   3191 ****       -11.5000  13.5000  25.2500 Du        
   3192 ****       -11.5000  13.5000  25.5000 Du        
   3193 ****       -11.5000  13.5000  25.7500 Du        
   3194 ****       -11.5000  13.5000  26.0000 Du        
   3195 ****       -11.5000  13.5000  26.2500 Du        
   3196 ****       -11.5000  13.5000  26.5000 Du        
   3197 ****       -11.5000  13.5000  26.7500 Du        
   3198 ****       -11.5000  13.5000  27.0000 Du        
   3199 ****       -11.5000  13.5000  27.2500 Du        
   3200 ****       -11.5000  13.5000  27.5000 Du        
   3201 ****       -11.5000  13.5000  27.7500 Du        
   3202 ****       -11.5000  13.5000  28.0000 Du        
   3203 ****       -11.5000  13.7500  24.7500 Du        
   3204 ****       -11.5000  13.7500  25.0000 Du        
   3205 ****       -11.5000  13.7500  25.2500 Du        
   3206 ****       -11.5000  13.7500  25.5000 Du        
   3207 ****       -11.5000  13.7500  25.7500 Du        
   3208 ****       -11.5000  13.7500  26.0000 Du        
   3209 ****       -11.5000  13.7500  26.2500 Du        
   3210 ****       -11.5000  13.7500  26.5000 Du        
   3211 ****       -11.5000  13.7500  26.7500 Du        
   3212 ****       -11.5000  13.7500  27.0000 Du        
   3213 ****       -11.5000  13.7500  27.2500 Du        
   3214 ****       -11.5000  13.7500  27.5000 Du        
   3215 ****       -11.5000  13.7500  27.7500 Du        
   3216 ****       -11.5000  13.7500  28.0000 Du        
   3217 ****       -11.5000  14.0000  24.7500 Du        
   3218 ****       -11.5000  14.0000  25.0000 Du        
   3219 ****       -11.5000  14.0000  26.0000 Du        
   3220 ****       -11.5000  14.0000  26.2500 Du        
   3221 ****       -11.5000  14.0000  26.5000 Du        
   3222 ****       -11.5000  14.0000  26.7500 Du        
   3223 ****       -11.5000  14.0000  27.0000 Du        
   3224 ****       -11.5000  14.0000  27.2500 Du        
   3225 ****       -11.5000  14.0000  27.5000 Du        
   3226 ****       -11.5000  14.0000  27.7500 Du        
   3227 ****       -11.5000  14.2500  27.0000 Du        
   3228 ****       -11.5000  14.2500  27.2500 Du        
   3229 ****       -11.5000  14.2500  27.5000 Du        
   3230 ****       -11.2500  -1.0000   5.0000 Du        
   3231 ****       -11.2500  -1.0000   5.2500 Du        
   3232 ****       -11.2500  -0.7500   3.7500 Du        
   3233 ****       -11.2500  -0.7500   4.0000 Du        
   3234 ****       -11.2500  -0.7500   4.2500 Du        
   3235 ****       -11.2500  -0.7500   4.5000 Du        
   3236 ****       -11.2500  -0.7500   4.7500 Du        
   3237 ****       -11.2500  -0.7500   5.0000 Du        
   3238 ****       -11.2500  -0.7500   5.2500 Du        
   3239 ****       -11.2500  -0.7500   5.5000 Du        
   3240 ****       -11.2500  -0.5000   2.7500 Du        
   3241 ****       -11.2500  -0.5000   3.0000 Du        
   3242 ****       -11.2500  -0.5000   3.2500 Du        
   3243 ****       -11.2500  -0.5000   3.5000 Du        
   3244 ****       -11.2500  -0.5000   3.7500 Du        
   3245 ****       -11.2500  -0.5000   4.0000 Du        
   3246 ****       -11.2500  -0.5000   4.2500 Du        
   3247 ****       -11.2500  -0.5000   4.5000 Du        
   3248 ****       -11.2500  -0.5000   4.7500 Du        
   3249 ****       -11.2500  -0.5000   5.0000 Du        
   3250 ****       -11.2500  -0.5000   5.2500 Du        
   3251 ****       -11.2500  -0.5000   5.5000 Du        
   3252 ****       -11.2500  -0.2500   2.7500 Du        
   3253 ****       -11.2500  -0.2500   3.0000 Du        
   3254 ****       -11.2500  -0.2500   3.2500 Du        
   3255 ****       -11.2500  -0.2500   3.5000 Du        
   3256 ****       -11.2500  -0.2500   3.7500 Du        
   3257 ****       -11.2500  -0.2500   4.0000 Du        
   3258 ****       -11.2500  -0.2500   4.2500 Du        
   3259 ****       -11.2500  -0.2500   4.5000 Du        
   3260 ****       -11.2500  -0.2500   4.7500 Du        
   3261 ****       -11.2500  -0.2500   5.0000 Du        
   3262 ****       -11.2500  -0.2500   5.2500 Du        
   3263 ****       -11.2500  -0.2500   5.5000 Du        
   3264 ****       -11.2500  -0.2500   5.7500 Du        
   3265 ****       -11.2500   0.0000   2.7500 Du        
   3266 ****       -11.2500   0.0000   3.0000 Du        
   3267 ****       -11.2500   0.0000   3.2500 Du        
   3268 ****       -11.2500   0.0000   3.5000 Du        
   3269 ****       -11.2500   0.0000   3.7500 Du        
   3270 ****       -11.2500   0.0000   4.0000 Du        
   3271 ****       -11.2500   0.0000   4.2500 Du        
   3272 ****       -11.2500   0.0000   4.5000 Du        
   3273 ****       -11.2500   0.0000   4.7500 Du        
   3274 ****       -11.2500   0.0000   5.0000 Du        
   3275 ****       -11.2500   0.0000   5.2500 Du        
   3276 ****       -11.2500   0.0000   5.5000 Du        
   3277 ****       -11.2500   0.0000   5.7500 Du        
   3278 ****       -11.2500   0.2500   3.2500 Du        
   3279 ****       -11.2500   0.2500   3.5000 Du        
   3280 ****       -11.2500   0.2500   3.7500 Du        
   3281 ****       -11.2500   0.2500   4.0000 Du        
   3282 ****       -11.2500   0.2500   4.2500 Du        
   3283 ****       -11.2500   0.2500   4.5000 Du        
   3284 ****       -11.2500   0.2500   4.7500 Du        
   3285 ****       -11.2500   0.2500   5.0000 Du        
   3286 ****       -11.2500   0.2500   5.2500 Du        
   3287 ****       -11.2500   0.2500   5.5000 Du        
   3288 ****       -11.2500   0.2500   5.7500 Du        
   3289 ****       -11.2500   0.5000   3.7500 Du        
   3290 ****       -11.2500   0.5000   4.0000 Du        
   3291 ****       -11.2500   0.5000   4.2500 Du        
   3292 ****       -11.2500   0.5000   4.5000 Du        
   3293 ****       -11.2500   0.5000   4.7500 Du        
   3294 ****       -11.2500   0.5000   5.0000 Du        
   3295 ****       -11.2500   0.5000   5.2500 Du        
   3296 ****       -11.2500   0.5000   5.5000 Du        
   3297 ****       -11.2500   0.7500   4.0000 Du        
   3298 ****       -11.2500   0.7500   4.2500 Du        
   3299 ****       -11.2500   0.7500   4.5000 Du        
   3300 ****       -11.2500   0.7500   4.7500 Du        
   3301 ****       -11.2500   0.7500   5.0000 Du        
   3302 ****       -11.2500   0.7500   5.2500 Du        
   3303 ****       -11.2500   0.7500   5.5000 Du        
   3304 ****       -11.2500   1.0000   4.2500 Du        
   3305 ****       -11.2500   1.0000   4.5000 Du        
   3306 ****       -11.2500   1.0000   4.7500 Du        
   3307 ****       -11.2500   1.0000   5.0000 Du        
   3308 ****       -11.2500   1.0000   5.2500 Du        
   3309 ****       -11.2500   1.0000   5.5000 Du        
   3310 ****       -11.2500   1.2500   4.5000 Du        
   3311 ****       -11.2500   1.2500   4.7500 Du        
   3312 ****       -11.2500   1.2500   5.0000 Du        
   3313 ****       -11.2500   1.2500   5.2500 Du        
   3314 ****       -11.2500   2.0000  16.7500 Du        
   3315 ****       -11.2500   2.0000  17.0000 Du        
   3316 ****       -11.2500   2.0000  17.2500 Du        
   3317 ****       -11.2500   2.0000  17.5000 Du        
   3318 ****       -11.2500   2.0000  17.7500 Du        
   3319 ****       -11.2500   2.0000  18.0000 Du        
   3320 ****       -11.2500   2.0000  18.2500 Du        
   3321 ****       -11.2500   2.2500  16.7500 Du        
   3322 ****       -11.2500   2.2500  17.0000 Du        
   3323 ****       -11.2500   2.2500  17.2500 Du        
   3324 ****       -11.2500   2.2500  17.5000 Du        
   3325 ****       -11.2500   2.2500  17.7500 Du        
   3326 ****       -11.2500   2.2500  18.0000 Du        
   3327 ****       -11.2500   2.2500  18.2500 Du        
   3328 ****       -11.2500   2.5000  16.7500 Du        
   3329 ****       -11.2500   2.5000  17.0000 Du        
   3330 ****       -11.2500   2.5000  17.2500 Du        
   3331 ****       -11.2500   2.5000  17.5000 Du        
   3332 ****       -11.2500   2.5000  17.7500 Du        
   3333 ****       -11.2500   2.5000  18.0000 Du        
   3334 ****       -11.2500   2.7500  16.7500 Du        
   3335 ****       -11.2500   2.7500  17.0000 Du        
   3336 ****       -11.2500   2.7500  17.2500 Du        
   3337 ****       -11.2500   2.7500  17.5000 Du        
   3338 ****       -11.2500   2.7500  17.7500 Du        
   3339 ****       -11.2500   3.0000  16.7500 Du        
   3340 ****       -11.2500   3.0000  17.0000 Du        
   3341 ****       -11.2500   3.0000  17.2500 Du        
   3342 ****       -11.2500   3.0000  17.5000 Du        
   3343 ****       -11.2500   3.2500  16.7500 Du        
   3344 ****       -11.2500   3.2500  17.0000 Du        
   3345 ****       -11.2500   3.2500  17.2500 Du        
   3346 ****       -11.2500   7.0000  22.2500 Du        
   3347 ****       -11.2500   7.2500  22.0000 Du        
   3348 ****       -11.2500   7.2500  22.2500 Du        
   3349 ****       -11.2500   7.5000  21.7500 Du        
   3350 ****       -11.2500   7.5000  22.0000 Du        
   3351 ****       -11.2500   7.5000  22.2500 Du        
   3352 ****       -11.2500   7.5000  22.5000 Du        
   3353 ****       -11.2500   7.7500  21.7500 Du        
   3354 ****       -11.2500   7.7500  22.0000 Du        
   3355 ****       -11.2500   7.7500  22.2500 Du        
   3356 ****       -11.2500   8.0000  21.2500 Du        
   3357 ****       -11.2500   8.0000  21.5000 Du        
   3358 ****       -11.2500   8.0000  21.7500 Du        
   3359 ****       -11.2500   8.0000  22.0000 Du        
   3360 ****       -11.2500   8.0000  22.2500 Du        
   3361 ****       -11.2500   8.2500  21.2500 Du        
   3362 ****       -11.2500   8.2500  21.5000 Du        
   3363 ****       -11.2500   8.2500  21.7500 Du        
   3364 ****       -11.2500   8.2500  22.0000 Du        
   3365 ****       -11.2500   8.5000  21.2500 Du        
   3366 ****       -11.2500   8.5000  21.5000 Du        
   3367 ****       -11.2500   8.5000  21.7500 Du        
   3368 ****       -11.2500  10.7500  12.5000 Du        
   3369 ****       -11.2500  10.7500  12.7500 Du        
   3370 ****       -11.2500  11.0000  11.5000 Du        
   3371 ****       -11.2500  11.0000  11.7500 Du        
   3372 ****       -11.2500  11.0000  12.0000 Du        
   3373 ****       -11.2500  11.0000  12.2500 Du        
   3374 ****       -11.2500  11.0000  12.5000 Du        
   3375 ****       -11.2500  11.0000  12.7500 Du        
   3376 ****       -11.2500  11.0000  13.0000 Du        
   3377 ****       -11.2500  11.2500  11.5000 Du        
   3378 ****       -11.2500  11.2500  11.7500 Du        
   3379 ****       -11.2500  11.2500  12.0000 Du        
   3380 ****       -11.2500  11.2500  12.2500 Du        
   3381 ****       -11.2500  11.2500  12.5000 Du        
   3382 ****       -11.2500  11.2500  12.7500 Du        
   3383 ****       -11.2500  11.2500  13.0000 Du        
   3384 ****       -11.2500  11.5000  11.5000 Du        
   3385 ****       -11.2500  11.5000  11.7500 Du        
   3386 ****       -11.2500  11.5000  12.0000 Du        
   3387 ****       -11.2500  11.5000  12.2500 Du        
   3388 ****       -11.2500  11.5000  12.5000 Du        
   3389 ****       -11.2500  11.5000  12.7500 Du        
   3390 ****       -11.2500  11.5000  13.0000 Du        
   3391 ****       -11.2500  11.7500  11.7500 Du        
   3392 ****       -11.2500  11.7500  12.0000 Du        
   3393 ****       -11.2500  11.7500  12.2500 Du        
   3394 ****       -11.2500  11.7500  12.5000 Du        
   3395 ****       -11.2500  11.7500  12.7500 Du        
   3396 ****       -11.2500  12.5000  28.0000 Du        
   3397 ****       -11.2500  12.5000  28.2500 Du        
   3398 ****       -11.2500  12.7500  27.2500 Du        
   3399 ****       -11.2500  12.7500  27.5000 Du        
   3400 ****       -11.2500  12.7500  27.7500 Du        
   3401 ****       -11.2500  12.7500  28.0000 Du        
   3402 ****       -11.2500  12.7500  28.2500 Du        
   3403 ****       -11.2500  13.0000  26.7500 Du        
   3404 ****       -11.2500  13.0000  27.0000 Du        
   3405 ****       -11.2500  13.0000  27.2500 Du        
   3406 ****       -11.2500  13.0000  27.5000 Du        
   3407 ****       -11.2500  13.0000  27.7500 Du        
   3408 ****       -11.2500  13.0000  28.0000 Du        
   3409 ****       -11.2500  13.0000  28.2500 Du        
   3410 ****       -11.2500  13.2500  26.0000 Du        
   3411 ****       -11.2500  13.2500  26.2500 Du        
   3412 ****       -11.2500  13.2500  26.5000 Du        
   3413 ****       -11.2500  13.2500  26.7500 Du        
   3414 ****       -11.2500  13.2500  27.0000 Du        
   3415 ****       -11.2500  13.2500  27.2500 Du        
   3416 ****       -11.2500  13.2500  27.5000 Du        
   3417 ****       -11.2500  13.2500  27.7500 Du        
   3418 ****       -11.2500  13.2500  28.0000 Du        
   3419 ****       -11.2500  13.2500  28.2500 Du        
   3420 ****       -11.2500  13.5000  25.2500 Du        
   3421 ****       -11.2500  13.5000  25.5000 Du        
   3422 ****       -11.2500  13.5000  25.7500 Du        
   3423 ****       -11.2500  13.5000  26.0000 Du        
   3424 ****       -11.2500  13.5000  26.2500 Du        
   3425 ****       -11.2500  13.5000  26.5000 Du        
   3426 ****       -11.2500  13.5000  26.7500 Du        
   3427 ****       -11.2500  13.5000  27.0000 Du        
   3428 ****       -11.2500  13.5000  27.2500 Du        
   3429 ****       -11.2500  13.5000  27.5000 Du        
   3430 ****       -11.2500  13.5000  27.7500 Du        
   3431 ****       -11.2500  13.5000  28.0000 Du        
   3432 ****       -11.2500  13.7500  25.0000 Du        
   3433 ****       -11.2500  13.7500  25.2500 Du        
   3434 ****       -11.2500  13.7500  25.5000 Du        
   3435 ****       -11.2500  13.7500  25.7500 Du        
   3436 ****       -11.2500  13.7500  26.0000 Du        
   3437 ****       -11.2500  13.7500  26.2500 Du        
   3438 ****       -11.2500  13.7500  26.5000 Du        
   3439 ****       -11.2500  13.7500  26.7500 Du        
   3440 ****       -11.2500  13.7500  27.0000 Du        
   3441 ****       -11.2500  13.7500  27.2500 Du        
   3442 ****       -11.2500  13.7500  27.5000 Du        
   3443 ****       -11.2500  13.7500  27.7500 Du        
   3444 ****       -11.2500  13.7500  28.0000 Du        
   3445 ****       -11.2500  14.0000  24.7500 Du        
   3446 ****       -11.2500  14.0000  25.0000 Du        
   3447 ****       -11.2500  14.0000  25.2500 Du        
   3448 ****       -11.2500  14.0000  25.5000 Du        
   3449 ****       -11.2500  14.0000  25.7500 Du        
   3450 ****       -11.2500  14.0000  26.0000 Du        
   3451 ****       -11.2500  14.0000  26.2500 Du        
   3452 ****       -11.2500  14.0000  26.5000 Du        
   3453 ****       -11.2500  14.0000  26.7500 Du        
   3454 ****       -11.2500  14.0000  27.0000 Du        
   3455 ****       -11.2500  14.0000  27.2500 Du        
   3456 ****       -11.2500  14.0000  27.5000 Du        
   3457 ****       -11.2500  14.0000  27.7500 Du        
   3458 ****       -11.2500  14.2500  26.7500 Du        
   3459 ****       -11.2500  14.2500  27.0000 Du        
   3460 ****       -11.2500  14.2500  27.2500 Du        
   3461 ****       -11.2500  14.2500  27.5000 Du        
   3462 ****       -11.2500  14.2500  27.7500 Du        
   3463 ****       -11.2500  20.7500  33.0000 Du        
   3464 ****       -11.2500  20.7500  33.2500 Du        
   3465 ****       -11.0000  -1.0000   4.7500 Du        
   3466 ****       -11.0000  -1.0000   5.0000 Du        
   3467 ****       -11.0000  -1.0000   5.2500 Du        
   3468 ****       -11.0000  -1.0000   5.5000 Du        
   3469 ****       -11.0000  -0.7500   3.2500 Du        
   3470 ****       -11.0000  -0.7500   3.5000 Du        
   3471 ****       -11.0000  -0.7500   3.7500 Du        
   3472 ****       -11.0000  -0.7500   4.0000 Du        
   3473 ****       -11.0000  -0.7500   4.2500 Du        
   3474 ****       -11.0000  -0.7500   4.5000 Du        
   3475 ****       -11.0000  -0.7500   4.7500 Du        
   3476 ****       -11.0000  -0.7500   5.0000 Du        
   3477 ****       -11.0000  -0.7500   5.2500 Du        
   3478 ****       -11.0000  -0.7500   5.5000 Du        
   3479 ****       -11.0000  -0.7500   5.7500 Du        
   3480 ****       -11.0000  -0.5000   2.7500 Du        
   3481 ****       -11.0000  -0.5000   3.0000 Du        
   3482 ****       -11.0000  -0.5000   3.2500 Du        
   3483 ****       -11.0000  -0.5000   3.5000 Du        
   3484 ****       -11.0000  -0.5000   3.7500 Du        
   3485 ****       -11.0000  -0.5000   4.0000 Du        
   3486 ****       -11.0000  -0.5000   4.2500 Du        
   3487 ****       -11.0000  -0.5000   4.5000 Du        
   3488 ****       -11.0000  -0.5000   4.7500 Du        
   3489 ****       -11.0000  -0.5000   5.0000 Du        
   3490 ****       -11.0000  -0.5000   5.2500 Du        
   3491 ****       -11.0000  -0.5000   5.5000 Du        
   3492 ****       -11.0000  -0.5000   5.7500 Du        
   3493 ****       -11.0000  -0.2500   2.7500 Du        
   3494 ****       -11.0000  -0.2500   3.0000 Du        
   3495 ****       -11.0000  -0.2500   3.2500 Du        
   3496 ****       -11.0000  -0.2500   3.5000 Du        
   3497 ****       -11.0000  -0.2500   3.7500 Du        
   3498 ****       -11.0000  -0.2500   4.0000 Du        
   3499 ****       -11.0000  -0.2500   4.2500 Du        
   3500 ****       -11.0000  -0.2500   4.5000 Du        
   3501 ****       -11.0000  -0.2500   4.7500 Du        
   3502 ****       -11.0000  -0.2500   5.0000 Du        
   3503 ****       -11.0000  -0.2500   5.2500 Du        
   3504 ****       -11.0000  -0.2500   5.5000 Du        
   3505 ****       -11.0000  -0.2500   5.7500 Du        
   3506 ****       -11.0000   0.0000   3.0000 Du        
   3507 ****       -11.0000   0.0000   3.2500 Du        
   3508 ****       -11.0000   0.0000   3.5000 Du        
   3509 ****       -11.0000   0.0000   3.7500 Du        
   3510 ****       -11.0000   0.0000   4.0000 Du        
   3511 ****       -11.0000   0.0000   4.2500 Du        
   3512 ****       -11.0000   0.0000   4.5000 Du        
   3513 ****       -11.0000   0.0000   4.7500 Du        
   3514 ****       -11.0000   0.0000   5.0000 Du        
   3515 ****       -11.0000   0.0000   5.2500 Du        
   3516 ****       -11.0000   0.0000   5.5000 Du        
   3517 ****       -11.0000   0.0000   5.7500 Du        
   3518 ****       -11.0000   0.2500   3.5000 Du        
   3519 ****       -11.0000   0.2500   3.7500 Du        
   3520 ****       -11.0000   0.2500   4.0000 Du        
   3521 ****       -11.0000   0.2500   4.2500 Du        
   3522 ****       -11.0000   0.2500   4.5000 Du        
   3523 ****       -11.0000   0.2500   4.7500 Du        
   3524 ****       -11.0000   0.2500   5.0000 Du        
   3525 ****       -11.0000   0.2500   5.2500 Du        
   3526 ****       -11.0000   0.2500   5.5000 Du        
   3527 ****       -11.0000   0.2500   5.7500 Du        
   3528 ****       -11.0000   0.5000   3.7500 Du        
   3529 ****       -11.0000   0.5000   4.0000 Du        
   3530 ****       -11.0000   0.5000   4.2500 Du        
   3531 ****       -11.0000   0.5000   4.5000 Du        
   3532 ****       -11.0000   0.5000   4.7500 Du        
   3533 ****       -11.0000   0.5000   5.0000 Du        
   3534 ****       -11.0000   0.5000   5.2500 Du        
   3535 ****       -11.0000   0.5000   5.5000 Du        
   3536 ****       -11.0000   0.7500   4.0000 Du        
   3537 ****       -11.0000   0.7500   4.2500 Du        
   3538 ****       -11.0000   0.7500   4.5000 Du        
   3539 ****       -11.0000   0.7500   4.7500 Du        
   3540 ****       -11.0000   0.7500   5.0000 Du        
   3541 ****       -11.0000   0.7500   5.2500 Du        
   3542 ****       -11.0000   0.7500   5.5000 Du        
   3543 ****       -11.0000   1.0000   4.5000 Du        
   3544 ****       -11.0000   1.0000   4.7500 Du        
   3545 ****       -11.0000   1.0000   5.0000 Du        
   3546 ****       -11.0000   1.0000   5.2500 Du        
   3547 ****       -11.0000   1.2500   4.7500 Du        
   3548 ****       -11.0000   1.2500   5.0000 Du        
   3549 ****       -11.0000   1.2500   5.2500 Du        
   3550 ****       -11.0000   2.0000  17.0000 Du        
   3551 ****       -11.0000   2.0000  17.2500 Du        
   3552 ****       -11.0000   2.0000  17.5000 Du        
   3553 ****       -11.0000   2.0000  17.7500 Du        
   3554 ****       -11.0000   2.0000  18.0000 Du        
   3555 ****       -11.0000   2.2500  16.7500 Du        
   3556 ****       -11.0000   2.2500  17.0000 Du        
   3557 ****       -11.0000   2.2500  17.2500 Du        
   3558 ****       -11.0000   2.2500  17.5000 Du        
   3559 ****       -11.0000   2.2500  17.7500 Du        
   3560 ****       -11.0000   2.2500  18.0000 Du        
   3561 ****       -11.0000   2.5000  16.7500 Du        
   3562 ****       -11.0000   2.5000  17.0000 Du        
   3563 ****       -11.0000   2.5000  17.2500 Du        
   3564 ****       -11.0000   2.5000  17.5000 Du        
   3565 ****       -11.0000   2.5000  17.7500 Du        
   3566 ****       -11.0000   2.7500  16.7500 Du        
   3567 ****       -11.0000   2.7500  17.0000 Du        
   3568 ****       -11.0000   2.7500  17.2500 Du        
   3569 ****       -11.0000   2.7500  17.5000 Du        
   3570 ****       -11.0000   3.0000  17.0000 Du        
   3571 ****       -11.0000   3.0000  17.2500 Du        
   3572 ****       -11.0000   7.0000  22.7500 Du        
   3573 ****       -11.0000   7.2500  22.2500 Du        
   3574 ****       -11.0000   7.5000  22.0000 Du        
   3575 ****       -11.0000   7.5000  22.2500 Du        
   3576 ****       -11.0000   7.5000  22.5000 Du        
   3577 ****       -11.0000   7.7500  22.0000 Du        
   3578 ****       -11.0000   7.7500  22.2500 Du        
   3579 ****       -11.0000   8.0000  21.7500 Du        
   3580 ****       -11.0000   8.0000  22.0000 Du        
   3581 ****       -11.0000  11.0000  11.5000 Du        
   3582 ****       -11.0000  11.0000  11.7500 Du        
   3583 ****       -11.0000  11.0000  12.0000 Du        
   3584 ****       -11.0000  11.0000  12.2500 Du        
   3585 ****       -11.0000  11.0000  12.5000 Du        
   3586 ****       -11.0000  11.2500  11.5000 Du        
   3587 ****       -11.0000  11.2500  11.7500 Du        
   3588 ****       -11.0000  11.2500  12.0000 Du        
   3589 ****       -11.0000  11.2500  12.2500 Du        
   3590 ****       -11.0000  11.2500  12.5000 Du        
   3591 ****       -11.0000  11.5000  11.5000 Du        
   3592 ****       -11.0000  11.5000  11.7500 Du        
   3593 ****       -11.0000  11.5000  12.0000 Du        
   3594 ****       -11.0000  11.5000  12.2500 Du        
   3595 ****       -11.0000  12.5000  28.0000 Du        
   3596 ****       -11.0000  12.5000  28.2500 Du        
   3597 ****       -11.0000  12.7500  27.5000 Du        
   3598 ****       -11.0000  12.7500  27.7500 Du        
   3599 ****       -11.0000  12.7500  28.0000 Du        
   3600 ****       -11.0000  12.7500  28.2500 Du        
   3601 ****       -11.0000  13.0000  26.7500 Du        
   3602 ****       -11.0000  13.0000  27.0000 Du        
   3603 ****       -11.0000  13.0000  27.2500 Du        
   3604 ****       -11.0000  13.0000  27.5000 Du        
   3605 ****       -11.0000  13.0000  27.7500 Du        
   3606 ****       -11.0000  13.0000  28.0000 Du        
   3607 ****       -11.0000  13.0000  28.2500 Du        
   3608 ****       -11.0000  13.2500  26.5000 Du        
   3609 ****       -11.0000  13.2500  26.7500 Du        
   3610 ****       -11.0000  13.2500  27.0000 Du        
   3611 ****       -11.0000  13.2500  27.2500 Du        
   3612 ****       -11.0000  13.2500  27.5000 Du        
   3613 ****       -11.0000  13.2500  27.7500 Du        
   3614 ****       -11.0000  13.2500  28.0000 Du        
   3615 ****       -11.0000  13.2500  28.2500 Du        
   3616 ****       -11.0000  13.5000  25.7500 Du        
   3617 ****       -11.0000  13.5000  26.0000 Du        
   3618 ****       -11.0000  13.5000  26.2500 Du        
   3619 ****       -11.0000  13.5000  26.5000 Du        
   3620 ****       -11.0000  13.5000  26.7500 Du        
   3621 ****       -11.0000  13.5000  27.0000 Du        
   3622 ****       -11.0000  13.5000  27.2500 Du        
   3623 ****       -11.0000  13.5000  27.5000 Du        
   3624 ****       -11.0000  13.5000  27.7500 Du        
   3625 ****       -11.0000  13.5000  28.0000 Du        
   3626 ****       -11.0000  13.7500  25.2500 Du        
   3627 ****       -11.0000  13.7500  25.5000 Du        
   3628 ****       -11.0000  13.7500  25.7500 Du        
   3629 ****       -11.0000  13.7500  26.0000 Du        
   3630 ****       -11.0000  13.7500  26.2500 Du        
   3631 ****       -11.0000  13.7500  26.5000 Du        
   3632 ****       -11.0000  13.7500  26.7500 Du        
   3633 ****       -11.0000  13.7500  27.0000 Du        
   3634 ****       -11.0000  13.7500  27.2500 Du        
   3635 ****       -11.0000  13.7500  27.5000 Du        
   3636 ****       -11.0000  13.7500  27.7500 Du        
   3637 ****       -11.0000  13.7500  28.0000 Du        
   3638 ****       -11.0000  14.0000  25.0000 Du        
   3639 ****       -11.0000  14.0000  25.2500 Du        
   3640 ****       -11.0000  14.0000  25.5000 Du        
   3641 ****       -11.0000  14.0000  25.7500 Du        
   3642 ****       -11.0000  14.0000  26.0000 Du        
   3643 ****       -11.0000  14.0000  26.2500 Du        
   3644 ****       -11.0000  14.0000  26.5000 Du        
   3645 ****       -11.0000  14.0000  26.7500 Du        
   3646 ****       -11.0000  14.0000  27.0000 Du        
   3647 ****       -11.0000  14.0000  27.2500 Du        
   3648 ****       -11.0000  14.0000  27.5000 Du        
   3649 ****       -11.0000  14.0000  27.7500 Du        
   3650 ****       -11.0000  14.2500  25.0000 Du        
   3651 ****       -11.0000  14.2500  25.2500 Du        
   3652 ****       -11.0000  14.2500  26.7500 Du        
   3653 ****       -11.0000  14.2500  27.0000 Du        
   3654 ****       -11.0000  14.2500  27.2500 Du        
   3655 ****       -11.0000  14.2500  27.5000 Du        
   3656 ****       -11.0000  14.2500  27.7500 Du        
   3657 ****       -11.0000  20.7500  33.2500 Du        
   3658 ****       -11.0000  20.7500  33.5000 Du        
   3659 ****       -10.7500  -1.0000   4.2500 Du        
   3660 ****       -10.7500  -1.0000   4.5000 Du        
   3661 ****       -10.7500  -1.0000   4.7500 Du        
   3662 ****       -10.7500  -1.0000   5.0000 Du        
   3663 ****       -10.7500  -1.0000   5.2500 Du        
   3664 ****       -10.7500  -1.0000   5.5000 Du        
   3665 ****       -10.7500  -0.7500   3.2500 Du        
   3666 ****       -10.7500  -0.7500   3.5000 Du        
   3667 ****       -10.7500  -0.7500   3.7500 Du        
   3668 ****       -10.7500  -0.7500   4.0000 Du        
   3669 ****       -10.7500  -0.7500   4.2500 Du        
   3670 ****       -10.7500  -0.7500   4.5000 Du        
   3671 ****       -10.7500  -0.7500   4.7500 Du        
   3672 ****       -10.7500  -0.7500   5.0000 Du        
   3673 ****       -10.7500  -0.7500   5.2500 Du        
   3674 ****       -10.7500  -0.7500   5.5000 Du        
   3675 ****       -10.7500  -0.7500   5.7500 Du        
   3676 ****       -10.7500  -0.5000   2.7500 Du        
   3677 ****       -10.7500  -0.5000   3.0000 Du        
   3678 ****       -10.7500  -0.5000   3.2500 Du        
   3679 ****       -10.7500  -0.5000   3.5000 Du        
   3680 ****       -10.7500  -0.5000   3.7500 Du        
   3681 ****       -10.7500  -0.5000   4.0000 Du        
   3682 ****       -10.7500  -0.5000   4.2500 Du        
   3683 ****       -10.7500  -0.5000   4.5000 Du        
   3684 ****       -10.7500  -0.5000   4.7500 Du        
   3685 ****       -10.7500  -0.5000   5.0000 Du        
   3686 ****       -10.7500  -0.5000   5.2500 Du        
   3687 ****       -10.7500  -0.5000   5.5000 Du        
   3688 ****       -10.7500  -0.5000   5.7500 Du        
   3689 ****       -10.7500  -0.2500   3.0000 Du        
   3690 ****       -10.7500  -0.2500   3.2500 Du        
   3691 ****       -10.7500  -0.2500   3.5000 Du        
   3692 ****       -10.7500  -0.2500   3.7500 Du        
   3693 ****       -10.7500  -0.2500   4.0000 Du        
   3694 ****       -10.7500  -0.2500   4.2500 Du        
   3695 ****       -10.7500  -0.2500   4.5000 Du        
   3696 ****       -10.7500  -0.2500   4.7500 Du        
   3697 ****       -10.7500  -0.2500   5.0000 Du        
   3698 ****       -10.7500  -0.2500   5.2500 Du        
   3699 ****       -10.7500  -0.2500   5.5000 Du        
   3700 ****       -10.7500  -0.2500   5.7500 Du        
   3701 ****       -10.7500   0.0000   3.0000 Du        
   3702 ****       -10.7500   0.0000   3.2500 Du        
   3703 ****       -10.7500   0.0000   3.5000 Du        
   3704 ****       -10.7500   0.0000   3.7500 Du        
   3705 ****       -10.7500   0.0000   4.0000 Du        
   3706 ****       -10.7500   0.0000   4.2500 Du        
   3707 ****       -10.7500   0.0000   4.5000 Du        
   3708 ****       -10.7500   0.0000   4.7500 Du        
   3709 ****       -10.7500   0.0000   5.0000 Du        
   3710 ****       -10.7500   0.0000   5.2500 Du        
   3711 ****       -10.7500   0.0000   5.5000 Du        
   3712 ****       -10.7500   0.0000   5.7500 Du        
   3713 ****       -10.7500   0.2500   3.5000 Du        
   3714 ****       -10.7500   0.2500   3.7500 Du        
   3715 ****       -10.7500   0.2500   4.0000 Du        
   3716 ****       -10.7500   0.2500   4.2500 Du        
   3717 ****       -10.7500   0.2500   4.5000 Du        
   3718 ****       -10.7500   0.2500   4.7500 Du        
   3719 ****       -10.7500   0.2500   5.0000 Du        
   3720 ****       -10.7500   0.2500   5.2500 Du        
   3721 ****       -10.7500   0.2500   5.5000 Du        
   3722 ****       -10.7500   0.5000   3.7500 Du        
   3723 ****       -10.7500   0.5000   4.0000 Du        
   3724 ****       -10.7500   0.5000   4.2500 Du        
   3725 ****       -10.7500   0.5000   4.5000 Du        
   3726 ****       -10.7500   0.5000   4.7500 Du        
   3727 ****       -10.7500   0.5000   5.0000 Du        
   3728 ****       -10.7500   0.5000   5.2500 Du        
   3729 ****       -10.7500   0.5000   5.5000 Du        
   3730 ****       -10.7500   0.7500   4.0000 Du        
   3731 ****       -10.7500   0.7500   4.2500 Du        
   3732 ****       -10.7500   0.7500   4.5000 Du        
   3733 ****       -10.7500   0.7500   4.7500 Du        
   3734 ****       -10.7500   0.7500   5.0000 Du        
   3735 ****       -10.7500   0.7500   5.2500 Du        
   3736 ****       -10.7500   1.0000   4.5000 Du        
   3737 ****       -10.7500   1.0000   4.7500 Du        
   3738 ****       -10.7500   1.0000   5.0000 Du        
   3739 ****       -10.7500   1.0000   5.2500 Du        
   3740 ****       -10.7500   1.2500   4.7500 Du        
   3741 ****       -10.7500   1.2500   5.0000 Du        
   3742 ****       -10.7500   1.2500   5.2500 Du        
   3743 ****       -10.7500   2.2500  17.0000 Du        
   3744 ****       -10.7500   2.2500  17.2500 Du        
   3745 ****       -10.7500   2.2500  17.5000 Du        
   3746 ****       -10.7500   2.5000  17.0000 Du        
   3747 ****       -10.7500   2.5000  17.2500 Du        
   3748 ****       -10.7500   2.7500  17.0000 Du        
   3749 ****       -10.7500   2.7500  17.2500 Du        
   3750 ****       -10.7500   7.0000  22.7500 Du        
   3751 ****       -10.7500   7.5000  22.2500 Du        
   3752 ****       -10.7500  12.5000  28.0000 Du        
   3753 ****       -10.7500  12.5000  28.2500 Du        
   3754 ****       -10.7500  12.7500  27.7500 Du        
   3755 ****       -10.7500  12.7500  28.0000 Du        
   3756 ****       -10.7500  12.7500  28.2500 Du        
   3757 ****       -10.7500  13.0000  27.0000 Du        
   3758 ****       -10.7500  13.0000  27.2500 Du        
   3759 ****       -10.7500  13.0000  27.5000 Du        
   3760 ****       -10.7500  13.0000  27.7500 Du        
   3761 ****       -10.7500  13.0000  28.0000 Du        
   3762 ****       -10.7500  13.0000  28.2500 Du        
   3763 ****       -10.7500  13.2500  26.7500 Du        
   3764 ****       -10.7500  13.2500  27.0000 Du        
   3765 ****       -10.7500  13.2500  27.2500 Du        
   3766 ****       -10.7500  13.2500  27.5000 Du        
   3767 ****       -10.7500  13.2500  27.7500 Du        
   3768 ****       -10.7500  13.2500  28.0000 Du        
   3769 ****       -10.7500  13.2500  28.2500 Du        
   3770 ****       -10.7500  13.5000  26.2500 Du        
   3771 ****       -10.7500  13.5000  26.5000 Du        
   3772 ****       -10.7500  13.5000  26.7500 Du        
   3773 ****       -10.7500  13.5000  27.0000 Du        
   3774 ****       -10.7500  13.5000  27.2500 Du        
   3775 ****       -10.7500  13.5000  27.5000 Du        
   3776 ****       -10.7500  13.5000  27.7500 Du        
   3777 ****       -10.7500  13.5000  28.0000 Du        
   3778 ****       -10.7500  13.7500  25.7500 Du        
   3779 ****       -10.7500  13.7500  26.0000 Du        
   3780 ****       -10.7500  13.7500  26.2500 Du        
   3781 ****       -10.7500  13.7500  26.5000 Du        
   3782 ****       -10.7500  13.7500  26.7500 Du        
   3783 ****       -10.7500  13.7500  27.0000 Du        
   3784 ****       -10.7500  13.7500  27.2500 Du        
   3785 ****       -10.7500  13.7500  27.5000 Du        
   3786 ****       -10.7500  13.7500  27.7500 Du        
   3787 ****       -10.7500  13.7500  28.0000 Du        
   3788 ****       -10.7500  14.0000  25.2500 Du        
   3789 ****       -10.7500  14.0000  25.5000 Du        
   3790 ****       -10.7500  14.0000  25.7500 Du        
   3791 ****       -10.7500  14.0000  26.0000 Du        
   3792 ****       -10.7500  14.0000  26.2500 Du        
   3793 ****       -10.7500  14.0000  26.5000 Du        
   3794 ****       -10.7500  14.0000  26.7500 Du        
   3795 ****       -10.7500  14.0000  27.0000 Du        
   3796 ****       -10.7500  14.0000  27.2500 Du        
   3797 ****       -10.7500  14.0000  27.5000 Du        
   3798 ****       -10.7500  14.0000  27.7500 Du        
   3799 ****       -10.7500  14.2500  25.0000 Du        
   3800 ****       -10.7500  14.2500  25.2500 Du        
   3801 ****       -10.7500  14.2500  25.5000 Du        
   3802 ****       -10.7500  14.2500  25.7500 Du        
   3803 ****       -10.7500  14.2500  26.0000 Du        
   3804 ****       -10.7500  14.2500  26.2500 Du        
   3805 ****       -10.7500  14.2500  26.5000 Du        
   3806 ****       -10.7500  14.2500  26.7500 Du        
   3807 ****       -10.7500  14.2500  27.0000 Du        
   3808 ****       -10.7500  14.2500  27.2500 Du        
   3809 ****       -10.7500  14.2500  27.5000 Du        
   3810 ****       -10.7500  14.2500  27.7500 Du        
   3811 ****       -10.7500  20.7500  33.7500 Du        
   3812 ****       -10.5000  -1.0000   4.0000 Du        
   3813 ****       -10.5000  -1.0000   4.2500 Du        
   3814 ****       -10.5000  -1.0000   4.5000 Du        
   3815 ****       -10.5000  -1.0000   4.7500 Du        
   3816 ****       -10.5000  -1.0000   5.0000 Du        
   3817 ****       -10.5000  -1.0000   5.2500 Du        
   3818 ****       -10.5000  -1.0000   5.5000 Du        
   3819 ****       -10.5000  -0.7500   3.0000 Du        
   3820 ****       -10.5000  -0.7500   3.2500 Du        
   3821 ****       -10.5000  -0.7500   3.5000 Du        
   3822 ****       -10.5000  -0.7500   3.7500 Du        
   3823 ****       -10.5000  -0.7500   4.0000 Du        
   3824 ****       -10.5000  -0.7500   4.2500 Du        
   3825 ****       -10.5000  -0.7500   4.5000 Du        
   3826 ****       -10.5000  -0.7500   4.7500 Du        
   3827 ****       -10.5000  -0.7500   5.0000 Du        
   3828 ****       -10.5000  -0.7500   5.2500 Du        
   3829 ****       -10.5000  -0.7500   5.5000 Du        
   3830 ****       -10.5000  -0.5000   3.2500 Du        
   3831 ****       -10.5000  -0.5000   3.5000 Du        
   3832 ****       -10.5000  -0.5000   3.7500 Du        
   3833 ****       -10.5000  -0.5000   4.0000 Du        
   3834 ****       -10.5000  -0.5000   4.2500 Du        
   3835 ****       -10.5000  -0.5000   4.5000 Du        
   3836 ****       -10.5000  -0.5000   4.7500 Du        
   3837 ****       -10.5000  -0.5000   5.0000 Du        
   3838 ****       -10.5000  -0.5000   5.2500 Du        
   3839 ****       -10.5000  -0.5000   5.5000 Du        
   3840 ****       -10.5000  -0.2500   3.2500 Du        
   3841 ****       -10.5000  -0.2500   3.5000 Du        
   3842 ****       -10.5000  -0.2500   3.7500 Du        
   3843 ****       -10.5000  -0.2500   4.0000 Du        
   3844 ****       -10.5000  -0.2500   4.2500 Du        
   3845 ****       -10.5000  -0.2500   4.5000 Du        
   3846 ****       -10.5000  -0.2500   4.7500 Du        
   3847 ****       -10.5000  -0.2500   5.0000 Du        
   3848 ****       -10.5000  -0.2500   5.2500 Du        
   3849 ****       -10.5000  -0.2500   5.5000 Du        
   3850 ****       -10.5000   0.0000   3.5000 Du        
   3851 ****       -10.5000   0.0000   3.7500 Du        
   3852 ****       -10.5000   0.0000   4.0000 Du        
   3853 ****       -10.5000   0.0000   4.2500 Du        
   3854 ****       -10.5000   0.0000   4.5000 Du        
   3855 ****       -10.5000   0.0000   4.7500 Du        
   3856 ****       -10.5000   0.0000   5.0000 Du        
   3857 ****       -10.5000   0.0000   5.2500 Du        
   3858 ****       -10.5000   0.0000   5.5000 Du        
   3859 ****       -10.5000   0.2500   3.5000 Du        
   3860 ****       -10.5000   0.2500   3.7500 Du        
   3861 ****       -10.5000   0.2500   4.0000 Du        
   3862 ****       -10.5000   0.2500   4.2500 Du        
   3863 ****       -10.5000   0.2500   4.5000 Du        
   3864 ****       -10.5000   0.2500   4.7500 Du        
   3865 ****       -10.5000   0.2500   5.0000 Du        
   3866 ****       -10.5000   0.2500   5.2500 Du        
   3867 ****       -10.5000   0.2500   5.5000 Du        
   3868 ****       -10.5000   0.5000   4.5000 Du        
   3869 ****       -10.5000   0.5000   4.7500 Du        
   3870 ****       -10.5000   0.5000   5.0000 Du        
   3871 ****       -10.5000   0.5000   5.2500 Du        
   3872 ****       -10.5000   0.7500   4.5000 Du        
   3873 ****       -10.5000   0.7500   4.7500 Du        
   3874 ****       -10.5000   0.7500   5.0000 Du        
   3875 ****       -10.5000   0.7500   5.2500 Du        
   3876 ****       -10.5000   1.0000   4.7500 Du        
   3877 ****       -10.5000   1.0000   5.0000 Du        
   3878 ****       -10.5000   1.0000   5.2500 Du        
   3879 ****       -10.5000   1.2500   5.0000 Du        
   3880 ****       -10.5000   6.5000  23.0000 Du        
   3881 ****       -10.5000   6.7500  22.7500 Du        
   3882 ****       -10.5000   6.7500  23.0000 Du        
   3883 ****       -10.5000   7.0000  22.7500 Du        
   3884 ****       -10.5000  12.5000  28.2500 Du        
   3885 ****       -10.5000  12.7500  27.7500 Du        
   3886 ****       -10.5000  12.7500  28.0000 Du        
   3887 ****       -10.5000  12.7500  28.2500 Du        
   3888 ****       -10.5000  13.0000  27.2500 Du        
   3889 ****       -10.5000  13.0000  27.5000 Du        
   3890 ****       -10.5000  13.0000  27.7500 Du        
   3891 ****       -10.5000  13.0000  28.0000 Du        
   3892 ****       -10.5000  13.0000  28.2500 Du        
   3893 ****       -10.5000  13.2500  27.0000 Du        
   3894 ****       -10.5000  13.2500  27.2500 Du        
   3895 ****       -10.5000  13.2500  27.5000 Du        
   3896 ****       -10.5000  13.2500  27.7500 Du        
   3897 ****       -10.5000  13.2500  28.0000 Du        
   3898 ****       -10.5000  13.2500  28.2500 Du        
   3899 ****       -10.5000  13.5000  26.5000 Du        
   3900 ****       -10.5000  13.5000  26.7500 Du        
   3901 ****       -10.5000  13.5000  27.0000 Du        
   3902 ****       -10.5000  13.5000  27.2500 Du        
   3903 ****       -10.5000  13.5000  27.5000 Du        
   3904 ****       -10.5000  13.5000  27.7500 Du        
   3905 ****       -10.5000  13.5000  28.0000 Du        
   3906 ****       -10.5000  13.7500  26.0000 Du        
   3907 ****       -10.5000  13.7500  26.2500 Du        
   3908 ****       -10.5000  13.7500  26.5000 Du        
   3909 ****       -10.5000  13.7500  26.7500 Du        
   3910 ****       -10.5000  13.7500  27.0000 Du        
   3911 ****       -10.5000  13.7500  27.2500 Du        
   3912 ****       -10.5000  13.7500  27.5000 Du        
   3913 ****       -10.5000  13.7500  27.7500 Du        
   3914 ****       -10.5000  13.7500  28.0000 Du        
   3915 ****       -10.5000  14.0000  25.7500 Du        
   3916 ****       -10.5000  14.0000  26.0000 Du        
   3917 ****       -10.5000  14.0000  26.2500 Du        
   3918 ****       -10.5000  14.0000  26.5000 Du        
   3919 ****       -10.5000  14.0000  26.7500 Du        
   3920 ****       -10.5000  14.0000  27.0000 Du        
   3921 ****       -10.5000  14.0000  27.2500 Du        
   3922 ****       -10.5000  14.0000  27.5000 Du        
   3923 ****       -10.5000  14.0000  27.7500 Du        
   3924 ****       -10.5000  14.2500  25.5000 Du        
   3925 ****       -10.5000  14.2500  25.7500 Du        
   3926 ****       -10.5000  14.2500  26.0000 Du        
   3927 ****       -10.5000  14.2500  26.2500 Du        
   3928 ****       -10.5000  14.2500  26.5000 Du        
   3929 ****       -10.5000  14.2500  26.7500 Du        
   3930 ****       -10.5000  14.2500  27.0000 Du        
   3931 ****       -10.5000  14.2500  27.2500 Du        
   3932 ****       -10.5000  14.2500  27.5000 Du        
   3933 ****       -10.5000  14.2500  27.7500 Du        
   3934 ****       -10.5000  20.7500  34.0000 Du        
   3935 ****       -10.5000  20.7500  34.2500 Du        
   3936 ****       -10.2500  -1.2500   4.7500 Du        
   3937 ****       -10.2500  -1.2500   5.0000 Du        
   3938 ****       -10.2500  -1.2500   5.2500 Du        
   3939 ****       -10.2500  -1.0000   3.5000 Du        
   3940 ****       -10.2500  -1.0000   3.7500 Du        
   3941 ****       -10.2500  -1.0000   4.0000 Du        
   3942 ****       -10.2500  -1.0000   4.2500 Du        
   3943 ****       -10.2500  -1.0000   4.5000 Du        
   3944 ****       -10.2500  -1.0000   4.7500 Du        
   3945 ****       -10.2500  -1.0000   5.0000 Du        
   3946 ****       -10.2500  -1.0000   5.2500 Du        
   3947 ****       -10.2500  -1.0000   5.5000 Du        
   3948 ****       -10.2500  -0.7500   2.7500 Du        
   3949 ****       -10.2500  -0.7500   3.0000 Du        
   3950 ****       -10.2500  -0.7500   3.2500 Du        
   3951 ****       -10.2500  -0.7500   3.5000 Du        
   3952 ****       -10.2500  -0.7500   3.7500 Du        
   3953 ****       -10.2500  -0.7500   4.0000 Du        
   3954 ****       -10.2500  -0.7500   4.2500 Du        
   3955 ****       -10.2500  -0.7500   4.5000 Du        
   3956 ****       -10.2500  -0.7500   4.7500 Du        
   3957 ****       -10.2500  -0.7500   5.0000 Du        
   3958 ****       -10.2500  -0.7500   5.2500 Du        
   3959 ****       -10.2500  -0.7500   5.5000 Du        
   3960 ****       -10.2500  -0.5000   3.2500 Du        
   3961 ****       -10.2500  -0.5000   3.5000 Du        
   3962 ****       -10.2500  -0.5000   3.7500 Du        
   3963 ****       -10.2500  -0.5000   4.0000 Du        
   3964 ****       -10.2500  -0.5000   4.2500 Du        
   3965 ****       -10.2500  -0.5000   4.5000 Du        
   3966 ****       -10.2500  -0.5000   4.7500 Du        
   3967 ****       -10.2500  -0.5000   5.0000 Du        
   3968 ****       -10.2500  -0.5000   5.2500 Du        
   3969 ****       -10.2500  -0.5000   5.5000 Du        
   3970 ****       -10.2500  -0.2500   3.2500 Du        
   3971 ****       -10.2500  -0.2500   3.5000 Du        
   3972 ****       -10.2500  -0.2500   3.7500 Du        
   3973 ****       -10.2500  -0.2500   4.0000 Du        
   3974 ****       -10.2500  -0.2500   4.2500 Du        
   3975 ****       -10.2500  -0.2500   4.5000 Du        
   3976 ****       -10.2500  -0.2500   4.7500 Du        
   3977 ****       -10.2500  -0.2500   5.0000 Du        
   3978 ****       -10.2500  -0.2500   5.2500 Du        
   3979 ****       -10.2500  -0.2500   5.5000 Du        
   3980 ****       -10.2500   0.0000   3.5000 Du        
   3981 ****       -10.2500   0.0000   3.7500 Du        
   3982 ****       -10.2500   0.0000   4.0000 Du        
   3983 ****       -10.2500   0.0000   4.2500 Du        
   3984 ****       -10.2500   0.0000   4.5000 Du        
   3985 ****       -10.2500   0.0000   4.7500 Du        
   3986 ****       -10.2500   0.0000   5.0000 Du        
   3987 ****       -10.2500   0.0000   5.2500 Du        
   3988 ****       -10.2500   0.0000   5.5000 Du        
   3989 ****       -10.2500   0.2500   3.5000 Du        
   3990 ****       -10.2500   0.2500   3.7500 Du        
   3991 ****       -10.2500   0.2500   4.0000 Du        
   3992 ****       -10.2500   0.2500   4.2500 Du        
   3993 ****       -10.2500   0.2500   4.5000 Du        
   3994 ****       -10.2500   0.2500   4.7500 Du        
   3995 ****       -10.2500   0.2500   5.0000 Du        
   3996 ****       -10.2500   0.2500   5.2500 Du        
   3997 ****       -10.2500   0.2500   5.5000 Du        
   3998 ****       -10.2500   0.5000   4.5000 Du        
   3999 ****       -10.2500   0.5000   4.7500 Du        
   4000 ****       -10.2500   0.5000   5.0000 Du        
   4001 ****       -10.2500   0.5000   5.2500 Du        
   4002 ****       -10.2500   0.7500   4.5000 Du        
   4003 ****       -10.2500   0.7500   4.7500 Du        
   4004 ****       -10.2500   0.7500   5.0000 Du        
   4005 ****       -10.2500   0.7500   5.2500 Du        
   4006 ****       -10.2500   1.0000   4.7500 Du        
   4007 ****       -10.2500   1.0000   5.0000 Du        
   4008 ****       -10.2500   6.0000  23.2500 Du        
   4009 ****       -10.2500   6.2500  23.2500 Du        
   4010 ****       -10.2500   6.5000  23.0000 Du        
   4011 ****       -10.2500   6.5000  23.2500 Du        
   4012 ****       -10.2500   6.7500  23.0000 Du        
   4013 ****       -10.2500   7.0000  22.7500 Du        
   4014 ****       -10.2500  12.5000  28.2500 Du        
   4015 ****       -10.2500  12.7500  27.7500 Du        
   4016 ****       -10.2500  12.7500  28.0000 Du        
   4017 ****       -10.2500  12.7500  28.2500 Du        
   4018 ****       -10.2500  12.7500  28.5000 Du        
   4019 ****       -10.2500  13.0000  27.5000 Du        
   4020 ****       -10.2500  13.0000  27.7500 Du        
   4021 ****       -10.2500  13.0000  28.0000 Du        
   4022 ****       -10.2500  13.0000  28.2500 Du        
   4023 ****       -10.2500  13.2500  27.0000 Du        
   4024 ****       -10.2500  13.2500  27.2500 Du        
   4025 ****       -10.2500  13.2500  27.5000 Du        
   4026 ****       -10.2500  13.2500  27.7500 Du        
   4027 ****       -10.2500  13.2500  28.0000 Du        
   4028 ****       -10.2500  13.2500  28.2500 Du        
   4029 ****       -10.2500  13.5000  26.7500 Du        
   4030 ****       -10.2500  13.5000  27.0000 Du        
   4031 ****       -10.2500  13.5000  27.2500 Du        
   4032 ****       -10.2500  13.5000  27.5000 Du        
   4033 ****       -10.2500  13.5000  27.7500 Du        
   4034 ****       -10.2500  13.5000  28.0000 Du        
   4035 ****       -10.2500  13.7500  26.2500 Du        
   4036 ****       -10.2500  13.7500  26.5000 Du        
   4037 ****       -10.2500  13.7500  26.7500 Du        
   4038 ****       -10.2500  13.7500  27.0000 Du        
   4039 ****       -10.2500  13.7500  27.2500 Du        
   4040 ****       -10.2500  13.7500  27.5000 Du        
   4041 ****       -10.2500  13.7500  27.7500 Du        
   4042 ****       -10.2500  13.7500  28.0000 Du        
   4043 ****       -10.2500  14.0000  26.0000 Du        
   4044 ****       -10.2500  14.0000  26.2500 Du        
   4045 ****       -10.2500  14.0000  26.5000 Du        
   4046 ****       -10.2500  14.0000  26.7500 Du        
   4047 ****       -10.2500  14.0000  27.0000 Du        
   4048 ****       -10.2500  14.0000  27.2500 Du        
   4049 ****       -10.2500  14.0000  27.5000 Du        
   4050 ****       -10.2500  14.0000  27.7500 Du        
   4051 ****       -10.2500  14.2500  25.7500 Du        
   4052 ****       -10.2500  14.2500  26.0000 Du        
   4053 ****       -10.2500  14.2500  26.2500 Du        
   4054 ****       -10.2500  14.2500  26.5000 Du        
   4055 ****       -10.2500  14.2500  26.7500 Du        
   4056 ****       -10.2500  14.2500  27.0000 Du        
   4057 ****       -10.2500  14.2500  27.2500 Du        
   4058 ****       -10.2500  14.2500  27.5000 Du        
   4059 ****       -10.2500  14.2500  27.7500 Du        
   4060 ****       -10.2500  14.5000  27.2500 Du        
   4061 ****       -10.2500  20.0000  35.0000 Du        
   4062 ****       -10.2500  20.2500  34.7500 Du        
   4063 ****       -10.2500  20.7500  34.2500 Du        
   4064 ****       -10.2500  20.7500  34.5000 Du        
   4065 ****       -10.2500  20.7500  34.7500 Du        
   4066 ****       -10.2500  20.7500  35.0000 Du        
   4067 ****       -10.0000  -1.2500   4.2500 Du        
   4068 ****       -10.0000  -1.2500   4.5000 Du        
   4069 ****       -10.0000  -1.2500   4.7500 Du        
   4070 ****       -10.0000  -1.2500   5.0000 Du        
   4071 ****       -10.0000  -1.2500   5.2500 Du        
   4072 ****       -10.0000  -1.0000   3.0000 Du        
   4073 ****       -10.0000  -1.0000   3.2500 Du        
   4074 ****       -10.0000  -1.0000   3.5000 Du        
   4075 ****       -10.0000  -1.0000   3.7500 Du        
   4076 ****       -10.0000  -1.0000   4.0000 Du        
   4077 ****       -10.0000  -1.0000   4.2500 Du        
   4078 ****       -10.0000  -1.0000   4.5000 Du        
   4079 ****       -10.0000  -1.0000   4.7500 Du        
   4080 ****       -10.0000  -1.0000   5.0000 Du        
   4081 ****       -10.0000  -1.0000   5.2500 Du        
   4082 ****       -10.0000  -1.0000   5.5000 Du        
   4083 ****       -10.0000  -0.7500   2.7500 Du        
   4084 ****       -10.0000  -0.7500   3.0000 Du        
   4085 ****       -10.0000  -0.7500   3.2500 Du        
   4086 ****       -10.0000  -0.7500   3.5000 Du        
   4087 ****       -10.0000  -0.7500   3.7500 Du        
   4088 ****       -10.0000  -0.7500   4.0000 Du        
   4089 ****       -10.0000  -0.7500   4.2500 Du        
   4090 ****       -10.0000  -0.7500   4.5000 Du        
   4091 ****       -10.0000  -0.7500   4.7500 Du        
   4092 ****       -10.0000  -0.7500   5.0000 Du        
   4093 ****       -10.0000  -0.7500   5.2500 Du        
   4094 ****       -10.0000  -0.7500   5.5000 Du        
   4095 ****       -10.0000  -0.5000   3.0000 Du        
   4096 ****       -10.0000  -0.5000   3.2500 Du        
   4097 ****       -10.0000  -0.5000   3.5000 Du        
   4098 ****       -10.0000  -0.5000   3.7500 Du        
   4099 ****       -10.0000  -0.5000   4.0000 Du        
   4100 ****       -10.0000  -0.5000   4.2500 Du        
   4101 ****       -10.0000  -0.5000   4.5000 Du        
   4102 ****       -10.0000  -0.5000   4.7500 Du        
   4103 ****       -10.0000  -0.5000   5.0000 Du        
   4104 ****       -10.0000  -0.5000   5.2500 Du        
   4105 ****       -10.0000  -0.5000   5.5000 Du        
   4106 ****       -10.0000  -0.2500   3.2500 Du        
   4107 ****       -10.0000  -0.2500   3.5000 Du        
   4108 ****       -10.0000  -0.2500   3.7500 Du        
   4109 ****       -10.0000  -0.2500   4.0000 Du        
   4110 ****       -10.0000  -0.2500   4.2500 Du        
   4111 ****       -10.0000  -0.2500   4.5000 Du        
   4112 ****       -10.0000  -0.2500   4.7500 Du        
   4113 ****       -10.0000  -0.2500   5.0000 Du        
   4114 ****       -10.0000  -0.2500   5.2500 Du        
   4115 ****       -10.0000  -0.2500   5.5000 Du        
   4116 ****       -10.0000   0.0000   3.5000 Du        
   4117 ****       -10.0000   0.0000   3.7500 Du        
   4118 ****       -10.0000   0.0000   4.0000 Du        
   4119 ****       -10.0000   0.0000   4.2500 Du        
   4120 ****       -10.0000   0.0000   4.5000 Du        
   4121 ****       -10.0000   0.0000   4.7500 Du        
   4122 ****       -10.0000   0.0000   5.0000 Du        
   4123 ****       -10.0000   0.0000   5.2500 Du        
   4124 ****       -10.0000   0.0000   5.5000 Du        
   4125 ****       -10.0000   0.2500   3.7500 Du        
   4126 ****       -10.0000   0.2500   4.0000 Du        
   4127 ****       -10.0000   0.2500   4.2500 Du        
   4128 ****       -10.0000   0.2500   4.5000 Du        
   4129 ****       -10.0000   0.2500   4.7500 Du        
   4130 ****       -10.0000   0.2500   5.0000 Du        
   4131 ****       -10.0000   0.2500   5.2500 Du        
   4132 ****       -10.0000   0.5000   4.5000 Du        
   4133 ****       -10.0000   0.5000   4.7500 Du        
   4134 ****       -10.0000   0.5000   5.0000 Du        
   4135 ****       -10.0000   0.5000   5.2500 Du        
   4136 ****       -10.0000   0.7500   4.7500 Du        
   4137 ****       -10.0000   0.7500   5.0000 Du        
   4138 ****       -10.0000   0.7500   5.2500 Du        
   4139 ****       -10.0000   1.0000   5.0000 Du        
   4140 ****       -10.0000   5.5000  23.2500 Du        
   4141 ****       -10.0000   5.7500  23.2500 Du        
   4142 ****       -10.0000   6.0000  23.0000 Du        
   4143 ****       -10.0000   6.0000  23.2500 Du        
   4144 ****       -10.0000   6.0000  23.5000 Du        
   4145 ****       -10.0000   6.2500  23.0000 Du        
   4146 ****       -10.0000   6.2500  23.2500 Du        
   4147 ****       -10.0000   6.5000  23.0000 Du        
   4148 ****       -10.0000   6.5000  23.2500 Du        
   4149 ****       -10.0000   6.7500  23.0000 Du        
   4150 ****       -10.0000  12.5000  28.2500 Du        
   4151 ****       -10.0000  12.7500  28.0000 Du        
   4152 ****       -10.0000  12.7500  28.2500 Du        
   4153 ****       -10.0000  12.7500  28.5000 Du        
   4154 ****       -10.0000  13.0000  27.5000 Du        
   4155 ****       -10.0000  13.0000  27.7500 Du        
   4156 ****       -10.0000  13.0000  28.0000 Du        
   4157 ****       -10.0000  13.0000  28.2500 Du        
   4158 ****       -10.0000  13.2500  27.0000 Du        
   4159 ****       -10.0000  13.2500  27.2500 Du        
   4160 ****       -10.0000  13.2500  27.5000 Du        
   4161 ****       -10.0000  13.2500  27.7500 Du        
   4162 ****       -10.0000  13.2500  28.0000 Du        
   4163 ****       -10.0000  13.2500  28.2500 Du        
   4164 ****       -10.0000  13.5000  26.7500 Du        
   4165 ****       -10.0000  13.5000  27.0000 Du        
   4166 ****       -10.0000  13.5000  27.2500 Du        
   4167 ****       -10.0000  13.5000  27.5000 Du        
   4168 ****       -10.0000  13.5000  27.7500 Du        
   4169 ****       -10.0000  13.5000  28.0000 Du        
   4170 ****       -10.0000  13.5000  28.2500 Du        
   4171 ****       -10.0000  13.7500  26.5000 Du        
   4172 ****       -10.0000  13.7500  26.7500 Du        
   4173 ****       -10.0000  13.7500  27.0000 Du        
   4174 ****       -10.0000  13.7500  27.2500 Du        
   4175 ****       -10.0000  13.7500  27.5000 Du        
   4176 ****       -10.0000  13.7500  27.7500 Du        
   4177 ****       -10.0000  13.7500  28.0000 Du        
   4178 ****       -10.0000  14.0000  26.2500 Du        
   4179 ****       -10.0000  14.0000  26.5000 Du        
   4180 ****       -10.0000  14.0000  26.7500 Du        
   4181 ****       -10.0000  14.0000  27.0000 Du        
   4182 ****       -10.0000  14.0000  27.2500 Du        
   4183 ****       -10.0000  14.0000  27.5000 Du        
   4184 ****       -10.0000  14.0000  27.7500 Du        
   4185 ****       -10.0000  14.0000  28.0000 Du        
   4186 ****       -10.0000  14.2500  26.0000 Du        
   4187 ****       -10.0000  14.2500  26.2500 Du        
   4188 ****       -10.0000  14.2500  26.5000 Du        
   4189 ****       -10.0000  14.2500  26.7500 Du        
   4190 ****       -10.0000  14.2500  27.0000 Du        
   4191 ****       -10.0000  14.2500  27.2500 Du        
   4192 ****       -10.0000  14.2500  27.5000 Du        
   4193 ****       -10.0000  14.2500  27.7500 Du        
   4194 ****       -10.0000  14.5000  27.0000 Du        
   4195 ****       -10.0000  14.5000  27.2500 Du        
   4196 ****       -10.0000  14.5000  27.5000 Du        
   4197 ****       -10.0000  14.5000  27.7500 Du        
   4198 ****       -10.0000  19.5000  35.2500 Du        
   4199 ****       -10.0000  19.7500  35.0000 Du        
   4200 ****       -10.0000  19.7500  35.2500 Du        
   4201 ****       -10.0000  20.0000  34.7500 Du        
   4202 ****       -10.0000  20.0000  35.0000 Du        
   4203 ****       -10.0000  20.0000  35.2500 Du        
   4204 ****       -10.0000  20.2500  34.7500 Du        
   4205 ****       -10.0000  20.2500  35.0000 Du        
   4206 ****       -10.0000  20.2500  35.2500 Du        
   4207 ****       -10.0000  20.5000  34.7500 Du        
   4208 ****       -10.0000  20.5000  35.0000 Du        
   4209 ****       -10.0000  20.5000  35.2500 Du        
   4210 ****       -10.0000  20.5000  35.5000 Du        
   4211 ****       -10.0000  20.7500  34.7500 Du        
   4212 ****       -10.0000  20.7500  35.0000 Du        
   4213 ****       -10.0000  20.7500  35.2500 Du        
   4214 ****       -10.0000  20.7500  35.5000 Du        
   4215 ****        -9.7500  -1.2500   4.2500 Du        
   4216 ****        -9.7500  -1.2500   4.5000 Du        
   4217 ****        -9.7500  -1.2500   4.7500 Du        
   4218 ****        -9.7500  -1.2500   5.0000 Du        
   4219 ****        -9.7500  -1.2500   5.2500 Du        
   4220 ****        -9.7500  -1.0000   3.0000 Du        
   4221 ****        -9.7500  -1.0000   3.2500 Du        
   4222 ****        -9.7500  -1.0000   3.5000 Du        
   4223 ****        -9.7500  -1.0000   3.7500 Du        
   4224 ****        -9.7500  -1.0000   4.0000 Du        
   4225 ****        -9.7500  -1.0000   4.2500 Du        
   4226 ****        -9.7500  -1.0000   4.5000 Du        
   4227 ****        -9.7500  -1.0000   4.7500 Du        
   4228 ****        -9.7500  -1.0000   5.0000 Du        
   4229 ****        -9.7500  -1.0000   5.2500 Du        
   4230 ****        -9.7500  -0.7500   3.0000 Du        
   4231 ****        -9.7500  -0.7500   3.2500 Du        
   4232 ****        -9.7500  -0.7500   3.5000 Du        
   4233 ****        -9.7500  -0.7500   3.7500 Du        
   4234 ****        -9.7500  -0.7500   4.0000 Du        
   4235 ****        -9.7500  -0.7500   4.2500 Du        
   4236 ****        -9.7500  -0.7500   4.5000 Du        
   4237 ****        -9.7500  -0.7500   4.7500 Du        
   4238 ****        -9.7500  -0.7500   5.0000 Du        
   4239 ****        -9.7500  -0.7500   5.2500 Du        
   4240 ****        -9.7500  -0.5000   3.2500 Du        
   4241 ****        -9.7500  -0.5000   3.5000 Du        
   4242 ****        -9.7500  -0.5000   3.7500 Du        
   4243 ****        -9.7500  -0.5000   4.0000 Du        
   4244 ****        -9.7500  -0.5000   4.2500 Du        
   4245 ****        -9.7500  -0.5000   4.5000 Du        
   4246 ****        -9.7500  -0.5000   4.7500 Du        
   4247 ****        -9.7500  -0.5000   5.0000 Du        
   4248 ****        -9.7500  -0.5000   5.2500 Du        
   4249 ****        -9.7500  -0.2500   3.2500 Du        
   4250 ****        -9.7500  -0.2500   3.5000 Du        
   4251 ****        -9.7500  -0.2500   3.7500 Du        
   4252 ****        -9.7500  -0.2500   4.0000 Du        
   4253 ****        -9.7500  -0.2500   4.2500 Du        
   4254 ****        -9.7500  -0.2500   4.5000 Du        
   4255 ****        -9.7500  -0.2500   4.7500 Du        
   4256 ****        -9.7500  -0.2500   5.0000 Du        
   4257 ****        -9.7500  -0.2500   5.2500 Du        
   4258 ****        -9.7500   0.0000   3.7500 Du        
   4259 ****        -9.7500   0.0000   4.0000 Du        
   4260 ****        -9.7500   0.0000   4.2500 Du        
   4261 ****        -9.7500   0.0000   4.5000 Du        
   4262 ****        -9.7500   0.0000   4.7500 Du        
   4263 ****        -9.7500   0.0000   5.0000 Du        
   4264 ****        -9.7500   0.0000   5.2500 Du        
   4265 ****        -9.7500   0.2500   4.0000 Du        
   4266 ****        -9.7500   0.2500   4.2500 Du        
   4267 ****        -9.7500   0.2500   4.5000 Du        
   4268 ****        -9.7500   0.2500   4.7500 Du        
   4269 ****        -9.7500   0.2500   5.0000 Du        
   4270 ****        -9.7500   0.2500   5.2500 Du        
   4271 ****        -9.7500   0.5000   4.5000 Du        
   4272 ****        -9.7500   0.5000   4.7500 Du        
   4273 ****        -9.7500   0.5000   5.0000 Du        
   4274 ****        -9.7500   0.5000   5.2500 Du        
   4275 ****        -9.7500   5.5000  23.2500 Du        
   4276 ****        -9.7500   5.5000  23.5000 Du        
   4277 ****        -9.7500   5.7500  23.2500 Du        
   4278 ****        -9.7500   5.7500  23.5000 Du        
   4279 ****        -9.7500   6.0000  23.2500 Du        
   4280 ****        -9.7500   6.2500  23.2500 Du        
   4281 ****        -9.7500  12.7500  28.0000 Du        
   4282 ****        -9.7500  12.7500  28.2500 Du        
   4283 ****        -9.7500  12.7500  28.5000 Du        
   4284 ****        -9.7500  13.0000  27.7500 Du        
   4285 ****        -9.7500  13.0000  28.0000 Du        
   4286 ****        -9.7500  13.0000  28.2500 Du        
   4287 ****        -9.7500  13.0000  28.5000 Du        
   4288 ****        -9.7500  13.2500  27.2500 Du        
   4289 ****        -9.7500  13.2500  27.5000 Du        
   4290 ****        -9.7500  13.2500  27.7500 Du        
   4291 ****        -9.7500  13.2500  28.0000 Du        
   4292 ****        -9.7500  13.2500  28.2500 Du        
   4293 ****        -9.7500  13.5000  27.0000 Du        
   4294 ****        -9.7500  13.5000  27.2500 Du        
   4295 ****        -9.7500  13.5000  27.5000 Du        
   4296 ****        -9.7500  13.5000  27.7500 Du        
   4297 ****        -9.7500  13.5000  28.0000 Du        
   4298 ****        -9.7500  13.5000  28.2500 Du        
   4299 ****        -9.7500  13.7500  26.7500 Du        
   4300 ****        -9.7500  13.7500  27.0000 Du        
   4301 ****        -9.7500  13.7500  27.2500 Du        
   4302 ****        -9.7500  13.7500  27.5000 Du        
   4303 ****        -9.7500  13.7500  27.7500 Du        
   4304 ****        -9.7500  13.7500  28.0000 Du        
   4305 ****        -9.7500  14.0000  26.2500 Du        
   4306 ****        -9.7500  14.0000  26.5000 Du        
   4307 ****        -9.7500  14.0000  26.7500 Du        
   4308 ****        -9.7500  14.0000  27.0000 Du        
   4309 ****        -9.7500  14.0000  27.2500 Du        
   4310 ****        -9.7500  14.0000  27.5000 Du        
   4311 ****        -9.7500  14.0000  27.7500 Du        
   4312 ****        -9.7500  14.0000  28.0000 Du        
   4313 ****        -9.7500  14.2500  26.2500 Du        
   4314 ****        -9.7500  14.2500  26.5000 Du        
   4315 ****        -9.7500  14.2500  26.7500 Du        
   4316 ****        -9.7500  14.2500  27.0000 Du        
   4317 ****        -9.7500  14.2500  27.2500 Du        
   4318 ****        -9.7500  14.2500  27.5000 Du        
   4319 ****        -9.7500  14.2500  27.7500 Du        
   4320 ****        -9.7500  14.5000  26.2500 Du        
   4321 ****        -9.7500  14.5000  26.5000 Du        
   4322 ****        -9.7500  14.5000  26.7500 Du        
   4323 ****        -9.7500  14.5000  27.0000 Du        
   4324 ****        -9.7500  14.5000  27.2500 Du        
   4325 ****        -9.7500  14.5000  27.5000 Du        
   4326 ****        -9.7500  14.5000  27.7500 Du        
   4327 ****        -9.7500  19.5000  35.2500 Du        
   4328 ****        -9.7500  19.7500  35.2500 Du        
   4329 ****        -9.7500  20.0000  35.0000 Du        
   4330 ****        -9.7500  20.0000  35.2500 Du        
   4331 ****        -9.7500  20.2500  35.0000 Du        
   4332 ****        -9.7500  20.2500  35.2500 Du        
   4333 ****        -9.7500  20.5000  35.0000 Du        
   4334 ****        -9.7500  20.5000  35.2500 Du        
   4335 ****        -9.7500  20.5000  35.5000 Du        
   4336 ****        -9.7500  20.5000  35.7500 Du        
   4337 ****        -9.7500  20.7500  34.7500 Du        
   4338 ****        -9.7500  20.7500  35.0000 Du        
   4339 ****        -9.7500  20.7500  35.2500 Du        
   4340 ****        -9.7500  20.7500  35.5000 Du        
   4341 ****        -9.7500  20.7500  35.7500 Du        
   4342 ****        -9.7500  20.7500  36.0000 Du        
   4343 ****        -9.5000  -1.2500   4.2500 Du        
   4344 ****        -9.5000  -1.2500   4.5000 Du        
   4345 ****        -9.5000  -1.2500   4.7500 Du        
   4346 ****        -9.5000  -1.2500   5.0000 Du        
   4347 ****        -9.5000  -1.2500   5.2500 Du        
   4348 ****        -9.5000  -1.0000   3.5000 Du        
   4349 ****        -9.5000  -1.0000   3.7500 Du        
   4350 ****        -9.5000  -1.0000   4.0000 Du        
   4351 ****        -9.5000  -1.0000   4.2500 Du        
   4352 ****        -9.5000  -1.0000   4.5000 Du        
   4353 ****        -9.5000  -1.0000   4.7500 Du        
   4354 ****        -9.5000  -1.0000   5.0000 Du        
   4355 ****        -9.5000  -1.0000   5.2500 Du        
   4356 ****        -9.5000  -0.7500   3.0000 Du        
   4357 ****        -9.5000  -0.7500   3.2500 Du        
   4358 ****        -9.5000  -0.7500   3.5000 Du        
   4359 ****        -9.5000  -0.7500   3.7500 Du        
   4360 ****        -9.5000  -0.7500   4.0000 Du        
   4361 ****        -9.5000  -0.7500   4.2500 Du        
   4362 ****        -9.5000  -0.7500   4.5000 Du        
   4363 ****        -9.5000  -0.7500   4.7500 Du        
   4364 ****        -9.5000  -0.7500   5.0000 Du        
   4365 ****        -9.5000  -0.7500   5.2500 Du        
   4366 ****        -9.5000  -0.5000   3.5000 Du        
   4367 ****        -9.5000  -0.5000   3.7500 Du        
   4368 ****        -9.5000  -0.5000   4.0000 Du        
   4369 ****        -9.5000  -0.5000   4.2500 Du        
   4370 ****        -9.5000  -0.5000   4.5000 Du        
   4371 ****        -9.5000  -0.5000   4.7500 Du        
   4372 ****        -9.5000  -0.5000   5.0000 Du        
   4373 ****        -9.5000  -0.5000   5.2500 Du        
   4374 ****        -9.5000  -0.2500   3.7500 Du        
   4375 ****        -9.5000  -0.2500   4.0000 Du        
   4376 ****        -9.5000  -0.2500   4.2500 Du        
   4377 ****        -9.5000  -0.2500   4.5000 Du        
   4378 ****        -9.5000  -0.2500   4.7500 Du        
   4379 ****        -9.5000  -0.2500   5.0000 Du        
   4380 ****        -9.5000  -0.2500   5.2500 Du        
   4381 ****        -9.5000   0.0000   3.7500 Du        
   4382 ****        -9.5000   0.0000   4.0000 Du        
   4383 ****        -9.5000   0.0000   4.2500 Du        
   4384 ****        -9.5000   0.0000   4.5000 Du        
   4385 ****        -9.5000   0.0000   4.7500 Du        
   4386 ****        -9.5000   0.0000   5.0000 Du        
   4387 ****        -9.5000   0.2500   4.2500 Du        
   4388 ****        -9.5000   0.2500   4.5000 Du        
   4389 ****        -9.5000   0.2500   4.7500 Du        
   4390 ****        -9.5000   0.2500   5.0000 Du        
   4391 ****        -9.5000   5.5000  23.5000 Du        
   4392 ****        -9.5000   5.5000  23.7500 Du        
   4393 ****        -9.5000  12.5000  28.5000 Du        
   4394 ****        -9.5000  12.7500  28.0000 Du        
   4395 ****        -9.5000  12.7500  28.2500 Du        
   4396 ****        -9.5000  12.7500  28.5000 Du        
   4397 ****        -9.5000  13.0000  27.7500 Du        
   4398 ****        -9.5000  13.0000  28.0000 Du        
   4399 ****        -9.5000  13.0000  28.2500 Du        
   4400 ****        -9.5000  13.0000  28.5000 Du        
   4401 ****        -9.5000  13.2500  27.5000 Du        
   4402 ****        -9.5000  13.2500  27.7500 Du        
   4403 ****        -9.5000  13.2500  28.0000 Du        
   4404 ****        -9.5000  13.2500  28.2500 Du        
   4405 ****        -9.5000  13.5000  27.0000 Du        
   4406 ****        -9.5000  13.5000  27.2500 Du        
   4407 ****        -9.5000  13.5000  27.5000 Du        
   4408 ****        -9.5000  13.5000  27.7500 Du        
   4409 ****        -9.5000  13.5000  28.0000 Du        
   4410 ****        -9.5000  13.5000  28.2500 Du        
   4411 ****        -9.5000  13.7500  26.7500 Du        
   4412 ****        -9.5000  13.7500  27.0000 Du        
   4413 ****        -9.5000  13.7500  27.2500 Du        
   4414 ****        -9.5000  13.7500  27.5000 Du        
   4415 ****        -9.5000  13.7500  27.7500 Du        
   4416 ****        -9.5000  13.7500  28.0000 Du        
   4417 ****        -9.5000  13.7500  28.2500 Du        
   4418 ****        -9.5000  14.0000  26.5000 Du        
   4419 ****        -9.5000  14.0000  26.7500 Du        
   4420 ****        -9.5000  14.0000  27.0000 Du        
   4421 ****        -9.5000  14.0000  27.2500 Du        
   4422 ****        -9.5000  14.0000  27.5000 Du        
   4423 ****        -9.5000  14.0000  27.7500 Du        
   4424 ****        -9.5000  14.0000  28.0000 Du        
   4425 ****        -9.5000  14.2500  26.2500 Du        
   4426 ****        -9.5000  14.2500  26.5000 Du        
   4427 ****        -9.5000  14.2500  26.7500 Du        
   4428 ****        -9.5000  14.2500  27.0000 Du        
   4429 ****        -9.5000  14.2500  27.2500 Du        
   4430 ****        -9.5000  14.2500  27.5000 Du        
   4431 ****        -9.5000  14.2500  27.7500 Du        
   4432 ****        -9.5000  14.2500  28.0000 Du        
   4433 ****        -9.5000  14.5000  26.2500 Du        
   4434 ****        -9.5000  14.5000  26.5000 Du        
   4435 ****        -9.5000  14.5000  26.7500 Du        
   4436 ****        -9.5000  14.5000  27.0000 Du        
   4437 ****        -9.5000  14.5000  27.2500 Du        
   4438 ****        -9.5000  14.5000  27.5000 Du        
   4439 ****        -9.5000  14.5000  27.7500 Du        
   4440 ****        -9.5000  14.5000  28.0000 Du        
   4441 ****        -9.5000  14.7500  27.2500 Du        
   4442 ****        -9.5000  14.7500  27.5000 Du        
   4443 ****        -9.5000  14.7500  27.7500 Du        
   4444 ****        -9.5000  19.5000  35.2500 Du        
   4445 ****        -9.5000  19.5000  35.5000 Du        
   4446 ****        -9.5000  19.7500  35.2500 Du        
   4447 ****        -9.5000  19.7500  35.5000 Du        
   4448 ****        -9.5000  19.7500  35.7500 Du        
   4449 ****        -9.5000  19.7500  36.0000 Du        
   4450 ****        -9.5000  20.0000  35.2500 Du        
   4451 ****        -9.5000  20.0000  35.5000 Du        
   4452 ****        -9.5000  20.0000  35.7500 Du        
   4453 ****        -9.5000  20.0000  36.0000 Du        
   4454 ****        -9.5000  20.0000  36.2500 Du        
   4455 ****        -9.5000  20.2500  35.0000 Du        
   4456 ****        -9.5000  20.2500  35.2500 Du        
   4457 ****        -9.5000  20.2500  35.5000 Du        
   4458 ****        -9.5000  20.2500  35.7500 Du        
   4459 ****        -9.5000  20.2500  36.0000 Du        
   4460 ****        -9.5000  20.2500  36.2500 Du        
   4461 ****        -9.5000  20.5000  35.0000 Du        
   4462 ****        -9.5000  20.5000  35.2500 Du        
   4463 ****        -9.5000  20.5000  35.5000 Du        
   4464 ****        -9.5000  20.5000  35.7500 Du        
   4465 ****        -9.5000  20.5000  36.0000 Du        
   4466 ****        -9.5000  20.5000  36.2500 Du        
   4467 ****        -9.5000  20.7500  35.0000 Du        
   4468 ****        -9.5000  20.7500  35.2500 Du        
   4469 ****        -9.5000  20.7500  35.5000 Du        
   4470 ****        -9.5000  20.7500  35.7500 Du        
   4471 ****        -9.5000  20.7500  36.0000 Du        
   4472 ****        -9.5000  20.7500  36.2500 Du        
   4473 ****        -9.2500  -1.2500   4.5000 Du        
   4474 ****        -9.2500  -1.2500   4.7500 Du        
   4475 ****        -9.2500  -1.2500   5.0000 Du        
   4476 ****        -9.2500  -1.0000   3.5000 Du        
   4477 ****        -9.2500  -1.0000   3.7500 Du        
   4478 ****        -9.2500  -1.0000   4.0000 Du        
   4479 ****        -9.2500  -1.0000   4.2500 Du        
   4480 ****        -9.2500  -1.0000   4.5000 Du        
   4481 ****        -9.2500  -1.0000   4.7500 Du        
   4482 ****        -9.2500  -1.0000   5.0000 Du        
   4483 ****        -9.2500  -1.0000   5.2500 Du        
   4484 ****        -9.2500  -0.7500   3.0000 Du        
   4485 ****        -9.2500  -0.7500   3.2500 Du        
   4486 ****        -9.2500  -0.7500   3.5000 Du        
   4487 ****        -9.2500  -0.7500   3.7500 Du        
   4488 ****        -9.2500  -0.7500   4.0000 Du        
   4489 ****        -9.2500  -0.7500   4.2500 Du        
   4490 ****        -9.2500  -0.7500   4.5000 Du        
   4491 ****        -9.2500  -0.7500   4.7500 Du        
   4492 ****        -9.2500  -0.7500   5.0000 Du        
   4493 ****        -9.2500  -0.5000   3.5000 Du        
   4494 ****        -9.2500  -0.5000   3.7500 Du        
   4495 ****        -9.2500  -0.5000   4.0000 Du        
   4496 ****        -9.2500  -0.5000   4.2500 Du        
   4497 ****        -9.2500  -0.5000   4.5000 Du        
   4498 ****        -9.2500  -0.5000   4.7500 Du        
   4499 ****        -9.2500  -0.5000   5.0000 Du        
   4500 ****        -9.2500  -0.2500   3.5000 Du        
   4501 ****        -9.2500  -0.2500   3.7500 Du        
   4502 ****        -9.2500  -0.2500   4.0000 Du        
   4503 ****        -9.2500  -0.2500   4.2500 Du        
   4504 ****        -9.2500  -0.2500   4.5000 Du        
   4505 ****        -9.2500  -0.2500   4.7500 Du        
   4506 ****        -9.2500  -0.2500   5.0000 Du        
   4507 ****        -9.2500   0.0000   3.7500 Du        
   4508 ****        -9.2500   0.0000   4.0000 Du        
   4509 ****        -9.2500   0.0000   4.2500 Du        
   4510 ****        -9.2500   0.0000   4.5000 Du        
   4511 ****        -9.2500   0.0000   4.7500 Du        
   4512 ****        -9.2500   0.0000   5.0000 Du        
   4513 ****        -9.2500   0.2500   4.2500 Du        
   4514 ****        -9.2500   0.2500   4.5000 Du        
   4515 ****        -9.2500   0.2500   4.7500 Du        
   4516 ****        -9.2500   0.2500   5.0000 Du        
   4517 ****        -9.2500  11.2500   9.7500 Du        
   4518 ****        -9.2500  11.5000   9.5000 Du        
   4519 ****        -9.2500  11.5000   9.7500 Du        
   4520 ****        -9.2500  11.7500   9.2500 Du        
   4521 ****        -9.2500  11.7500   9.5000 Du        
   4522 ****        -9.2500  11.7500   9.7500 Du        
   4523 ****        -9.2500  12.0000   8.7500 Du        
   4524 ****        -9.2500  12.0000   9.0000 Du        
   4525 ****        -9.2500  12.0000   9.2500 Du        
   4526 ****        -9.2500  12.0000   9.5000 Du        
   4527 ****        -9.2500  12.2500   8.7500 Du        
   4528 ****        -9.2500  12.2500   9.0000 Du        
   4529 ****        -9.2500  12.5000  28.2500 Du        
   4530 ****        -9.2500  12.5000  28.5000 Du        
   4531 ****        -9.2500  12.7500  28.0000 Du        
   4532 ****        -9.2500  12.7500  28.2500 Du        
   4533 ****        -9.2500  12.7500  28.5000 Du        
   4534 ****        -9.2500  12.7500  28.7500 Du        
   4535 ****        -9.2500  13.0000  27.7500 Du        
   4536 ****        -9.2500  13.0000  28.0000 Du        
   4537 ****        -9.2500  13.0000  28.2500 Du        
   4538 ****        -9.2500  13.0000  28.5000 Du        
   4539 ****        -9.2500  13.2500  27.2500 Du        
   4540 ****        -9.2500  13.2500  27.5000 Du        
   4541 ****        -9.2500  13.2500  27.7500 Du        
   4542 ****        -9.2500  13.2500  28.0000 Du        
   4543 ****        -9.2500  13.2500  28.2500 Du        
   4544 ****        -9.2500  13.2500  28.5000 Du        
   4545 ****        -9.2500  13.5000  27.0000 Du        
   4546 ****        -9.2500  13.5000  27.2500 Du        
   4547 ****        -9.2500  13.5000  27.5000 Du        
   4548 ****        -9.2500  13.5000  27.7500 Du        
   4549 ****        -9.2500  13.5000  28.0000 Du        
   4550 ****        -9.2500  13.5000  28.2500 Du        
   4551 ****        -9.2500  13.7500  26.7500 Du        
   4552 ****        -9.2500  13.7500  27.0000 Du        
   4553 ****        -9.2500  13.7500  27.2500 Du        
   4554 ****        -9.2500  13.7500  27.5000 Du        
   4555 ****        -9.2500  13.7500  27.7500 Du        
   4556 ****        -9.2500  13.7500  28.0000 Du        
   4557 ****        -9.2500  13.7500  28.2500 Du        
   4558 ****        -9.2500  14.0000  26.5000 Du        
   4559 ****        -9.2500  14.0000  26.7500 Du        
   4560 ****        -9.2500  14.0000  27.0000 Du        
   4561 ****        -9.2500  14.0000  27.2500 Du        
   4562 ****        -9.2500  14.0000  27.5000 Du        
   4563 ****        -9.2500  14.0000  27.7500 Du        
   4564 ****        -9.2500  14.0000  28.0000 Du        
   4565 ****        -9.2500  14.0000  28.2500 Du        
   4566 ****        -9.2500  14.2500  26.2500 Du        
   4567 ****        -9.2500  14.2500  26.5000 Du        
   4568 ****        -9.2500  14.2500  26.7500 Du        
   4569 ****        -9.2500  14.2500  27.0000 Du        
   4570 ****        -9.2500  14.2500  27.2500 Du        
   4571 ****        -9.2500  14.2500  27.5000 Du        
   4572 ****        -9.2500  14.2500  27.7500 Du        
   4573 ****        -9.2500  14.2500  28.0000 Du        
   4574 ****        -9.2500  14.5000  26.2500 Du        
   4575 ****        -9.2500  14.5000  26.5000 Du        
   4576 ****        -9.2500  14.5000  26.7500 Du        
   4577 ****        -9.2500  14.5000  27.0000 Du        
   4578 ****        -9.2500  14.5000  27.2500 Du        
   4579 ****        -9.2500  14.5000  27.5000 Du        
   4580 ****        -9.2500  14.5000  27.7500 Du        
   4581 ****        -9.2500  14.5000  28.0000 Du        
   4582 ****        -9.2500  14.7500  26.5000 Du        
   4583 ****        -9.2500  14.7500  26.7500 Du        
   4584 ****        -9.2500  14.7500  27.0000 Du        
   4585 ****        -9.2500  14.7500  27.2500 Du        
   4586 ****        -9.2500  14.7500  27.5000 Du        
   4587 ****        -9.2500  14.7500  27.7500 Du        
   4588 ****        -9.2500  14.7500  28.0000 Du        
   4589 ****        -9.2500  15.0000  27.5000 Du        
   4590 ****        -9.2500  15.0000  27.7500 Du        
   4591 ****        -9.2500  19.7500  35.7500 Du        
   4592 ****        -9.2500  19.7500  36.0000 Du        
   4593 ****        -9.2500  19.7500  36.2500 Du        
   4594 ****        -9.2500  19.7500  36.5000 Du        
   4595 ****        -9.2500  20.0000  35.2500 Du        
   4596 ****        -9.2500  20.0000  35.5000 Du        
   4597 ****        -9.2500  20.0000  35.7500 Du        
   4598 ****        -9.2500  20.0000  36.0000 Du        
   4599 ****        -9.2500  20.0000  36.2500 Du        
   4600 ****        -9.2500  20.0000  36.5000 Du        
   4601 ****        -9.2500  20.0000  36.7500 Du        
   4602 ****        -9.2500  20.0000  37.0000 Du        
   4603 ****        -9.2500  20.2500  35.2500 Du        
   4604 ****        -9.2500  20.2500  35.5000 Du        
   4605 ****        -9.2500  20.2500  35.7500 Du        
   4606 ****        -9.2500  20.2500  36.0000 Du        
   4607 ****        -9.2500  20.2500  36.2500 Du        
   4608 ****        -9.2500  20.2500  36.5000 Du        
   4609 ****        -9.2500  20.2500  36.7500 Du        
   4610 ****        -9.2500  20.5000  35.2500 Du        
   4611 ****        -9.2500  20.5000  35.5000 Du        
   4612 ****        -9.2500  20.5000  35.7500 Du        
   4613 ****        -9.2500  20.5000  36.0000 Du        
   4614 ****        -9.2500  20.5000  36.2500 Du        
   4615 ****        -9.2500  20.5000  36.5000 Du        
   4616 ****        -9.2500  20.5000  36.7500 Du        
   4617 ****        -9.2500  20.7500  35.2500 Du        
   4618 ****        -9.2500  20.7500  35.5000 Du        
   4619 ****        -9.2500  20.7500  35.7500 Du        
   4620 ****        -9.2500  20.7500  36.0000 Du        
   4621 ****        -9.2500  20.7500  36.2500 Du        
   4622 ****        -9.0000  -1.2500   4.7500 Du        
   4623 ****        -9.0000  -1.2500   5.0000 Du        
   4624 ****        -9.0000  -1.0000   4.0000 Du        
   4625 ****        -9.0000  -1.0000   4.2500 Du        
   4626 ****        -9.0000  -1.0000   4.5000 Du        
   4627 ****        -9.0000  -1.0000   4.7500 Du        
   4628 ****        -9.0000  -1.0000   5.0000 Du        
   4629 ****        -9.0000  -0.7500   3.5000 Du        
   4630 ****        -9.0000  -0.7500   3.7500 Du        
   4631 ****        -9.0000  -0.7500   4.0000 Du        
   4632 ****        -9.0000  -0.7500   4.2500 Du        
   4633 ****        -9.0000  -0.7500   4.5000 Du        
   4634 ****        -9.0000  -0.7500   4.7500 Du        
   4635 ****        -9.0000  -0.7500   5.0000 Du        
   4636 ****        -9.0000  -0.5000   3.7500 Du        
   4637 ****        -9.0000  -0.5000   4.0000 Du        
   4638 ****        -9.0000  -0.5000   4.2500 Du        
   4639 ****        -9.0000  -0.5000   4.5000 Du        
   4640 ****        -9.0000  -0.5000   4.7500 Du        
   4641 ****        -9.0000  -0.5000   5.0000 Du        
   4642 ****        -9.0000  -0.2500   3.7500 Du        
   4643 ****        -9.0000  -0.2500   4.0000 Du        
   4644 ****        -9.0000  -0.2500   4.2500 Du        
   4645 ****        -9.0000  -0.2500   4.5000 Du        
   4646 ****        -9.0000  -0.2500   4.7500 Du        
   4647 ****        -9.0000  -0.2500   5.0000 Du        
   4648 ****        -9.0000   0.0000   3.7500 Du        
   4649 ****        -9.0000   0.0000   4.0000 Du        
   4650 ****        -9.0000   0.0000   4.2500 Du        
   4651 ****        -9.0000   0.0000   4.5000 Du        
   4652 ****        -9.0000   0.0000   4.7500 Du        
   4653 ****        -9.0000   0.0000   5.0000 Du        
   4654 ****        -9.0000   0.2500   4.2500 Du        
   4655 ****        -9.0000   0.2500   4.5000 Du        
   4656 ****        -9.0000   0.2500   4.7500 Du        
   4657 ****        -9.0000  11.2500   9.5000 Du        
   4658 ****        -9.0000  11.2500   9.7500 Du        
   4659 ****        -9.0000  11.5000   9.2500 Du        
   4660 ****        -9.0000  11.5000   9.5000 Du        
   4661 ****        -9.0000  11.5000   9.7500 Du        
   4662 ****        -9.0000  11.7500   9.0000 Du        
   4663 ****        -9.0000  11.7500   9.2500 Du        
   4664 ****        -9.0000  11.7500   9.5000 Du        
   4665 ****        -9.0000  11.7500   9.7500 Du        
   4666 ****        -9.0000  12.0000   8.7500 Du        
   4667 ****        -9.0000  12.0000   9.0000 Du        
   4668 ****        -9.0000  12.0000   9.2500 Du        
   4669 ****        -9.0000  12.0000   9.5000 Du        
   4670 ****        -9.0000  12.2500   8.5000 Du        
   4671 ****        -9.0000  12.2500   8.7500 Du        
   4672 ****        -9.0000  12.2500   9.0000 Du        
   4673 ****        -9.0000  12.2500   9.2500 Du        
   4674 ****        -9.0000  12.5000   8.0000 Du        
   4675 ****        -9.0000  12.5000   8.2500 Du        
   4676 ****        -9.0000  12.5000   8.5000 Du        
   4677 ****        -9.0000  12.5000   8.7500 Du        
   4678 ****        -9.0000  12.7500  28.0000 Du        
   4679 ****        -9.0000  12.7500  28.2500 Du        
   4680 ****        -9.0000  12.7500  28.5000 Du        
   4681 ****        -9.0000  12.7500  28.7500 Du        
   4682 ****        -9.0000  13.0000  27.7500 Du        
   4683 ****        -9.0000  13.0000  28.0000 Du        
   4684 ****        -9.0000  13.0000  28.2500 Du        
   4685 ****        -9.0000  13.0000  28.5000 Du        
   4686 ****        -9.0000  13.0000  28.7500 Du        
   4687 ****        -9.0000  13.2500  27.2500 Du        
   4688 ****        -9.0000  13.2500  27.5000 Du        
   4689 ****        -9.0000  13.2500  27.7500 Du        
   4690 ****        -9.0000  13.2500  28.0000 Du        
   4691 ****        -9.0000  13.2500  28.2500 Du        
   4692 ****        -9.0000  13.2500  28.5000 Du        
   4693 ****        -9.0000  13.5000  27.0000 Du        
   4694 ****        -9.0000  13.5000  27.2500 Du        
   4695 ****        -9.0000  13.5000  27.5000 Du        
   4696 ****        -9.0000  13.5000  27.7500 Du        
   4697 ****        -9.0000  13.5000  28.0000 Du        
   4698 ****        -9.0000  13.5000  28.2500 Du        
   4699 ****        -9.0000  13.5000  28.5000 Du        
   4700 ****        -9.0000  13.7500  26.7500 Du        
   4701 ****        -9.0000  13.7500  27.0000 Du        
   4702 ****        -9.0000  13.7500  27.2500 Du        
   4703 ****        -9.0000  13.7500  27.5000 Du        
   4704 ****        -9.0000  13.7500  27.7500 Du        
   4705 ****        -9.0000  13.7500  28.0000 Du        
   4706 ****        -9.0000  13.7500  28.2500 Du        
   4707 ****        -9.0000  13.7500  28.5000 Du        
   4708 ****        -9.0000  14.0000  26.5000 Du        
   4709 ****        -9.0000  14.0000  26.7500 Du        
   4710 ****        -9.0000  14.0000  27.0000 Du        
   4711 ****        -9.0000  14.0000  27.2500 Du        
   4712 ****        -9.0000  14.0000  27.5000 Du        
   4713 ****        -9.0000  14.0000  27.7500 Du        
   4714 ****        -9.0000  14.0000  28.0000 Du        
   4715 ****        -9.0000  14.0000  28.2500 Du        
   4716 ****        -9.0000  14.2500  26.2500 Du        
   4717 ****        -9.0000  14.2500  26.5000 Du        
   4718 ****        -9.0000  14.2500  26.7500 Du        
   4719 ****        -9.0000  14.2500  27.0000 Du        
   4720 ****        -9.0000  14.2500  27.2500 Du        
   4721 ****        -9.0000  14.2500  27.5000 Du        
   4722 ****        -9.0000  14.2500  27.7500 Du        
   4723 ****        -9.0000  14.2500  28.0000 Du        
   4724 ****        -9.0000  14.2500  28.2500 Du        
   4725 ****        -9.0000  14.5000  26.2500 Du        
   4726 ****        -9.0000  14.5000  26.5000 Du        
   4727 ****        -9.0000  14.5000  26.7500 Du        
   4728 ****        -9.0000  14.5000  27.0000 Du        
   4729 ****        -9.0000  14.5000  27.2500 Du        
   4730 ****        -9.0000  14.5000  27.5000 Du        
   4731 ****        -9.0000  14.5000  27.7500 Du        
   4732 ****        -9.0000  14.5000  28.0000 Du        
   4733 ****        -9.0000  14.5000  28.2500 Du        
   4734 ****        -9.0000  14.7500  26.2500 Du        
   4735 ****        -9.0000  14.7500  26.5000 Du        
   4736 ****        -9.0000  14.7500  26.7500 Du        
   4737 ****        -9.0000  14.7500  27.0000 Du        
   4738 ****        -9.0000  14.7500  27.2500 Du        
   4739 ****        -9.0000  14.7500  27.5000 Du        
   4740 ****        -9.0000  14.7500  27.7500 Du        
   4741 ****        -9.0000  14.7500  28.0000 Du        
   4742 ****        -9.0000  15.0000  26.7500 Du        
   4743 ****        -9.0000  15.0000  27.0000 Du        
   4744 ****        -9.0000  15.0000  27.2500 Du        
   4745 ****        -9.0000  15.0000  27.5000 Du        
   4746 ****        -9.0000  15.0000  27.7500 Du        
   4747 ****        -9.0000  15.0000  28.0000 Du        
   4748 ****        -9.0000  19.5000  36.7500 Du        
   4749 ****        -9.0000  19.5000  37.0000 Du        
   4750 ****        -9.0000  19.7500  36.2500 Du        
   4751 ****        -9.0000  19.7500  36.5000 Du        
   4752 ****        -9.0000  19.7500  36.7500 Du        
   4753 ****        -9.0000  19.7500  37.0000 Du        
   4754 ****        -9.0000  20.0000  35.7500 Du        
   4755 ****        -9.0000  20.0000  36.0000 Du        
   4756 ****        -9.0000  20.0000  36.2500 Du        
   4757 ****        -9.0000  20.0000  36.5000 Du        
   4758 ****        -9.0000  20.0000  36.7500 Du        
   4759 ****        -9.0000  20.0000  37.0000 Du        
   4760 ****        -9.0000  20.0000  37.2500 Du        
   4761 ****        -9.0000  20.2500  35.7500 Du        
   4762 ****        -9.0000  20.2500  36.0000 Du        
   4763 ****        -9.0000  20.2500  36.2500 Du        
   4764 ****        -9.0000  20.2500  36.5000 Du        
   4765 ****        -9.0000  20.2500  36.7500 Du        
   4766 ****        -9.0000  20.2500  37.0000 Du        
   4767 ****        -9.0000  20.2500  37.2500 Du        
   4768 ****        -9.0000  20.5000  35.5000 Du        
   4769 ****        -9.0000  20.5000  35.7500 Du        
   4770 ****        -9.0000  20.5000  36.0000 Du        
   4771 ****        -9.0000  20.5000  36.2500 Du        
   4772 ****        -9.0000  20.5000  36.5000 Du        
   4773 ****        -9.0000  20.5000  36.7500 Du        
   4774 ****        -9.0000  20.5000  37.0000 Du        
   4775 ****        -9.0000  20.5000  37.2500 Du        
   4776 ****        -9.0000  20.7500  35.2500 Du        
   4777 ****        -9.0000  20.7500  35.5000 Du        
   4778 ****        -9.0000  20.7500  35.7500 Du        
   4779 ****        -9.0000  20.7500  36.0000 Du        
   4780 ****        -9.0000  20.7500  36.2500 Du        
   4781 ****        -9.0000  20.7500  36.5000 Du        
   4782 ****        -9.0000  20.7500  36.7500 Du        
   4783 ****        -9.0000  20.7500  37.0000 Du        
   4784 ****        -8.7500  -1.0000   4.7500 Du        
   4785 ****        -8.7500  -0.7500   3.7500 Du        
   4786 ****        -8.7500  -0.7500   4.0000 Du        
   4787 ****        -8.7500  -0.7500   4.2500 Du        
   4788 ****        -8.7500  -0.7500   4.5000 Du        
   4789 ****        -8.7500  -0.7500   4.7500 Du        
   4790 ****        -8.7500  -0.7500   5.0000 Du        
   4791 ****        -8.7500  -0.5000   4.0000 Du        
   4792 ****        -8.7500  -0.5000   4.2500 Du        
   4793 ****        -8.7500  -0.5000   4.5000 Du        
   4794 ****        -8.7500  -0.5000   4.7500 Du        
   4795 ****        -8.7500  -0.2500   4.0000 Du        
   4796 ****        -8.7500  -0.2500   4.2500 Du        
   4797 ****        -8.7500  -0.2500   4.5000 Du        
   4798 ****        -8.7500  -0.2500   4.7500 Du        
   4799 ****        -8.7500   0.0000   4.0000 Du        
   4800 ****        -8.7500   0.0000   4.2500 Du        
   4801 ****        -8.7500   0.0000   4.5000 Du        
   4802 ****        -8.7500   0.0000   4.7500 Du        
   4803 ****        -8.7500   0.2500   4.5000 Du        
   4804 ****        -8.7500   0.2500   4.7500 Du        
   4805 ****        -8.7500  11.0000   9.5000 Du        
   4806 ****        -8.7500  11.2500   9.5000 Du        
   4807 ****        -8.7500  11.2500   9.7500 Du        
   4808 ****        -8.7500  11.5000   9.2500 Du        
   4809 ****        -8.7500  11.5000   9.5000 Du        
   4810 ****        -8.7500  11.5000   9.7500 Du        
   4811 ****        -8.7500  11.7500   8.7500 Du        
   4812 ****        -8.7500  11.7500   9.0000 Du        
   4813 ****        -8.7500  11.7500   9.2500 Du        
   4814 ****        -8.7500  11.7500   9.5000 Du        
   4815 ****        -8.7500  11.7500   9.7500 Du        
   4816 ****        -8.7500  12.0000   8.5000 Du        
   4817 ****        -8.7500  12.0000   8.7500 Du        
   4818 ****        -8.7500  12.0000   9.0000 Du        
   4819 ****        -8.7500  12.0000   9.2500 Du        
   4820 ****        -8.7500  12.0000   9.5000 Du        
   4821 ****        -8.7500  12.0000   9.7500 Du        
   4822 ****        -8.7500  12.2500   8.2500 Du        
   4823 ****        -8.7500  12.2500   8.5000 Du        
   4824 ****        -8.7500  12.2500   8.7500 Du        
   4825 ****        -8.7500  12.2500   9.0000 Du        
   4826 ****        -8.7500  12.2500   9.2500 Du        
   4827 ****        -8.7500  12.2500   9.5000 Du        
   4828 ****        -8.7500  12.5000   7.7500 Du        
   4829 ****        -8.7500  12.5000   8.0000 Du        
   4830 ****        -8.7500  12.5000   8.2500 Du        
   4831 ****        -8.7500  12.5000   8.5000 Du        
   4832 ****        -8.7500  12.5000   8.7500 Du        
   4833 ****        -8.7500  12.5000   9.0000 Du        
   4834 ****        -8.7500  12.5000   9.2500 Du        
   4835 ****        -8.7500  12.7500   7.7500 Du        
   4836 ****        -8.7500  12.7500   8.0000 Du        
   4837 ****        -8.7500  12.7500   8.5000 Du        
   4838 ****        -8.7500  12.7500  27.7500 Du        
   4839 ****        -8.7500  12.7500  28.0000 Du        
   4840 ****        -8.7500  12.7500  28.2500 Du        
   4841 ****        -8.7500  12.7500  28.5000 Du        
   4842 ****        -8.7500  12.7500  28.7500 Du        
   4843 ****        -8.7500  13.0000  27.7500 Du        
   4844 ****        -8.7500  13.0000  28.0000 Du        
   4845 ****        -8.7500  13.0000  28.2500 Du        
   4846 ****        -8.7500  13.0000  28.5000 Du        
   4847 ****        -8.7500  13.0000  28.7500 Du        
   4848 ****        -8.7500  13.0000  29.0000 Du        
   4849 ****        -8.7500  13.2500  27.2500 Du        
   4850 ****        -8.7500  13.2500  27.5000 Du        
   4851 ****        -8.7500  13.2500  27.7500 Du        
   4852 ****        -8.7500  13.2500  28.0000 Du        
   4853 ****        -8.7500  13.2500  28.2500 Du        
   4854 ****        -8.7500  13.2500  28.5000 Du        
   4855 ****        -8.7500  13.2500  28.7500 Du        
   4856 ****        -8.7500  13.5000  27.0000 Du        
   4857 ****        -8.7500  13.5000  27.2500 Du        
   4858 ****        -8.7500  13.5000  27.5000 Du        
   4859 ****        -8.7500  13.5000  27.7500 Du        
   4860 ****        -8.7500  13.5000  28.0000 Du        
   4861 ****        -8.7500  13.5000  28.2500 Du        
   4862 ****        -8.7500  13.5000  28.5000 Du        
   4863 ****        -8.7500  13.5000  28.7500 Du        
   4864 ****        -8.7500  13.7500  26.7500 Du        
   4865 ****        -8.7500  13.7500  27.0000 Du        
   4866 ****        -8.7500  13.7500  27.2500 Du        
   4867 ****        -8.7500  13.7500  27.5000 Du        
   4868 ****        -8.7500  13.7500  27.7500 Du        
   4869 ****        -8.7500  13.7500  28.0000 Du        
   4870 ****        -8.7500  13.7500  28.2500 Du        
   4871 ****        -8.7500  13.7500  28.5000 Du        
   4872 ****        -8.7500  14.0000  26.5000 Du        
   4873 ****        -8.7500  14.0000  26.7500 Du        
   4874 ****        -8.7500  14.0000  27.0000 Du        
   4875 ****        -8.7500  14.0000  27.2500 Du        
   4876 ****        -8.7500  14.0000  27.5000 Du        
   4877 ****        -8.7500  14.0000  27.7500 Du        
   4878 ****        -8.7500  14.0000  28.0000 Du        
   4879 ****        -8.7500  14.0000  28.2500 Du        
   4880 ****        -8.7500  14.0000  28.5000 Du        
   4881 ****        -8.7500  14.2500  26.5000 Du        
   4882 ****        -8.7500  14.2500  26.7500 Du        
   4883 ****        -8.7500  14.2500  27.0000 Du        
   4884 ****        -8.7500  14.2500  27.2500 Du        
   4885 ****        -8.7500  14.2500  27.5000 Du        
   4886 ****        -8.7500  14.2500  27.7500 Du        
   4887 ****        -8.7500  14.2500  28.0000 Du        
   4888 ****        -8.7500  14.2500  28.2500 Du        
   4889 ****        -8.7500  14.5000  26.2500 Du        
   4890 ****        -8.7500  14.5000  26.5000 Du        
   4891 ****        -8.7500  14.5000  26.7500 Du        
   4892 ****        -8.7500  14.5000  27.0000 Du        
   4893 ****        -8.7500  14.5000  27.2500 Du        
   4894 ****        -8.7500  14.5000  27.5000 Du        
   4895 ****        -8.7500  14.5000  27.7500 Du        
   4896 ****        -8.7500  14.5000  28.0000 Du        
   4897 ****        -8.7500  14.5000  28.2500 Du        
   4898 ****        -8.7500  14.7500  26.2500 Du        
   4899 ****        -8.7500  14.7500  26.5000 Du        
   4900 ****        -8.7500  14.7500  26.7500 Du        
   4901 ****        -8.7500  14.7500  27.0000 Du        
   4902 ****        -8.7500  14.7500  27.2500 Du        
   4903 ****        -8.7500  14.7500  27.5000 Du        
   4904 ****        -8.7500  14.7500  27.7500 Du        
   4905 ****        -8.7500  14.7500  28.0000 Du        
   4906 ****        -8.7500  14.7500  28.2500 Du        
   4907 ****        -8.7500  15.0000  26.5000 Du        
   4908 ****        -8.7500  15.0000  26.7500 Du        
   4909 ****        -8.7500  15.0000  27.0000 Du        
   4910 ****        -8.7500  15.0000  27.2500 Du        
   4911 ****        -8.7500  15.0000  27.5000 Du        
   4912 ****        -8.7500  15.0000  27.7500 Du        
   4913 ****        -8.7500  15.0000  28.0000 Du        
   4914 ****        -8.7500  15.2500  27.2500 Du        
   4915 ****        -8.7500  15.2500  27.5000 Du        
   4916 ****        -8.7500  15.2500  27.7500 Du        
   4917 ****        -8.7500  19.5000  37.0000 Du        
   4918 ****        -8.7500  19.5000  37.2500 Du        
   4919 ****        -8.7500  19.7500  36.7500 Du        
   4920 ****        -8.7500  19.7500  37.0000 Du        
   4921 ****        -8.7500  19.7500  37.2500 Du        
   4922 ****        -8.7500  20.0000  36.2500 Du        
   4923 ****        -8.7500  20.0000  36.5000 Du        
   4924 ****        -8.7500  20.0000  36.7500 Du        
   4925 ****        -8.7500  20.0000  37.0000 Du        
   4926 ****        -8.7500  20.0000  37.2500 Du        
   4927 ****        -8.7500  20.2500  36.0000 Du        
   4928 ****        -8.7500  20.2500  36.2500 Du        
   4929 ****        -8.7500  20.2500  36.5000 Du        
   4930 ****        -8.7500  20.2500  36.7500 Du        
   4931 ****        -8.7500  20.2500  37.0000 Du        
   4932 ****        -8.7500  20.2500  37.2500 Du        
   4933 ****        -8.7500  20.5000  35.7500 Du        
   4934 ****        -8.7500  20.5000  36.0000 Du        
   4935 ****        -8.7500  20.5000  36.2500 Du        
   4936 ****        -8.7500  20.5000  36.5000 Du        
   4937 ****        -8.7500  20.5000  36.7500 Du        
   4938 ****        -8.7500  20.5000  37.0000 Du        
   4939 ****        -8.7500  20.5000  37.2500 Du        
   4940 ****        -8.7500  20.7500  35.7500 Du        
   4941 ****        -8.7500  20.7500  36.0000 Du        
   4942 ****        -8.7500  20.7500  36.2500 Du        
   4943 ****        -8.7500  20.7500  36.5000 Du        
   4944 ****        -8.7500  20.7500  36.7500 Du        
   4945 ****        -8.7500  20.7500  37.0000 Du        
   4946 ****        -8.5000  -0.2500   4.5000 Du        
   4947 ****        -8.5000  -0.2500   4.7500 Du        
   4948 ****        -8.5000   0.0000   4.5000 Du        
   4949 ****        -8.5000  10.7500   9.5000 Du        
   4950 ****        -8.5000  11.0000   9.2500 Du        
   4951 ****        -8.5000  11.0000   9.5000 Du        
   4952 ****        -8.5000  11.2500   9.0000 Du        
   4953 ****        -8.5000  11.2500   9.2500 Du        
   4954 ****        -8.5000  11.2500   9.5000 Du        
   4955 ****        -8.5000  11.2500   9.7500 Du        
   4956 ****        -8.5000  11.5000   9.0000 Du        
   4957 ****        -8.5000  11.5000   9.2500 Du        
   4958 ****        -8.5000  11.5000   9.5000 Du        
   4959 ****        -8.5000  11.5000   9.7500 Du        
   4960 ****        -8.5000  11.7500   8.5000 Du        
   4961 ****        -8.5000  11.7500   8.7500 Du        
   4962 ****        -8.5000  11.7500   9.0000 Du        
   4963 ****        -8.5000  11.7500   9.2500 Du        
   4964 ****        -8.5000  11.7500   9.5000 Du        
   4965 ****        -8.5000  11.7500   9.7500 Du        
   4966 ****        -8.5000  12.0000   8.5000 Du        
   4967 ****        -8.5000  12.0000   8.7500 Du        
   4968 ****        -8.5000  12.0000   9.0000 Du        
   4969 ****        -8.5000  12.0000   9.2500 Du        
   4970 ****        -8.5000  12.0000   9.5000 Du        
   4971 ****        -8.5000  12.0000   9.7500 Du        
   4972 ****        -8.5000  12.2500   8.5000 Du        
   4973 ****        -8.5000  12.2500   8.7500 Du        
   4974 ****        -8.5000  12.2500   9.0000 Du        
   4975 ****        -8.5000  12.2500   9.2500 Du        
   4976 ****        -8.5000  12.2500   9.5000 Du        
   4977 ****        -8.5000  12.5000   8.0000 Du        
   4978 ****        -8.5000  12.5000   8.2500 Du        
   4979 ****        -8.5000  12.5000   8.5000 Du        
   4980 ****        -8.5000  12.5000   8.7500 Du        
   4981 ****        -8.5000  12.5000   9.0000 Du        
   4982 ****        -8.5000  12.5000   9.2500 Du        
   4983 ****        -8.5000  12.5000   9.5000 Du        
   4984 ****        -8.5000  12.5000  28.0000 Du        
   4985 ****        -8.5000  12.5000  28.2500 Du        
   4986 ****        -8.5000  12.5000  28.5000 Du        
   4987 ****        -8.5000  12.5000  28.7500 Du        
   4988 ****        -8.5000  12.7500   8.0000 Du        
   4989 ****        -8.5000  12.7500   8.2500 Du        
   4990 ****        -8.5000  12.7500   8.5000 Du        
   4991 ****        -8.5000  12.7500   8.7500 Du        
   4992 ****        -8.5000  12.7500   9.0000 Du        
   4993 ****        -8.5000  12.7500  27.7500 Du        
   4994 ****        -8.5000  12.7500  28.0000 Du        
   4995 ****        -8.5000  12.7500  28.2500 Du        
   4996 ****        -8.5000  12.7500  28.5000 Du        
   4997 ****        -8.5000  12.7500  28.7500 Du        
   4998 ****        -8.5000  12.7500  29.0000 Du        
   4999 ****        -8.5000  13.0000  27.5000 Du        
   5000 ****        -8.5000  13.0000  27.7500 Du        
   5001 ****        -8.5000  13.0000  28.0000 Du        
   5002 ****        -8.5000  13.0000  28.2500 Du        
   5003 ****        -8.5000  13.0000  28.5000 Du        
   5004 ****        -8.5000  13.0000  28.7500 Du        
   5005 ****        -8.5000  13.0000  29.0000 Du        
   5006 ****        -8.5000  13.2500  27.5000 Du        
   5007 ****        -8.5000  13.2500  27.7500 Du        
   5008 ****        -8.5000  13.2500  28.0000 Du        
   5009 ****        -8.5000  13.2500  28.2500 Du        
   5010 ****        -8.5000  13.2500  28.5000 Du        
   5011 ****        -8.5000  13.2500  28.7500 Du        
   5012 ****        -8.5000  13.2500  29.0000 Du        
   5013 ****        -8.5000  13.5000  27.0000 Du        
   5014 ****        -8.5000  13.5000  27.2500 Du        
   5015 ****        -8.5000  13.5000  27.5000 Du        
   5016 ****        -8.5000  13.5000  27.7500 Du        
   5017 ****        -8.5000  13.5000  28.0000 Du        
   5018 ****        -8.5000  13.5000  28.2500 Du        
   5019 ****        -8.5000  13.5000  28.5000 Du        
   5020 ****        -8.5000  13.5000  28.7500 Du        
   5021 ****        -8.5000  13.5000  29.0000 Du        
   5022 ****        -8.5000  13.7500  26.7500 Du        
   5023 ****        -8.5000  13.7500  27.0000 Du        
   5024 ****        -8.5000  13.7500  27.2500 Du        
   5025 ****        -8.5000  13.7500  27.5000 Du        
   5026 ****        -8.5000  13.7500  27.7500 Du        
   5027 ****        -8.5000  13.7500  28.0000 Du        
   5028 ****        -8.5000  13.7500  28.2500 Du        
   5029 ****        -8.5000  13.7500  28.5000 Du        
   5030 ****        -8.5000  13.7500  28.7500 Du        
   5031 ****        -8.5000  14.0000  26.7500 Du        
   5032 ****        -8.5000  14.0000  27.0000 Du        
   5033 ****        -8.5000  14.0000  27.2500 Du        
   5034 ****        -8.5000  14.0000  27.5000 Du        
   5035 ****        -8.5000  14.0000  27.7500 Du        
   5036 ****        -8.5000  14.0000  28.0000 Du        
   5037 ****        -8.5000  14.0000  28.2500 Du        
   5038 ****        -8.5000  14.0000  28.5000 Du        
   5039 ****        -8.5000  14.0000  28.7500 Du        
   5040 ****        -8.5000  14.2500  26.5000 Du        
   5041 ****        -8.5000  14.2500  26.7500 Du        
   5042 ****        -8.5000  14.2500  27.0000 Du        
   5043 ****        -8.5000  14.2500  27.2500 Du        
   5044 ****        -8.5000  14.2500  27.5000 Du        
   5045 ****        -8.5000  14.2500  27.7500 Du        
   5046 ****        -8.5000  14.2500  28.0000 Du        
   5047 ****        -8.5000  14.2500  28.2500 Du        
   5048 ****        -8.5000  14.2500  28.5000 Du        
   5049 ****        -8.5000  14.5000  26.5000 Du        
   5050 ****        -8.5000  14.5000  26.7500 Du        
   5051 ****        -8.5000  14.5000  27.0000 Du        
   5052 ****        -8.5000  14.5000  27.2500 Du        
   5053 ****        -8.5000  14.5000  27.5000 Du        
   5054 ****        -8.5000  14.5000  27.7500 Du        
   5055 ****        -8.5000  14.5000  28.0000 Du        
   5056 ****        -8.5000  14.5000  28.2500 Du        
   5057 ****        -8.5000  14.5000  28.5000 Du        
   5058 ****        -8.5000  14.7500  26.7500 Du        
   5059 ****        -8.5000  14.7500  27.0000 Du        
   5060 ****        -8.5000  14.7500  27.2500 Du        
   5061 ****        -8.5000  14.7500  27.5000 Du        
   5062 ****        -8.5000  14.7500  27.7500 Du        
   5063 ****        -8.5000  14.7500  28.0000 Du        
   5064 ****        -8.5000  14.7500  28.2500 Du        
   5065 ****        -8.5000  15.0000  26.7500 Du        
   5066 ****        -8.5000  15.0000  27.0000 Du        
   5067 ****        -8.5000  15.0000  27.2500 Du        
   5068 ****        -8.5000  15.0000  27.5000 Du        
   5069 ****        -8.5000  15.0000  27.7500 Du        
   5070 ****        -8.5000  15.0000  28.0000 Du        
   5071 ****        -8.5000  15.0000  28.2500 Du        
   5072 ****        -8.5000  15.2500  27.0000 Du        
   5073 ****        -8.5000  15.2500  27.2500 Du        
   5074 ****        -8.5000  15.2500  27.5000 Du        
   5075 ****        -8.5000  15.2500  27.7500 Du        
   5076 ****        -8.5000  18.2500   2.0000 Du        
   5077 ****        -8.5000  19.5000  37.2500 Du        
   5078 ****        -8.5000  19.7500  37.0000 Du        
   5079 ****        -8.5000  19.7500  37.2500 Du        
   5080 ****        -8.5000  20.0000  36.7500 Du        
   5081 ****        -8.5000  20.0000  37.0000 Du        
   5082 ****        -8.5000  20.0000  37.2500 Du        
   5083 ****        -8.5000  20.2500  36.2500 Du        
   5084 ****        -8.5000  20.2500  36.5000 Du        
   5085 ****        -8.5000  20.2500  36.7500 Du        
   5086 ****        -8.5000  20.2500  37.0000 Du        
   5087 ****        -8.5000  20.2500  37.2500 Du        
   5088 ****        -8.5000  20.5000  36.0000 Du        
   5089 ****        -8.5000  20.5000  36.2500 Du        
   5090 ****        -8.5000  20.5000  36.5000 Du        
   5091 ****        -8.5000  20.5000  36.7500 Du        
   5092 ****        -8.5000  20.5000  37.0000 Du        
   5093 ****        -8.5000  20.5000  37.2500 Du        
   5094 ****        -8.5000  20.7500  36.0000 Du        
   5095 ****        -8.5000  20.7500  36.2500 Du        
   5096 ****        -8.5000  20.7500  36.5000 Du        
   5097 ****        -8.2500   1.0000  22.0000 Du        
   5098 ****        -8.2500  11.0000   9.0000 Du        
   5099 ****        -8.2500  11.0000   9.2500 Du        
   5100 ****        -8.2500  11.0000   9.5000 Du        
   5101 ****        -8.2500  11.2500   9.0000 Du        
   5102 ****        -8.2500  11.2500   9.2500 Du        
   5103 ****        -8.2500  11.2500   9.5000 Du        
   5104 ****        -8.2500  11.2500   9.7500 Du        
   5105 ****        -8.2500  11.5000   8.7500 Du        
   5106 ****        -8.2500  11.5000   9.0000 Du        
   5107 ****        -8.2500  11.5000   9.2500 Du        
   5108 ****        -8.2500  11.5000   9.5000 Du        
   5109 ****        -8.2500  11.5000   9.7500 Du        
   5110 ****        -8.2500  11.7500   8.5000 Du        
   5111 ****        -8.2500  11.7500   8.7500 Du        
   5112 ****        -8.2500  11.7500   9.0000 Du        
   5113 ****        -8.2500  11.7500   9.2500 Du        
   5114 ****        -8.2500  11.7500   9.5000 Du        
   5115 ****        -8.2500  11.7500   9.7500 Du        
   5116 ****        -8.2500  11.7500  10.0000 Du        
   5117 ****        -8.2500  12.0000   8.5000 Du        
   5118 ****        -8.2500  12.0000   8.7500 Du        
   5119 ****        -8.2500  12.0000   9.0000 Du        
   5120 ****        -8.2500  12.0000   9.2500 Du        
   5121 ****        -8.2500  12.0000   9.5000 Du        
   5122 ****        -8.2500  12.0000   9.7500 Du        
   5123 ****        -8.2500  12.0000  10.0000 Du        
   5124 ****        -8.2500  12.2500   8.5000 Du        
   5125 ****        -8.2500  12.2500   8.7500 Du        
   5126 ****        -8.2500  12.2500   9.0000 Du        
   5127 ****        -8.2500  12.2500   9.2500 Du        
   5128 ****        -8.2500  12.2500   9.5000 Du        
   5129 ****        -8.2500  12.2500   9.7500 Du        
   5130 ****        -8.2500  12.2500  28.0000 Du        
   5131 ****        -8.2500  12.2500  28.2500 Du        
   5132 ****        -8.2500  12.5000   8.0000 Du        
   5133 ****        -8.2500  12.5000   8.2500 Du        
   5134 ****        -8.2500  12.5000   8.5000 Du        
   5135 ****        -8.2500  12.5000   8.7500 Du        
   5136 ****        -8.2500  12.5000   9.0000 Du        
   5137 ****        -8.2500  12.5000   9.2500 Du        
   5138 ****        -8.2500  12.5000   9.5000 Du        
   5139 ****        -8.2500  12.5000  27.7500 Du        
   5140 ****        -8.2500  12.5000  28.0000 Du        
   5141 ****        -8.2500  12.5000  28.2500 Du        
   5142 ****        -8.2500  12.5000  28.5000 Du        
   5143 ****        -8.2500  12.5000  28.7500 Du        
   5144 ****        -8.2500  12.5000  29.0000 Du        
   5145 ****        -8.2500  12.7500   8.0000 Du        
   5146 ****        -8.2500  12.7500   8.2500 Du        
   5147 ****        -8.2500  12.7500   8.5000 Du        
   5148 ****        -8.2500  12.7500   8.7500 Du        
   5149 ****        -8.2500  12.7500   9.0000 Du        
   5150 ****        -8.2500  12.7500   9.2500 Du        
   5151 ****        -8.2500  12.7500  27.5000 Du        
   5152 ****        -8.2500  12.7500  27.7500 Du        
   5153 ****        -8.2500  12.7500  28.0000 Du        
   5154 ****        -8.2500  12.7500  28.2500 Du        
   5155 ****        -8.2500  12.7500  28.5000 Du        
   5156 ****        -8.2500  12.7500  28.7500 Du        
   5157 ****        -8.2500  12.7500  29.0000 Du        
   5158 ****        -8.2500  12.7500  29.2500 Du        
   5159 ****        -8.2500  13.0000   8.2500 Du        
   5160 ****        -8.2500  13.0000   8.5000 Du        
   5161 ****        -8.2500  13.0000   8.7500 Du        
   5162 ****        -8.2500  13.0000  27.5000 Du        
   5163 ****        -8.2500  13.0000  27.7500 Du        
   5164 ****        -8.2500  13.0000  28.0000 Du        
   5165 ****        -8.2500  13.0000  28.2500 Du        
   5166 ****        -8.2500  13.0000  28.5000 Du        
   5167 ****        -8.2500  13.0000  28.7500 Du        
   5168 ****        -8.2500  13.0000  29.0000 Du        
   5169 ****        -8.2500  13.0000  29.2500 Du        
   5170 ****        -8.2500  13.2500  27.2500 Du        
   5171 ****        -8.2500  13.2500  27.5000 Du        
   5172 ****        -8.2500  13.2500  27.7500 Du        
   5173 ****        -8.2500  13.2500  28.0000 Du        
   5174 ****        -8.2500  13.2500  28.2500 Du        
   5175 ****        -8.2500  13.2500  28.5000 Du        
   5176 ****        -8.2500  13.2500  28.7500 Du        
   5177 ****        -8.2500  13.2500  29.0000 Du        
   5178 ****        -8.2500  13.2500  29.2500 Du        
   5179 ****        -8.2500  13.5000  27.0000 Du        
   5180 ****        -8.2500  13.5000  27.2500 Du        
   5181 ****        -8.2500  13.5000  27.5000 Du        
   5182 ****        -8.2500  13.5000  27.7500 Du        
   5183 ****        -8.2500  13.5000  28.0000 Du        
   5184 ****        -8.2500  13.5000  28.2500 Du        
   5185 ****        -8.2500  13.5000  28.5000 Du        
   5186 ****        -8.2500  13.5000  28.7500 Du        
   5187 ****        -8.2500  13.5000  29.0000 Du        
   5188 ****        -8.2500  13.5000  29.2500 Du        
   5189 ****        -8.2500  13.7500  27.0000 Du        
   5190 ****        -8.2500  13.7500  27.2500 Du        
   5191 ****        -8.2500  13.7500  27.5000 Du        
   5192 ****        -8.2500  13.7500  27.7500 Du        
   5193 ****        -8.2500  13.7500  28.0000 Du        
   5194 ****        -8.2500  13.7500  28.2500 Du        
   5195 ****        -8.2500  13.7500  28.5000 Du        
   5196 ****        -8.2500  13.7500  28.7500 Du        
   5197 ****        -8.2500  13.7500  29.0000 Du        
   5198 ****        -8.2500  14.0000  26.7500 Du        
   5199 ****        -8.2500  14.0000  27.0000 Du        
   5200 ****        -8.2500  14.0000  27.2500 Du        
   5201 ****        -8.2500  14.0000  27.5000 Du        
   5202 ****        -8.2500  14.0000  27.7500 Du        
   5203 ****        -8.2500  14.0000  28.0000 Du        
   5204 ****        -8.2500  14.0000  28.2500 Du        
   5205 ****        -8.2500  14.0000  28.5000 Du        
   5206 ****        -8.2500  14.0000  28.7500 Du        
   5207 ****        -8.2500  14.0000  29.0000 Du        
   5208 ****        -8.2500  14.2500  27.0000 Du        
   5209 ****        -8.2500  14.2500  27.2500 Du        
   5210 ****        -8.2500  14.2500  27.5000 Du        
   5211 ****        -8.2500  14.2500  27.7500 Du        
   5212 ****        -8.2500  14.2500  28.0000 Du        
   5213 ****        -8.2500  14.2500  28.2500 Du        
   5214 ****        -8.2500  14.2500  28.5000 Du        
   5215 ****        -8.2500  14.2500  28.7500 Du        
   5216 ****        -8.2500  14.5000  27.0000 Du        
   5217 ****        -8.2500  14.5000  27.2500 Du        
   5218 ****        -8.2500  14.5000  27.5000 Du        
   5219 ****        -8.2500  14.5000  27.7500 Du        
   5220 ****        -8.2500  14.5000  28.0000 Du        
   5221 ****        -8.2500  14.5000  28.2500 Du        
   5222 ****        -8.2500  14.5000  28.5000 Du        
   5223 ****        -8.2500  14.5000  28.7500 Du        
   5224 ****        -8.2500  14.7500  27.0000 Du        
   5225 ****        -8.2500  14.7500  27.2500 Du        
   5226 ****        -8.2500  14.7500  27.5000 Du        
   5227 ****        -8.2500  14.7500  27.7500 Du        
   5228 ****        -8.2500  14.7500  28.0000 Du        
   5229 ****        -8.2500  14.7500  28.2500 Du        
   5230 ****        -8.2500  14.7500  28.5000 Du        
   5231 ****        -8.2500  15.0000  27.0000 Du        
   5232 ****        -8.2500  15.0000  27.2500 Du        
   5233 ****        -8.2500  15.0000  27.5000 Du        
   5234 ****        -8.2500  15.0000  27.7500 Du        
   5235 ****        -8.2500  15.0000  28.0000 Du        
   5236 ****        -8.2500  15.0000  28.2500 Du        
   5237 ****        -8.2500  15.2500  27.2500 Du        
   5238 ****        -8.2500  15.2500  27.5000 Du        
   5239 ****        -8.2500  15.2500  27.7500 Du        
   5240 ****        -8.2500  17.7500   2.0000 Du        
   5241 ****        -8.2500  18.0000   1.7500 Du        
   5242 ****        -8.2500  18.0000   2.0000 Du        
   5243 ****        -8.2500  18.0000   2.2500 Du        
   5244 ****        -8.2500  18.0000   2.5000 Du        
   5245 ****        -8.2500  18.2500   2.0000 Du        
   5246 ****        -8.2500  18.2500   2.2500 Du        
   5247 ****        -8.2500  18.5000   2.5000 Du        
   5248 ****        -8.2500  18.5000   2.7500 Du        
   5249 ****        -8.2500  19.7500  37.2500 Du        
   5250 ****        -8.2500  20.0000  37.0000 Du        
   5251 ****        -8.2500  20.0000  37.2500 Du        
   5252 ****        -8.2500  20.2500  36.7500 Du        
   5253 ****        -8.2500  20.2500  37.0000 Du        
   5254 ****        -8.2500  20.2500  37.2500 Du        
   5255 ****        -8.0000   0.0000  22.2500 Du        
   5256 ****        -8.0000   0.2500  22.0000 Du        
   5257 ****        -8.0000   0.2500  22.2500 Du        
   5258 ****        -8.0000   0.5000  21.7500 Du        
   5259 ****        -8.0000   0.5000  22.0000 Du        
   5260 ****        -8.0000   0.5000  22.2500 Du        
   5261 ****        -8.0000   0.7500  21.7500 Du        
   5262 ****        -8.0000   0.7500  22.0000 Du        
   5263 ****        -8.0000   0.7500  22.2500 Du        
   5264 ****        -8.0000   1.0000  22.0000 Du        
   5265 ****        -8.0000   1.0000  22.2500 Du        
   5266 ****        -8.0000  11.0000   9.0000 Du        
   5267 ****        -8.0000  11.0000   9.2500 Du        
   5268 ****        -8.0000  11.0000   9.5000 Du        
   5269 ****        -8.0000  11.2500   8.7500 Du        
   5270 ****        -8.0000  11.2500   9.0000 Du        
   5271 ****        -8.0000  11.2500   9.2500 Du        
   5272 ****        -8.0000  11.2500   9.5000 Du        
   5273 ****        -8.0000  11.5000   8.7500 Du        
   5274 ****        -8.0000  11.5000   9.0000 Du        
   5275 ****        -8.0000  11.5000   9.2500 Du        
   5276 ****        -8.0000  11.5000   9.5000 Du        
   5277 ****        -8.0000  11.5000   9.7500 Du        
   5278 ****        -8.0000  11.7500   8.7500 Du        
   5279 ****        -8.0000  11.7500   9.0000 Du        
   5280 ****        -8.0000  11.7500   9.2500 Du        
   5281 ****        -8.0000  11.7500   9.5000 Du        
   5282 ****        -8.0000  11.7500   9.7500 Du        
   5283 ****        -8.0000  11.7500  10.0000 Du        
   5284 ****        -8.0000  12.0000   8.5000 Du        
   5285 ****        -8.0000  12.0000   8.7500 Du        
   5286 ****        -8.0000  12.0000   9.0000 Du        
   5287 ****        -8.0000  12.0000   9.2500 Du        
   5288 ****        -8.0000  12.0000   9.5000 Du        
   5289 ****        -8.0000  12.0000   9.7500 Du        
   5290 ****        -8.0000  12.0000  10.0000 Du        
   5291 ****        -8.0000  12.0000  28.0000 Du        
   5292 ****        -8.0000  12.0000  28.2500 Du        
   5293 ****        -8.0000  12.0000  28.5000 Du        
   5294 ****        -8.0000  12.0000  28.7500 Du        
   5295 ****        -8.0000  12.2500   8.5000 Du        
   5296 ****        -8.0000  12.2500   8.7500 Du        
   5297 ****        -8.0000  12.2500   9.0000 Du        
   5298 ****        -8.0000  12.2500   9.2500 Du        
   5299 ****        -8.0000  12.2500   9.5000 Du        
   5300 ****        -8.0000  12.2500   9.7500 Du        
   5301 ****        -8.0000  12.2500  27.7500 Du        
   5302 ****        -8.0000  12.2500  28.0000 Du        
   5303 ****        -8.0000  12.2500  28.2500 Du        
   5304 ****        -8.0000  12.2500  28.5000 Du        
   5305 ****        -8.0000  12.2500  28.7500 Du        
   5306 ****        -8.0000  12.5000   8.2500 Du        
   5307 ****        -8.0000  12.5000   8.5000 Du        
   5308 ****        -8.0000  12.5000   8.7500 Du        
   5309 ****        -8.0000  12.5000   9.0000 Du        
   5310 ****        -8.0000  12.5000   9.2500 Du        
   5311 ****        -8.0000  12.5000   9.5000 Du        
   5312 ****        -8.0000  12.5000   9.7500 Du        
   5313 ****        -8.0000  12.5000  27.7500 Du        
   5314 ****        -8.0000  12.5000  28.0000 Du        
   5315 ****        -8.0000  12.5000  28.2500 Du        
   5316 ****        -8.0000  12.5000  28.5000 Du        
   5317 ****        -8.0000  12.5000  28.7500 Du        
   5318 ****        -8.0000  12.5000  29.0000 Du        
   5319 ****        -8.0000  12.5000  29.2500 Du        
   5320 ****        -8.0000  12.7500   8.2500 Du        
   5321 ****        -8.0000  12.7500   8.5000 Du        
   5322 ****        -8.0000  12.7500   8.7500 Du        
   5323 ****        -8.0000  12.7500   9.0000 Du        
   5324 ****        -8.0000  12.7500   9.2500 Du        
   5325 ****        -8.0000  12.7500   9.5000 Du        
   5326 ****        -8.0000  12.7500  27.5000 Du        
   5327 ****        -8.0000  12.7500  27.7500 Du        
   5328 ****        -8.0000  12.7500  28.0000 Du        
   5329 ****        -8.0000  12.7500  28.2500 Du        
   5330 ****        -8.0000  12.7500  28.5000 Du        
   5331 ****        -8.0000  12.7500  28.7500 Du        
   5332 ****        -8.0000  12.7500  29.0000 Du        
   5333 ****        -8.0000  12.7500  29.2500 Du        
   5334 ****        -8.0000  13.0000   8.5000 Du        
   5335 ****        -8.0000  13.0000   8.7500 Du        
   5336 ****        -8.0000  13.0000   9.0000 Du        
   5337 ****        -8.0000  13.0000  27.2500 Du        
   5338 ****        -8.0000  13.0000  27.5000 Du        
   5339 ****        -8.0000  13.0000  27.7500 Du        
   5340 ****        -8.0000  13.0000  28.0000 Du        
   5341 ****        -8.0000  13.0000  28.2500 Du        
   5342 ****        -8.0000  13.0000  28.5000 Du        
   5343 ****        -8.0000  13.0000  28.7500 Du        
   5344 ****        -8.0000  13.0000  29.0000 Du        
   5345 ****        -8.0000  13.0000  29.2500 Du        
   5346 ****        -8.0000  13.0000  29.5000 Du        
   5347 ****        -8.0000  13.2500  27.2500 Du        
   5348 ****        -8.0000  13.2500  27.5000 Du        
   5349 ****        -8.0000  13.2500  27.7500 Du        
   5350 ****        -8.0000  13.2500  28.0000 Du        
   5351 ****        -8.0000  13.2500  28.2500 Du        
   5352 ****        -8.0000  13.2500  28.5000 Du        
   5353 ****        -8.0000  13.2500  28.7500 Du        
   5354 ****        -8.0000  13.2500  29.0000 Du        
   5355 ****        -8.0000  13.2500  29.2500 Du        
   5356 ****        -8.0000  13.2500  29.5000 Du        
   5357 ****        -8.0000  13.5000  27.0000 Du        
   5358 ****        -8.0000  13.5000  27.2500 Du        
   5359 ****        -8.0000  13.5000  27.5000 Du        
   5360 ****        -8.0000  13.5000  27.7500 Du        
   5361 ****        -8.0000  13.5000  28.0000 Du        
   5362 ****        -8.0000  13.5000  28.2500 Du        
   5363 ****        -8.0000  13.5000  28.5000 Du        
   5364 ****        -8.0000  13.5000  28.7500 Du        
   5365 ****        -8.0000  13.5000  29.0000 Du        
   5366 ****        -8.0000  13.5000  29.2500 Du        
   5367 ****        -8.0000  13.7500  27.0000 Du        
   5368 ****        -8.0000  13.7500  27.2500 Du        
   5369 ****        -8.0000  13.7500  27.5000 Du        
   5370 ****        -8.0000  13.7500  27.7500 Du        
   5371 ****        -8.0000  13.7500  28.0000 Du        
   5372 ****        -8.0000  13.7500  28.2500 Du        
   5373 ****        -8.0000  13.7500  28.5000 Du        
   5374 ****        -8.0000  13.7500  28.7500 Du        
   5375 ****        -8.0000  13.7500  29.0000 Du        
   5376 ****        -8.0000  13.7500  29.2500 Du        
   5377 ****        -8.0000  14.0000  27.2500 Du        
   5378 ****        -8.0000  14.0000  27.5000 Du        
   5379 ****        -8.0000  14.0000  27.7500 Du        
   5380 ****        -8.0000  14.0000  28.0000 Du        
   5381 ****        -8.0000  14.0000  28.2500 Du        
   5382 ****        -8.0000  14.0000  28.5000 Du        
   5383 ****        -8.0000  14.0000  28.7500 Du        
   5384 ****        -8.0000  14.0000  29.0000 Du        
   5385 ****        -8.0000  14.0000  29.2500 Du        
   5386 ****        -8.0000  14.2500  27.5000 Du        
   5387 ****        -8.0000  14.2500  27.7500 Du        
   5388 ****        -8.0000  14.2500  28.0000 Du        
   5389 ****        -8.0000  14.2500  28.2500 Du        
   5390 ****        -8.0000  14.2500  28.5000 Du        
   5391 ****        -8.0000  14.2500  28.7500 Du        
   5392 ****        -8.0000  14.2500  29.0000 Du        
   5393 ****        -8.0000  14.5000  27.5000 Du        
   5394 ****        -8.0000  14.5000  27.7500 Du        
   5395 ****        -8.0000  14.5000  28.0000 Du        
   5396 ****        -8.0000  14.5000  28.2500 Du        
   5397 ****        -8.0000  14.5000  28.5000 Du        
   5398 ****        -8.0000  14.5000  28.7500 Du        
   5399 ****        -8.0000  14.7500  27.5000 Du        
   5400 ****        -8.0000  14.7500  27.7500 Du        
   5401 ****        -8.0000  14.7500  28.0000 Du        
   5402 ****        -8.0000  14.7500  28.2500 Du        
   5403 ****        -8.0000  14.7500  28.5000 Du        
   5404 ****        -8.0000  14.7500  28.7500 Du        
   5405 ****        -8.0000  15.0000  27.5000 Du        
   5406 ****        -8.0000  15.0000  27.7500 Du        
   5407 ****        -8.0000  15.0000  28.0000 Du        
   5408 ****        -8.0000  15.0000  28.2500 Du        
   5409 ****        -8.0000  15.2500  27.7500 Du        
   5410 ****        -8.0000  15.2500  28.0000 Du        
   5411 ****        -8.0000  17.5000   2.0000 Du        
   5412 ****        -8.0000  17.5000   2.2500 Du        
   5413 ****        -8.0000  17.5000   2.5000 Du        
   5414 ****        -8.0000  17.7500   2.0000 Du        
   5415 ****        -8.0000  17.7500   2.2500 Du        
   5416 ****        -8.0000  17.7500   2.5000 Du        
   5417 ****        -8.0000  17.7500   2.7500 Du        
   5418 ****        -8.0000  18.0000   2.0000 Du        
   5419 ****        -8.0000  18.0000   2.2500 Du        
   5420 ****        -8.0000  18.0000   2.5000 Du        
   5421 ****        -8.0000  18.0000   2.7500 Du        
   5422 ****        -8.0000  18.2500   2.2500 Du        
   5423 ****        -8.0000  18.2500   2.5000 Du        
   5424 ****        -8.0000  18.2500   2.7500 Du        
   5425 ****        -8.0000  18.2500   3.0000 Du        
   5426 ****        -8.0000  18.5000   2.7500 Du        
   5427 ****        -8.0000  18.5000   3.0000 Du        
   5428 ****        -7.7500  -0.2500  22.0000 Du        
   5429 ****        -7.7500  -0.2500  22.2500 Du        
   5430 ****        -7.7500   0.0000  21.7500 Du        
   5431 ****        -7.7500   0.0000  22.0000 Du        
   5432 ****        -7.7500   0.0000  22.2500 Du        
   5433 ****        -7.7500   0.2500  21.7500 Du        
   5434 ****        -7.7500   0.2500  22.0000 Du        
   5435 ****        -7.7500   0.2500  22.2500 Du        
   5436 ****        -7.7500   0.5000  21.5000 Du        
   5437 ****        -7.7500   0.5000  21.7500 Du        
   5438 ****        -7.7500   0.5000  22.0000 Du        
   5439 ****        -7.7500   0.5000  22.2500 Du        
   5440 ****        -7.7500   0.7500  21.7500 Du        
   5441 ****        -7.7500   0.7500  22.0000 Du        
   5442 ****        -7.7500   0.7500  22.2500 Du        
   5443 ****        -7.7500   5.7500   9.5000 Du        
   5444 ****        -7.7500   6.0000   9.2500 Du        
   5445 ****        -7.7500   6.0000   9.5000 Du        
   5446 ****        -7.7500   6.2500   9.2500 Du        
   5447 ****        -7.7500  11.0000   9.0000 Du        
   5448 ****        -7.7500  11.0000   9.2500 Du        
   5449 ****        -7.7500  11.2500   9.0000 Du        
   5450 ****        -7.7500  11.2500   9.2500 Du        
   5451 ****        -7.7500  11.2500   9.5000 Du        
   5452 ****        -7.7500  11.5000   8.7500 Du        
   5453 ****        -7.7500  11.5000   9.0000 Du        
   5454 ****        -7.7500  11.5000   9.2500 Du        
   5455 ****        -7.7500  11.5000   9.5000 Du        
   5456 ****        -7.7500  11.7500   8.7500 Du        
   5457 ****        -7.7500  11.7500   9.0000 Du        
   5458 ****        -7.7500  11.7500   9.2500 Du        
   5459 ****        -7.7500  11.7500   9.5000 Du        
   5460 ****        -7.7500  11.7500   9.7500 Du        
   5461 ****        -7.7500  11.7500  28.2500 Du        
   5462 ****        -7.7500  12.0000   8.7500 Du        
   5463 ****        -7.7500  12.0000   9.0000 Du        
   5464 ****        -7.7500  12.0000   9.2500 Du        
   5465 ****        -7.7500  12.0000   9.5000 Du        
   5466 ****        -7.7500  12.0000   9.7500 Du        
   5467 ****        -7.7500  12.0000  10.0000 Du        
   5468 ****        -7.7500  12.0000  28.0000 Du        
   5469 ****        -7.7500  12.0000  28.2500 Du        
   5470 ****        -7.7500  12.0000  28.7500 Du        
   5471 ****        -7.7500  12.2500   8.7500 Du        
   5472 ****        -7.7500  12.2500   9.0000 Du        
   5473 ****        -7.7500  12.2500   9.2500 Du        
   5474 ****        -7.7500  12.2500   9.5000 Du        
   5475 ****        -7.7500  12.2500   9.7500 Du        
   5476 ****        -7.7500  12.2500  10.0000 Du        
   5477 ****        -7.7500  12.2500  27.7500 Du        
   5478 ****        -7.7500  12.2500  28.0000 Du        
   5479 ****        -7.7500  12.2500  28.2500 Du        
   5480 ****        -7.7500  12.2500  28.5000 Du        
   5481 ****        -7.7500  12.2500  28.7500 Du        
   5482 ****        -7.7500  12.2500  29.0000 Du        
   5483 ****        -7.7500  12.5000   8.7500 Du        
   5484 ****        -7.7500  12.5000   9.0000 Du        
   5485 ****        -7.7500  12.5000   9.2500 Du        
   5486 ****        -7.7500  12.5000   9.5000 Du        
   5487 ****        -7.7500  12.5000   9.7500 Du        
   5488 ****        -7.7500  12.5000  27.5000 Du        
   5489 ****        -7.7500  12.5000  27.7500 Du        
   5490 ****        -7.7500  12.5000  28.0000 Du        
   5491 ****        -7.7500  12.5000  28.2500 Du        
   5492 ****        -7.7500  12.5000  28.5000 Du        
   5493 ****        -7.7500  12.5000  28.7500 Du        
   5494 ****        -7.7500  12.5000  29.0000 Du        
   5495 ****        -7.7500  12.5000  29.2500 Du        
   5496 ****        -7.7500  12.7500   8.7500 Du        
   5497 ****        -7.7500  12.7500   9.0000 Du        
   5498 ****        -7.7500  12.7500   9.2500 Du        
   5499 ****        -7.7500  12.7500   9.5000 Du        
   5500 ****        -7.7500  12.7500   9.7500 Du        
   5501 ****        -7.7500  12.7500  27.2500 Du        
   5502 ****        -7.7500  12.7500  27.5000 Du        
   5503 ****        -7.7500  12.7500  27.7500 Du        
   5504 ****        -7.7500  12.7500  28.0000 Du        
   5505 ****        -7.7500  12.7500  28.2500 Du        
   5506 ****        -7.7500  12.7500  28.5000 Du        
   5507 ****        -7.7500  12.7500  28.7500 Du        
   5508 ****        -7.7500  12.7500  29.0000 Du        
   5509 ****        -7.7500  12.7500  29.2500 Du        
   5510 ****        -7.7500  12.7500  29.5000 Du        
   5511 ****        -7.7500  13.0000   8.7500 Du        
   5512 ****        -7.7500  13.0000   9.0000 Du        
   5513 ****        -7.7500  13.0000  27.2500 Du        
   5514 ****        -7.7500  13.0000  27.5000 Du        
   5515 ****        -7.7500  13.0000  27.7500 Du        
   5516 ****        -7.7500  13.0000  28.0000 Du        
   5517 ****        -7.7500  13.0000  28.2500 Du        
   5518 ****        -7.7500  13.0000  28.5000 Du        
   5519 ****        -7.7500  13.0000  28.7500 Du        
   5520 ****        -7.7500  13.0000  29.0000 Du        
   5521 ****        -7.7500  13.0000  29.2500 Du        
   5522 ****        -7.7500  13.0000  29.5000 Du        
   5523 ****        -7.7500  13.0000  29.7500 Du        
   5524 ****        -7.7500  13.2500  27.2500 Du        
   5525 ****        -7.7500  13.2500  27.5000 Du        
   5526 ****        -7.7500  13.2500  27.7500 Du        
   5527 ****        -7.7500  13.2500  28.0000 Du        
   5528 ****        -7.7500  13.2500  28.2500 Du        
   5529 ****        -7.7500  13.2500  28.5000 Du        
   5530 ****        -7.7500  13.2500  28.7500 Du        
   5531 ****        -7.7500  13.2500  29.0000 Du        
   5532 ****        -7.7500  13.2500  29.2500 Du        
   5533 ****        -7.7500  13.2500  29.5000 Du        
   5534 ****        -7.7500  13.2500  29.7500 Du        
   5535 ****        -7.7500  13.5000  27.2500 Du        
   5536 ****        -7.7500  13.5000  27.5000 Du        
   5537 ****        -7.7500  13.5000  27.7500 Du        
   5538 ****        -7.7500  13.5000  28.0000 Du        
   5539 ****        -7.7500  13.5000  28.2500 Du        
   5540 ****        -7.7500  13.5000  28.5000 Du        
   5541 ****        -7.7500  13.5000  28.7500 Du        
   5542 ****        -7.7500  13.5000  29.0000 Du        
   5543 ****        -7.7500  13.5000  29.2500 Du        
   5544 ****        -7.7500  13.5000  29.5000 Du        
   5545 ****        -7.7500  13.7500  27.5000 Du        
   5546 ****        -7.7500  13.7500  27.7500 Du        
   5547 ****        -7.7500  13.7500  28.0000 Du        
   5548 ****        -7.7500  13.7500  28.2500 Du        
   5549 ****        -7.7500  13.7500  28.5000 Du        
   5550 ****        -7.7500  13.7500  28.7500 Du        
   5551 ****        -7.7500  13.7500  29.0000 Du        
   5552 ****        -7.7500  13.7500  29.2500 Du        
   5553 ****        -7.7500  14.0000  27.5000 Du        
   5554 ****        -7.7500  14.0000  27.7500 Du        
   5555 ****        -7.7500  14.0000  28.0000 Du        
   5556 ****        -7.7500  14.0000  28.2500 Du        
   5557 ****        -7.7500  14.0000  28.5000 Du        
   5558 ****        -7.7500  14.0000  28.7500 Du        
   5559 ****        -7.7500  14.0000  29.0000 Du        
   5560 ****        -7.7500  14.0000  29.2500 Du        
   5561 ****        -7.7500  14.2500  27.7500 Du        
   5562 ****        -7.7500  14.2500  28.0000 Du        
   5563 ****        -7.7500  14.2500  28.2500 Du        
   5564 ****        -7.7500  14.2500  28.5000 Du        
   5565 ****        -7.7500  14.2500  28.7500 Du        
   5566 ****        -7.7500  14.2500  29.0000 Du        
   5567 ****        -7.7500  14.2500  29.2500 Du        
   5568 ****        -7.7500  14.5000  28.0000 Du        
   5569 ****        -7.7500  14.5000  28.2500 Du        
   5570 ****        -7.7500  14.5000  28.5000 Du        
   5571 ****        -7.7500  14.5000  28.7500 Du        
   5572 ****        -7.7500  14.5000  29.0000 Du        
   5573 ****        -7.7500  14.7500  28.0000 Du        
   5574 ****        -7.7500  14.7500  28.2500 Du        
   5575 ****        -7.7500  14.7500  28.5000 Du        
   5576 ****        -7.7500  14.7500  28.7500 Du        
   5577 ****        -7.7500  15.0000  28.0000 Du        
   5578 ****        -7.7500  15.0000  28.2500 Du        
   5579 ****        -7.7500  15.0000  28.5000 Du        
   5580 ****        -7.7500  17.2500   2.5000 Du        
   5581 ****        -7.7500  17.2500   2.7500 Du        
   5582 ****        -7.7500  17.5000   2.0000 Du        
   5583 ****        -7.7500  17.5000   2.2500 Du        
   5584 ****        -7.7500  17.5000   2.5000 Du        
   5585 ****        -7.7500  17.5000   2.7500 Du        
   5586 ****        -7.7500  17.5000   3.0000 Du        
   5587 ****        -7.7500  17.7500   2.0000 Du        
   5588 ****        -7.7500  17.7500   2.2500 Du        
   5589 ****        -7.7500  17.7500   2.5000 Du        
   5590 ****        -7.7500  17.7500   2.7500 Du        
   5591 ****        -7.7500  17.7500   3.0000 Du        
   5592 ****        -7.7500  18.0000   2.0000 Du        
   5593 ****        -7.7500  18.0000   2.2500 Du        
   5594 ****        -7.7500  18.0000   2.5000 Du        
   5595 ****        -7.7500  18.0000   2.7500 Du        
   5596 ****        -7.7500  18.0000   3.0000 Du        
   5597 ****        -7.5000  -0.2500  21.7500 Du        
   5598 ****        -7.5000  -0.2500  22.0000 Du        
   5599 ****        -7.5000  -0.2500  22.2500 Du        
   5600 ****        -7.5000   0.0000  21.2500 Du        
   5601 ****        -7.5000   0.0000  21.5000 Du        
   5602 ****        -7.5000   0.0000  21.7500 Du        
   5603 ****        -7.5000   0.0000  22.0000 Du        
   5604 ****        -7.5000   0.0000  22.2500 Du        
   5605 ****        -7.5000   0.2500  21.2500 Du        
   5606 ****        -7.5000   0.2500  21.5000 Du        
   5607 ****        -7.5000   0.2500  21.7500 Du        
   5608 ****        -7.5000   0.2500  22.0000 Du        
   5609 ****        -7.5000   0.2500  22.2500 Du        
   5610 ****        -7.5000   0.5000  21.2500 Du        
   5611 ****        -7.5000   0.5000  21.5000 Du        
   5612 ****        -7.5000   0.5000  21.7500 Du        
   5613 ****        -7.5000   0.5000  22.0000 Du        
   5614 ****        -7.5000   0.5000  22.2500 Du        
   5615 ****        -7.5000   0.7500  22.0000 Du        
   5616 ****        -7.5000   5.7500   9.5000 Du        
   5617 ****        -7.5000   5.7500   9.7500 Du        
   5618 ****        -7.5000   6.0000   9.2500 Du        
   5619 ****        -7.5000   6.0000   9.5000 Du        
   5620 ****        -7.5000   6.0000   9.7500 Du        
   5621 ****        -7.5000   6.2500   9.5000 Du        
   5622 ****        -7.5000  11.0000   9.0000 Du        
   5623 ****        -7.5000  11.2500   9.0000 Du        
   5624 ****        -7.5000  11.2500   9.2500 Du        
   5625 ****        -7.5000  11.5000   9.0000 Du        
   5626 ****        -7.5000  11.5000   9.2500 Du        
   5627 ****        -7.5000  11.5000   9.5000 Du        
   5628 ****        -7.5000  11.7500   9.0000 Du        
   5629 ****        -7.5000  11.7500   9.2500 Du        
   5630 ****        -7.5000  11.7500   9.5000 Du        
   5631 ****        -7.5000  11.7500   9.7500 Du        
   5632 ****        -7.5000  11.7500  28.0000 Du        
   5633 ****        -7.5000  11.7500  28.2500 Du        
   5634 ****        -7.5000  11.7500  28.5000 Du        
   5635 ****        -7.5000  11.7500  28.7500 Du        
   5636 ****        -7.5000  12.0000   8.7500 Du        
   5637 ****        -7.5000  12.0000   9.0000 Du        
   5638 ****        -7.5000  12.0000   9.2500 Du        
   5639 ****        -7.5000  12.0000   9.5000 Du        
   5640 ****        -7.5000  12.0000   9.7500 Du        
   5641 ****        -7.5000  12.0000  10.0000 Du        
   5642 ****        -7.5000  12.0000  27.7500 Du        
   5643 ****        -7.5000  12.0000  28.0000 Du        
   5644 ****        -7.5000  12.0000  28.2500 Du        
   5645 ****        -7.5000  12.0000  28.5000 Du        
   5646 ****        -7.5000  12.0000  28.7500 Du        
   5647 ****        -7.5000  12.2500   8.7500 Du        
   5648 ****        -7.5000  12.2500   9.0000 Du        
   5649 ****        -7.5000  12.2500   9.2500 Du        
   5650 ****        -7.5000  12.2500   9.5000 Du        
   5651 ****        -7.5000  12.2500   9.7500 Du        
   5652 ****        -7.5000  12.2500  10.0000 Du        
   5653 ****        -7.5000  12.2500  27.5000 Du        
   5654 ****        -7.5000  12.2500  27.7500 Du        
   5655 ****        -7.5000  12.2500  28.0000 Du        
   5656 ****        -7.5000  12.2500  28.2500 Du        
   5657 ****        -7.5000  12.2500  28.5000 Du        
   5658 ****        -7.5000  12.2500  28.7500 Du        
   5659 ****        -7.5000  12.2500  29.0000 Du        
   5660 ****        -7.5000  12.5000   9.0000 Du        
   5661 ****        -7.5000  12.5000   9.2500 Du        
   5662 ****        -7.5000  12.5000   9.5000 Du        
   5663 ****        -7.5000  12.5000   9.7500 Du        
   5664 ****        -7.5000  12.5000  10.0000 Du        
   5665 ****        -7.5000  12.5000  27.2500 Du        
   5666 ****        -7.5000  12.5000  27.5000 Du        
   5667 ****        -7.5000  12.5000  27.7500 Du        
   5668 ****        -7.5000  12.5000  28.0000 Du        
   5669 ****        -7.5000  12.5000  28.2500 Du        
   5670 ****        -7.5000  12.5000  28.5000 Du        
   5671 ****        -7.5000  12.5000  28.7500 Du        
   5672 ****        -7.5000  12.5000  29.0000 Du        
   5673 ****        -7.5000  12.5000  29.2500 Du        
   5674 ****        -7.5000  12.5000  29.5000 Du        
   5675 ****        -7.5000  12.5000  29.7500 Du        
   5676 ****        -7.5000  12.5000  30.0000 Du        
   5677 ****        -7.5000  12.7500   9.0000 Du        
   5678 ****        -7.5000  12.7500   9.2500 Du        
   5679 ****        -7.5000  12.7500   9.5000 Du        
   5680 ****        -7.5000  12.7500   9.7500 Du        
   5681 ****        -7.5000  12.7500  27.2500 Du        
   5682 ****        -7.5000  12.7500  27.5000 Du        
   5683 ****        -7.5000  12.7500  27.7500 Du        
   5684 ****        -7.5000  12.7500  28.0000 Du        
   5685 ****        -7.5000  12.7500  28.2500 Du        
   5686 ****        -7.5000  12.7500  28.5000 Du        
   5687 ****        -7.5000  12.7500  28.7500 Du        
   5688 ****        -7.5000  12.7500  29.0000 Du        
   5689 ****        -7.5000  12.7500  29.2500 Du        
   5690 ****        -7.5000  12.7500  29.5000 Du        
   5691 ****        -7.5000  12.7500  29.7500 Du        
   5692 ****        -7.5000  12.7500  30.0000 Du        
   5693 ****        -7.5000  12.7500  30.2500 Du        
   5694 ****        -7.5000  13.0000  27.2500 Du        
   5695 ****        -7.5000  13.0000  27.5000 Du        
   5696 ****        -7.5000  13.0000  27.7500 Du        
   5697 ****        -7.5000  13.0000  28.0000 Du        
   5698 ****        -7.5000  13.0000  28.2500 Du        
   5699 ****        -7.5000  13.0000  28.5000 Du        
   5700 ****        -7.5000  13.0000  28.7500 Du        
   5701 ****        -7.5000  13.0000  29.0000 Du        
   5702 ****        -7.5000  13.0000  29.2500 Du        
   5703 ****        -7.5000  13.0000  29.5000 Du        
   5704 ****        -7.5000  13.0000  29.7500 Du        
   5705 ****        -7.5000  13.0000  30.0000 Du        
   5706 ****        -7.5000  13.0000  30.2500 Du        
   5707 ****        -7.5000  13.2500  27.5000 Du        
   5708 ****        -7.5000  13.2500  27.7500 Du        
   5709 ****        -7.5000  13.2500  28.0000 Du        
   5710 ****        -7.5000  13.2500  28.2500 Du        
   5711 ****        -7.5000  13.2500  28.5000 Du        
   5712 ****        -7.5000  13.2500  28.7500 Du        
   5713 ****        -7.5000  13.2500  29.0000 Du        
   5714 ****        -7.5000  13.2500  29.2500 Du        
   5715 ****        -7.5000  13.2500  29.5000 Du        
   5716 ****        -7.5000  13.2500  29.7500 Du        
   5717 ****        -7.5000  13.2500  30.0000 Du        
   5718 ****        -7.5000  13.2500  30.2500 Du        
   5719 ****        -7.5000  13.5000  27.5000 Du        
   5720 ****        -7.5000  13.5000  27.7500 Du        
   5721 ****        -7.5000  13.5000  28.0000 Du        
   5722 ****        -7.5000  13.5000  28.2500 Du        
   5723 ****        -7.5000  13.5000  28.5000 Du        
   5724 ****        -7.5000  13.5000  28.7500 Du        
   5725 ****        -7.5000  13.5000  29.0000 Du        
   5726 ****        -7.5000  13.5000  29.2500 Du        
   5727 ****        -7.5000  13.5000  29.5000 Du        
   5728 ****        -7.5000  13.5000  29.7500 Du        
   5729 ****        -7.5000  13.5000  30.0000 Du        
   5730 ****        -7.5000  13.7500  27.7500 Du        
   5731 ****        -7.5000  13.7500  28.0000 Du        
   5732 ****        -7.5000  13.7500  28.2500 Du        
   5733 ****        -7.5000  13.7500  28.5000 Du        
   5734 ****        -7.5000  13.7500  28.7500 Du        
   5735 ****        -7.5000  13.7500  29.0000 Du        
   5736 ****        -7.5000  13.7500  29.2500 Du        
   5737 ****        -7.5000  13.7500  29.5000 Du        
   5738 ****        -7.5000  13.7500  29.7500 Du        
   5739 ****        -7.5000  14.0000  28.0000 Du        
   5740 ****        -7.5000  14.0000  28.2500 Du        
   5741 ****        -7.5000  14.0000  28.5000 Du        
   5742 ****        -7.5000  14.0000  28.7500 Du        
   5743 ****        -7.5000  14.0000  29.0000 Du        
   5744 ****        -7.5000  14.0000  29.2500 Du        
   5745 ****        -7.5000  14.0000  29.5000 Du        
   5746 ****        -7.5000  14.2500  28.0000 Du        
   5747 ****        -7.5000  14.2500  28.2500 Du        
   5748 ****        -7.5000  14.2500  28.5000 Du        
   5749 ****        -7.5000  14.2500  28.7500 Du        
   5750 ****        -7.5000  14.2500  29.0000 Du        
   5751 ****        -7.5000  14.2500  29.2500 Du        
   5752 ****        -7.5000  14.5000  28.0000 Du        
   5753 ****        -7.5000  14.5000  28.2500 Du        
   5754 ****        -7.5000  14.5000  28.5000 Du        
   5755 ****        -7.5000  14.5000  28.7500 Du        
   5756 ****        -7.5000  14.5000  29.0000 Du        
   5757 ****        -7.5000  14.5000  29.2500 Du        
   5758 ****        -7.5000  14.7500  28.2500 Du        
   5759 ****        -7.5000  14.7500  28.5000 Du        
   5760 ****        -7.5000  14.7500  28.7500 Du        
   5761 ****        -7.5000  14.7500  29.0000 Du        
   5762 ****        -7.5000  15.0000  28.2500 Du        
   5763 ****        -7.5000  15.0000  28.5000 Du        
   5764 ****        -7.5000  15.0000  28.7500 Du        
   5765 ****        -7.5000  16.7500   2.5000 Du        
   5766 ****        -7.5000  16.7500   2.7500 Du        
   5767 ****        -7.5000  16.7500   3.0000 Du        
   5768 ****        -7.5000  17.0000   2.5000 Du        
   5769 ****        -7.5000  17.0000   2.7500 Du        
   5770 ****        -7.5000  17.0000   3.0000 Du        
   5771 ****        -7.5000  17.0000   3.2500 Du        
   5772 ****        -7.5000  17.2500   2.5000 Du        
   5773 ****        -7.5000  17.2500   2.7500 Du        
   5774 ****        -7.5000  17.2500   3.0000 Du        
   5775 ****        -7.5000  17.5000   2.5000 Du        
   5776 ****        -7.5000  17.5000   2.7500 Du        
   5777 ****        -7.5000  17.5000   3.0000 Du        
   5778 ****        -7.5000  17.5000   3.2500 Du        
   5779 ****        -7.5000  17.7500   2.5000 Du        
   5780 ****        -7.5000  17.7500   2.7500 Du        
   5781 ****        -7.5000  17.7500   3.0000 Du        
   5782 ****        -7.2500  -0.7500  21.7500 Du        
   5783 ****        -7.2500  -0.7500  22.0000 Du        
   5784 ****        -7.2500  -0.7500  22.2500 Du        
   5785 ****        -7.2500  -0.5000  21.2500 Du        
   5786 ****        -7.2500  -0.5000  21.5000 Du        
   5787 ****        -7.2500  -0.5000  21.7500 Du        
   5788 ****        -7.2500  -0.5000  22.0000 Du        
   5789 ****        -7.2500  -0.2500  21.0000 Du        
   5790 ****        -7.2500  -0.2500  21.2500 Du        
   5791 ****        -7.2500  -0.2500  21.5000 Du        
   5792 ****        -7.2500  -0.2500  21.7500 Du        
   5793 ****        -7.2500  -0.2500  22.0000 Du        
   5794 ****        -7.2500  -0.2500  22.2500 Du        
   5795 ****        -7.2500   0.0000  21.0000 Du        
   5796 ****        -7.2500   0.0000  21.2500 Du        
   5797 ****        -7.2500   0.0000  21.5000 Du        
   5798 ****        -7.2500   0.0000  21.7500 Du        
   5799 ****        -7.2500   0.0000  22.0000 Du        
   5800 ****        -7.2500   0.0000  22.2500 Du        
   5801 ****        -7.2500   0.2500  21.0000 Du        
   5802 ****        -7.2500   0.2500  21.2500 Du        
   5803 ****        -7.2500   0.2500  21.5000 Du        
   5804 ****        -7.2500   0.2500  21.7500 Du        
   5805 ****        -7.2500   0.2500  22.0000 Du        
   5806 ****        -7.2500   0.2500  22.2500 Du        
   5807 ****        -7.2500   0.5000  21.0000 Du        
   5808 ****        -7.2500   0.5000  21.2500 Du        
   5809 ****        -7.2500   0.5000  21.5000 Du        
   5810 ****        -7.2500   0.5000  21.7500 Du        
   5811 ****        -7.2500   0.5000  22.0000 Du        
   5812 ****        -7.2500   0.7500  21.2500 Du        
   5813 ****        -7.2500   5.7500   9.5000 Du        
   5814 ****        -7.2500   5.7500   9.7500 Du        
   5815 ****        -7.2500   5.7500  10.0000 Du        
   5816 ****        -7.2500   6.0000   9.2500 Du        
   5817 ****        -7.2500   6.0000   9.5000 Du        
   5818 ****        -7.2500   6.0000   9.7500 Du        
   5819 ****        -7.2500   6.0000  10.0000 Du        
   5820 ****        -7.2500   6.2500   9.5000 Du        
   5821 ****        -7.2500   6.2500   9.7500 Du        
   5822 ****        -7.2500   6.2500  10.0000 Du        
   5823 ****        -7.2500  11.5000   9.2500 Du        
   5824 ****        -7.2500  11.5000   9.5000 Du        
   5825 ****        -7.2500  11.5000  28.2500 Du        
   5826 ****        -7.2500  11.5000  28.5000 Du        
   5827 ****        -7.2500  11.5000  28.7500 Du        
   5828 ****        -7.2500  11.7500   9.0000 Du        
   5829 ****        -7.2500  11.7500   9.2500 Du        
   5830 ****        -7.2500  11.7500   9.5000 Du        
   5831 ****        -7.2500  11.7500   9.7500 Du        
   5832 ****        -7.2500  11.7500  27.7500 Du        
   5833 ****        -7.2500  11.7500  28.0000 Du        
   5834 ****        -7.2500  11.7500  28.2500 Du        
   5835 ****        -7.2500  11.7500  28.5000 Du        
   5836 ****        -7.2500  11.7500  28.7500 Du        
   5837 ****        -7.2500  11.7500  29.0000 Du        
   5838 ****        -7.2500  11.7500  29.2500 Du        
   5839 ****        -7.2500  12.0000   9.0000 Du        
   5840 ****        -7.2500  12.0000   9.2500 Du        
   5841 ****        -7.2500  12.0000   9.5000 Du        
   5842 ****        -7.2500  12.0000   9.7500 Du        
   5843 ****        -7.2500  12.0000  27.5000 Du        
   5844 ****        -7.2500  12.0000  27.7500 Du        
   5845 ****        -7.2500  12.0000  28.0000 Du        
   5846 ****        -7.2500  12.0000  28.2500 Du        
   5847 ****        -7.2500  12.0000  28.5000 Du        
   5848 ****        -7.2500  12.0000  28.7500 Du        
   5849 ****        -7.2500  12.0000  29.0000 Du        
   5850 ****        -7.2500  12.0000  29.2500 Du        
   5851 ****        -7.2500  12.2500   9.0000 Du        
   5852 ****        -7.2500  12.2500   9.2500 Du        
   5853 ****        -7.2500  12.2500   9.5000 Du        
   5854 ****        -7.2500  12.2500   9.7500 Du        
   5855 ****        -7.2500  12.2500  10.0000 Du        
   5856 ****        -7.2500  12.2500  27.2500 Du        
   5857 ****        -7.2500  12.2500  27.5000 Du        
   5858 ****        -7.2500  12.2500  27.7500 Du        
   5859 ****        -7.2500  12.2500  28.0000 Du        
   5860 ****        -7.2500  12.2500  28.2500 Du        
   5861 ****        -7.2500  12.2500  28.5000 Du        
   5862 ****        -7.2500  12.2500  28.7500 Du        
   5863 ****        -7.2500  12.2500  29.0000 Du        
   5864 ****        -7.2500  12.2500  29.2500 Du        
   5865 ****        -7.2500  12.2500  29.5000 Du        
   5866 ****        -7.2500  12.5000   9.2500 Du        
   5867 ****        -7.2500  12.5000   9.5000 Du        
   5868 ****        -7.2500  12.5000   9.7500 Du        
   5869 ****        -7.2500  12.5000  10.0000 Du        
   5870 ****        -7.2500  12.5000  27.2500 Du        
   5871 ****        -7.2500  12.5000  27.5000 Du        
   5872 ****        -7.2500  12.5000  27.7500 Du        
   5873 ****        -7.2500  12.5000  28.0000 Du        
   5874 ****        -7.2500  12.5000  28.2500 Du        
   5875 ****        -7.2500  12.5000  28.5000 Du        
   5876 ****        -7.2500  12.5000  28.7500 Du        
   5877 ****        -7.2500  12.5000  29.0000 Du        
   5878 ****        -7.2500  12.5000  29.2500 Du        
   5879 ****        -7.2500  12.5000  29.5000 Du        
   5880 ****        -7.2500  12.5000  29.7500 Du        
   5881 ****        -7.2500  12.5000  30.0000 Du        
   5882 ****        -7.2500  12.5000  30.2500 Du        
   5883 ****        -7.2500  12.7500   9.5000 Du        
   5884 ****        -7.2500  12.7500   9.7500 Du        
   5885 ****        -7.2500  12.7500  27.2500 Du        
   5886 ****        -7.2500  12.7500  27.5000 Du        
   5887 ****        -7.2500  12.7500  27.7500 Du        
   5888 ****        -7.2500  12.7500  28.0000 Du        
   5889 ****        -7.2500  12.7500  28.2500 Du        
   5890 ****        -7.2500  12.7500  28.5000 Du        
   5891 ****        -7.2500  12.7500  28.7500 Du        
   5892 ****        -7.2500  12.7500  29.0000 Du        
   5893 ****        -7.2500  12.7500  29.2500 Du        
   5894 ****        -7.2500  12.7500  29.5000 Du        
   5895 ****        -7.2500  12.7500  29.7500 Du        
   5896 ****        -7.2500  12.7500  30.0000 Du        
   5897 ****        -7.2500  12.7500  30.2500 Du        
   5898 ****        -7.2500  13.0000  27.2500 Du        
   5899 ****        -7.2500  13.0000  27.5000 Du        
   5900 ****        -7.2500  13.0000  27.7500 Du        
   5901 ****        -7.2500  13.0000  28.0000 Du        
   5902 ****        -7.2500  13.0000  28.2500 Du        
   5903 ****        -7.2500  13.0000  28.5000 Du        
   5904 ****        -7.2500  13.0000  28.7500 Du        
   5905 ****        -7.2500  13.0000  29.0000 Du        
   5906 ****        -7.2500  13.0000  29.2500 Du        
   5907 ****        -7.2500  13.0000  29.5000 Du        
   5908 ****        -7.2500  13.0000  29.7500 Du        
   5909 ****        -7.2500  13.0000  30.0000 Du        
   5910 ****        -7.2500  13.0000  30.2500 Du        
   5911 ****        -7.2500  13.2500  27.5000 Du        
   5912 ****        -7.2500  13.2500  27.7500 Du        
   5913 ****        -7.2500  13.2500  28.0000 Du        
   5914 ****        -7.2500  13.2500  28.2500 Du        
   5915 ****        -7.2500  13.2500  28.5000 Du        
   5916 ****        -7.2500  13.2500  28.7500 Du        
   5917 ****        -7.2500  13.2500  29.0000 Du        
   5918 ****        -7.2500  13.2500  29.2500 Du        
   5919 ****        -7.2500  13.2500  29.5000 Du        
   5920 ****        -7.2500  13.2500  29.7500 Du        
   5921 ****        -7.2500  13.2500  30.0000 Du        
   5922 ****        -7.2500  13.2500  30.2500 Du        
   5923 ****        -7.2500  13.5000  27.7500 Du        
   5924 ****        -7.2500  13.5000  28.0000 Du        
   5925 ****        -7.2500  13.5000  28.2500 Du        
   5926 ****        -7.2500  13.5000  28.5000 Du        
   5927 ****        -7.2500  13.5000  28.7500 Du        
   5928 ****        -7.2500  13.5000  29.0000 Du        
   5929 ****        -7.2500  13.5000  29.2500 Du        
   5930 ****        -7.2500  13.5000  29.5000 Du        
   5931 ****        -7.2500  13.5000  29.7500 Du        
   5932 ****        -7.2500  13.5000  30.0000 Du        
   5933 ****        -7.2500  13.5000  30.2500 Du        
   5934 ****        -7.2500  13.7500  28.0000 Du        
   5935 ****        -7.2500  13.7500  28.2500 Du        
   5936 ****        -7.2500  13.7500  28.5000 Du        
   5937 ****        -7.2500  13.7500  28.7500 Du        
   5938 ****        -7.2500  13.7500  29.0000 Du        
   5939 ****        -7.2500  13.7500  29.2500 Du        
   5940 ****        -7.2500  13.7500  29.5000 Du        
   5941 ****        -7.2500  13.7500  29.7500 Du        
   5942 ****        -7.2500  13.7500  30.0000 Du        
   5943 ****        -7.2500  13.7500  30.2500 Du        
   5944 ****        -7.2500  14.0000  28.0000 Du        
   5945 ****        -7.2500  14.0000  28.2500 Du        
   5946 ****        -7.2500  14.0000  28.5000 Du        
   5947 ****        -7.2500  14.0000  28.7500 Du        
   5948 ****        -7.2500  14.0000  29.0000 Du        
   5949 ****        -7.2500  14.0000  29.2500 Du        
   5950 ****        -7.2500  14.0000  29.5000 Du        
   5951 ****        -7.2500  14.0000  29.7500 Du        
   5952 ****        -7.2500  14.0000  30.0000 Du        
   5953 ****        -7.2500  14.2500  28.2500 Du        
   5954 ****        -7.2500  14.2500  28.5000 Du        
   5955 ****        -7.2500  14.2500  28.7500 Du        
   5956 ****        -7.2500  14.2500  29.0000 Du        
   5957 ****        -7.2500  14.2500  29.2500 Du        
   5958 ****        -7.2500  14.2500  29.5000 Du        
   5959 ****        -7.2500  14.2500  29.7500 Du        
   5960 ****        -7.2500  14.5000  28.2500 Du        
   5961 ****        -7.2500  14.5000  28.5000 Du        
   5962 ****        -7.2500  14.5000  28.7500 Du        
   5963 ****        -7.2500  14.5000  29.0000 Du        
   5964 ****        -7.2500  14.5000  29.2500 Du        
   5965 ****        -7.2500  14.5000  29.5000 Du        
   5966 ****        -7.2500  14.5000  34.7500 Du        
   5967 ****        -7.2500  14.7500  28.2500 Du        
   5968 ****        -7.2500  14.7500  28.5000 Du        
   5969 ****        -7.2500  14.7500  28.7500 Du        
   5970 ****        -7.2500  14.7500  29.0000 Du        
   5971 ****        -7.2500  14.7500  29.2500 Du        
   5972 ****        -7.2500  14.7500  34.7500 Du        
   5973 ****        -7.2500  14.7500  35.0000 Du        
   5974 ****        -7.2500  15.0000  28.5000 Du        
   5975 ****        -7.2500  15.0000  28.7500 Du        
   5976 ****        -7.2500  15.0000  29.0000 Du        
   5977 ****        -7.2500  15.0000  35.0000 Du        
   5978 ****        -7.2500  15.0000  35.2500 Du        
   5979 ****        -7.2500  15.2500  35.2500 Du        
   5980 ****        -7.2500  15.5000  35.2500 Du        
   5981 ****        -7.2500  16.0000   3.0000 Du        
   5982 ****        -7.2500  16.2500   2.7500 Du        
   5983 ****        -7.2500  16.2500   3.0000 Du        
   5984 ****        -7.2500  16.2500   3.2500 Du        
   5985 ****        -7.2500  16.5000   2.5000 Du        
   5986 ****        -7.2500  16.5000   2.7500 Du        
   5987 ****        -7.2500  16.5000   3.0000 Du        
   5988 ****        -7.2500  16.5000   3.2500 Du        
   5989 ****        -7.2500  16.5000   3.5000 Du        
   5990 ****        -7.2500  16.7500   2.5000 Du        
   5991 ****        -7.2500  16.7500   2.7500 Du        
   5992 ****        -7.2500  16.7500   3.0000 Du        
   5993 ****        -7.2500  16.7500   3.2500 Du        
   5994 ****        -7.2500  16.7500   3.5000 Du        
   5995 ****        -7.2500  17.0000   2.5000 Du        
   5996 ****        -7.2500  17.0000   2.7500 Du        
   5997 ****        -7.2500  17.0000   3.0000 Du        
   5998 ****        -7.2500  17.0000   3.2500 Du        
   5999 ****        -7.2500  17.0000   3.5000 Du        
   6000 ****        -7.2500  17.2500   2.5000 Du        
   6001 ****        -7.2500  17.2500   2.7500 Du        
   6002 ****        -7.2500  17.2500   3.0000 Du        
   6003 ****        -7.2500  17.2500   3.2500 Du        
   6004 ****        -7.2500  17.2500   3.5000 Du        
   6005 ****        -7.2500  17.5000   3.5000 Du        
   6006 ****        -7.0000  -4.0000  -1.5000 Du        
   6007 ****        -7.0000  -1.0000  21.2500 Du        
   6008 ****        -7.0000  -1.0000  21.5000 Du        
   6009 ****        -7.0000  -1.0000  21.7500 Du        
   6010 ****        -7.0000  -1.0000  22.0000 Du        
   6011 ****        -7.0000  -0.7500  21.0000 Du        
   6012 ****        -7.0000  -0.7500  21.2500 Du        
   6013 ****        -7.0000  -0.7500  21.5000 Du        
   6014 ****        -7.0000  -0.7500  21.7500 Du        
   6015 ****        -7.0000  -0.7500  22.0000 Du        
   6016 ****        -7.0000  -0.7500  22.2500 Du        
   6017 ****        -7.0000  -0.5000  21.0000 Du        
   6018 ****        -7.0000  -0.5000  21.2500 Du        
   6019 ****        -7.0000  -0.5000  21.5000 Du        
   6020 ****        -7.0000  -0.5000  21.7500 Du        
   6021 ****        -7.0000  -0.5000  22.0000 Du        
   6022 ****        -7.0000  -0.5000  22.2500 Du        
   6023 ****        -7.0000  -0.2500  20.7500 Du        
   6024 ****        -7.0000  -0.2500  21.0000 Du        
   6025 ****        -7.0000  -0.2500  21.2500 Du        
   6026 ****        -7.0000  -0.2500  21.5000 Du        
   6027 ****        -7.0000  -0.2500  21.7500 Du        
   6028 ****        -7.0000  -0.2500  22.0000 Du        
   6029 ****        -7.0000  -0.2500  22.2500 Du        
   6030 ****        -7.0000   0.0000  20.7500 Du        
   6031 ****        -7.0000   0.0000  21.0000 Du        
   6032 ****        -7.0000   0.0000  21.2500 Du        
   6033 ****        -7.0000   0.0000  21.5000 Du        
   6034 ****        -7.0000   0.0000  21.7500 Du        
   6035 ****        -7.0000   0.0000  22.0000 Du        
   6036 ****        -7.0000   0.0000  22.2500 Du        
   6037 ****        -7.0000   0.2500  20.7500 Du        
   6038 ****        -7.0000   0.2500  21.0000 Du        
   6039 ****        -7.0000   0.2500  21.2500 Du        
   6040 ****        -7.0000   0.2500  21.5000 Du        
   6041 ****        -7.0000   0.2500  21.7500 Du        
   6042 ****        -7.0000   0.2500  22.0000 Du        
   6043 ****        -7.0000   0.5000  20.7500 Du        
   6044 ****        -7.0000   0.5000  21.0000 Du        
   6045 ****        -7.0000   0.5000  21.2500 Du        
   6046 ****        -7.0000   0.5000  21.5000 Du        
   6047 ****        -7.0000   5.5000   9.5000 Du        
   6048 ****        -7.0000   5.5000   9.7500 Du        
   6049 ****        -7.0000   5.7500   9.2500 Du        
   6050 ****        -7.0000   5.7500   9.5000 Du        
   6051 ****        -7.0000   5.7500   9.7500 Du        
   6052 ****        -7.0000   5.7500  10.0000 Du        
   6053 ****        -7.0000   5.7500  10.2500 Du        
   6054 ****        -7.0000   6.0000   9.2500 Du        
   6055 ****        -7.0000   6.0000   9.5000 Du        
   6056 ****        -7.0000   6.0000   9.7500 Du        
   6057 ****        -7.0000   6.0000  10.0000 Du        
   6058 ****        -7.0000   6.0000  10.2500 Du        
   6059 ****        -7.0000   6.2500   9.5000 Du        
   6060 ****        -7.0000   6.2500   9.7500 Du        
   6061 ****        -7.0000   6.2500  10.0000 Du        
   6062 ****        -7.0000   6.2500  10.2500 Du        
   6063 ****        -7.0000   6.5000   9.7500 Du        
   6064 ****        -7.0000  11.0000  29.0000 Du        
   6065 ****        -7.0000  11.2500  28.5000 Du        
   6066 ****        -7.0000  11.2500  28.7500 Du        
   6067 ****        -7.0000  11.2500  29.0000 Du        
   6068 ****        -7.0000  11.5000  27.7500 Du        
   6069 ****        -7.0000  11.5000  28.0000 Du        
   6070 ****        -7.0000  11.5000  28.2500 Du        
   6071 ****        -7.0000  11.5000  28.5000 Du        
   6072 ****        -7.0000  11.5000  28.7500 Du        
   6073 ****        -7.0000  11.5000  29.0000 Du        
   6074 ****        -7.0000  11.5000  29.2500 Du        
   6075 ****        -7.0000  11.7500   9.5000 Du        
   6076 ****        -7.0000  11.7500  27.5000 Du        
   6077 ****        -7.0000  11.7500  27.7500 Du        
   6078 ****        -7.0000  11.7500  28.0000 Du        
   6079 ****        -7.0000  11.7500  28.2500 Du        
   6080 ****        -7.0000  11.7500  28.5000 Du        
   6081 ****        -7.0000  11.7500  28.7500 Du        
   6082 ****        -7.0000  11.7500  29.0000 Du        
   6083 ****        -7.0000  11.7500  29.2500 Du        
   6084 ****        -7.0000  12.0000   9.5000 Du        
   6085 ****        -7.0000  12.0000   9.7500 Du        
   6086 ****        -7.0000  12.0000  27.2500 Du        
   6087 ****        -7.0000  12.0000  27.5000 Du        
   6088 ****        -7.0000  12.0000  27.7500 Du        
   6089 ****        -7.0000  12.0000  28.0000 Du        
   6090 ****        -7.0000  12.0000  28.2500 Du        
   6091 ****        -7.0000  12.0000  28.5000 Du        
   6092 ****        -7.0000  12.0000  28.7500 Du        
   6093 ****        -7.0000  12.0000  29.0000 Du        
   6094 ****        -7.0000  12.0000  29.2500 Du        
   6095 ****        -7.0000  12.0000  29.5000 Du        
   6096 ****        -7.0000  12.0000  29.7500 Du        
   6097 ****        -7.0000  12.0000  30.0000 Du        
   6098 ****        -7.0000  12.2500   9.5000 Du        
   6099 ****        -7.0000  12.2500   9.7500 Du        
   6100 ****        -7.0000  12.2500  27.2500 Du        
   6101 ****        -7.0000  12.2500  27.5000 Du        
   6102 ****        -7.0000  12.2500  27.7500 Du        
   6103 ****        -7.0000  12.2500  28.0000 Du        
   6104 ****        -7.0000  12.2500  28.2500 Du        
   6105 ****        -7.0000  12.2500  28.5000 Du        
   6106 ****        -7.0000  12.2500  28.7500 Du        
   6107 ****        -7.0000  12.2500  29.0000 Du        
   6108 ****        -7.0000  12.2500  29.2500 Du        
   6109 ****        -7.0000  12.2500  29.5000 Du        
   6110 ****        -7.0000  12.2500  29.7500 Du        
   6111 ****        -7.0000  12.2500  30.0000 Du        
   6112 ****        -7.0000  12.5000   9.5000 Du        
   6113 ****        -7.0000  12.5000   9.7500 Du        
   6114 ****        -7.0000  12.5000  10.0000 Du        
   6115 ****        -7.0000  12.5000  27.0000 Du        
   6116 ****        -7.0000  12.5000  27.2500 Du        
   6117 ****        -7.0000  12.5000  27.5000 Du        
   6118 ****        -7.0000  12.5000  27.7500 Du        
   6119 ****        -7.0000  12.5000  28.0000 Du        
   6120 ****        -7.0000  12.5000  28.2500 Du        
   6121 ****        -7.0000  12.5000  28.5000 Du        
   6122 ****        -7.0000  12.5000  28.7500 Du        
   6123 ****        -7.0000  12.5000  29.0000 Du        
   6124 ****        -7.0000  12.5000  29.2500 Du        
   6125 ****        -7.0000  12.5000  29.5000 Du        
   6126 ****        -7.0000  12.5000  29.7500 Du        
   6127 ****        -7.0000  12.5000  30.0000 Du        
   6128 ****        -7.0000  12.5000  30.2500 Du        
   6129 ****        -7.0000  12.7500  27.2500 Du        
   6130 ****        -7.0000  12.7500  27.5000 Du        
   6131 ****        -7.0000  12.7500  27.7500 Du        
   6132 ****        -7.0000  12.7500  28.0000 Du        
   6133 ****        -7.0000  12.7500  28.2500 Du        
   6134 ****        -7.0000  12.7500  28.5000 Du        
   6135 ****        -7.0000  12.7500  28.7500 Du        
   6136 ****        -7.0000  12.7500  29.0000 Du        
   6137 ****        -7.0000  12.7500  29.2500 Du        
   6138 ****        -7.0000  12.7500  29.5000 Du        
   6139 ****        -7.0000  12.7500  29.7500 Du        
   6140 ****        -7.0000  12.7500  30.0000 Du        
   6141 ****        -7.0000  12.7500  30.2500 Du        
   6142 ****        -7.0000  13.0000  27.5000 Du        
   6143 ****        -7.0000  13.0000  27.7500 Du        
   6144 ****        -7.0000  13.0000  28.0000 Du        
   6145 ****        -7.0000  13.0000  28.2500 Du        
   6146 ****        -7.0000  13.0000  28.5000 Du        
   6147 ****        -7.0000  13.0000  28.7500 Du        
   6148 ****        -7.0000  13.0000  29.0000 Du        
   6149 ****        -7.0000  13.0000  29.2500 Du        
   6150 ****        -7.0000  13.0000  29.5000 Du        
   6151 ****        -7.0000  13.0000  29.7500 Du        
   6152 ****        -7.0000  13.0000  30.0000 Du        
   6153 ****        -7.0000  13.0000  30.2500 Du        
   6154 ****        -7.0000  13.0000  30.5000 Du        
   6155 ****        -7.0000  13.0000  30.7500 Du        
   6156 ****        -7.0000  13.0000  31.0000 Du        
   6157 ****        -7.0000  13.2500  27.7500 Du        
   6158 ****        -7.0000  13.2500  28.0000 Du        
   6159 ****        -7.0000  13.2500  28.2500 Du        
   6160 ****        -7.0000  13.2500  28.5000 Du        
   6161 ****        -7.0000  13.2500  28.7500 Du        
   6162 ****        -7.0000  13.2500  29.0000 Du        
   6163 ****        -7.0000  13.2500  29.2500 Du        
   6164 ****        -7.0000  13.2500  29.5000 Du        
   6165 ****        -7.0000  13.2500  29.7500 Du        
   6166 ****        -7.0000  13.2500  30.0000 Du        
   6167 ****        -7.0000  13.2500  30.2500 Du        
   6168 ****        -7.0000  13.2500  30.5000 Du        
   6169 ****        -7.0000  13.2500  30.7500 Du        
   6170 ****        -7.0000  13.2500  31.0000 Du        
   6171 ****        -7.0000  13.5000  28.0000 Du        
   6172 ****        -7.0000  13.5000  28.2500 Du        
   6173 ****        -7.0000  13.5000  28.5000 Du        
   6174 ****        -7.0000  13.5000  28.7500 Du        
   6175 ****        -7.0000  13.5000  29.0000 Du        
   6176 ****        -7.0000  13.5000  29.2500 Du        
   6177 ****        -7.0000  13.5000  29.5000 Du        
   6178 ****        -7.0000  13.5000  29.7500 Du        
   6179 ****        -7.0000  13.5000  30.0000 Du        
   6180 ****        -7.0000  13.5000  30.2500 Du        
   6181 ****        -7.0000  13.5000  30.5000 Du        
   6182 ****        -7.0000  13.5000  30.7500 Du        
   6183 ****        -7.0000  13.5000  31.0000 Du        
   6184 ****        -7.0000  13.7500  28.0000 Du        
   6185 ****        -7.0000  13.7500  28.2500 Du        
   6186 ****        -7.0000  13.7500  28.5000 Du        
   6187 ****        -7.0000  13.7500  28.7500 Du        
   6188 ****        -7.0000  13.7500  29.0000 Du        
   6189 ****        -7.0000  13.7500  29.2500 Du        
   6190 ****        -7.0000  13.7500  29.5000 Du        
   6191 ****        -7.0000  13.7500  29.7500 Du        
   6192 ****        -7.0000  13.7500  30.0000 Du        
   6193 ****        -7.0000  13.7500  30.2500 Du        
   6194 ****        -7.0000  13.7500  30.5000 Du        
   6195 ****        -7.0000  13.7500  32.7500 Du        
   6196 ****        -7.0000  14.0000  28.2500 Du        
   6197 ****        -7.0000  14.0000  28.5000 Du        
   6198 ****        -7.0000  14.0000  28.7500 Du        
   6199 ****        -7.0000  14.0000  29.0000 Du        
   6200 ****        -7.0000  14.0000  29.2500 Du        
   6201 ****        -7.0000  14.0000  29.5000 Du        
   6202 ****        -7.0000  14.0000  29.7500 Du        
   6203 ****        -7.0000  14.0000  30.0000 Du        
   6204 ****        -7.0000  14.0000  30.2500 Du        
   6205 ****        -7.0000  14.2500  28.5000 Du        
   6206 ****        -7.0000  14.2500  28.7500 Du        
   6207 ****        -7.0000  14.2500  29.0000 Du        
   6208 ****        -7.0000  14.2500  29.2500 Du        
   6209 ****        -7.0000  14.2500  29.5000 Du        
   6210 ****        -7.0000  14.2500  29.7500 Du        
   6211 ****        -7.0000  14.2500  30.0000 Du        
   6212 ****        -7.0000  14.2500  34.0000 Du        
   6213 ****        -7.0000  14.5000  28.5000 Du        
   6214 ****        -7.0000  14.5000  28.7500 Du        
   6215 ****        -7.0000  14.5000  29.0000 Du        
   6216 ****        -7.0000  14.5000  29.2500 Du        
   6217 ****        -7.0000  14.5000  29.5000 Du        
   6218 ****        -7.0000  14.5000  29.7500 Du        
   6219 ****        -7.0000  14.5000  34.0000 Du        
   6220 ****        -7.0000  14.5000  34.2500 Du        
   6221 ****        -7.0000  14.5000  34.5000 Du        
   6222 ****        -7.0000  14.5000  34.7500 Du        
   6223 ****        -7.0000  14.5000  35.0000 Du        
   6224 ****        -7.0000  14.7500  28.5000 Du        
   6225 ****        -7.0000  14.7500  28.7500 Du        
   6226 ****        -7.0000  14.7500  29.0000 Du        
   6227 ****        -7.0000  14.7500  29.2500 Du        
   6228 ****        -7.0000  14.7500  29.5000 Du        
   6229 ****        -7.0000  14.7500  34.2500 Du        
   6230 ****        -7.0000  14.7500  34.5000 Du        
   6231 ****        -7.0000  14.7500  34.7500 Du        
   6232 ****        -7.0000  14.7500  35.0000 Du        
   6233 ****        -7.0000  14.7500  35.2500 Du        
   6234 ****        -7.0000  15.0000  28.5000 Du        
   6235 ****        -7.0000  15.0000  28.7500 Du        
   6236 ****        -7.0000  15.0000  29.0000 Du        
   6237 ****        -7.0000  15.0000  29.2500 Du        
   6238 ****        -7.0000  15.0000  34.5000 Du        
   6239 ****        -7.0000  15.0000  34.7500 Du        
   6240 ****        -7.0000  15.0000  35.0000 Du        
   6241 ****        -7.0000  15.0000  35.2500 Du        
   6242 ****        -7.0000  15.2500  28.7500 Du        
   6243 ****        -7.0000  15.2500  34.7500 Du        
   6244 ****        -7.0000  15.2500  35.0000 Du        
   6245 ****        -7.0000  15.2500  35.2500 Du        
   6246 ****        -7.0000  15.5000  35.0000 Du        
   6247 ****        -7.0000  15.5000  35.2500 Du        
   6248 ****        -7.0000  15.7500   3.0000 Du        
   6249 ****        -7.0000  16.0000   2.7500 Du        
   6250 ****        -7.0000  16.0000   3.0000 Du        
   6251 ****        -7.0000  16.0000   3.2500 Du        
   6252 ****        -7.0000  16.2500   2.7500 Du        
   6253 ****        -7.0000  16.2500   3.0000 Du        
   6254 ****        -7.0000  16.2500   3.2500 Du        
   6255 ****        -7.0000  16.5000   2.5000 Du        
   6256 ****        -7.0000  16.5000   2.7500 Du        
   6257 ****        -7.0000  16.5000   3.0000 Du        
   6258 ****        -7.0000  16.5000   3.2500 Du        
   6259 ****        -7.0000  16.5000   3.5000 Du        
   6260 ****        -7.0000  16.7500   2.5000 Du        
   6261 ****        -7.0000  16.7500   2.7500 Du        
   6262 ****        -7.0000  16.7500   3.0000 Du        
   6263 ****        -7.0000  16.7500   3.2500 Du        
   6264 ****        -7.0000  16.7500   3.5000 Du        
   6265 ****        -7.0000  16.7500   3.7500 Du        
   6266 ****        -7.0000  17.0000   2.5000 Du        
   6267 ****        -7.0000  17.0000   2.7500 Du        
   6268 ****        -7.0000  17.0000   3.0000 Du        
   6269 ****        -7.0000  17.0000   3.2500 Du        
   6270 ****        -7.0000  17.0000   3.5000 Du        
   6271 ****        -7.0000  17.0000   3.7500 Du        
   6272 ****        -7.0000  17.0000   4.0000 Du        
   6273 ****        -6.7500  -4.0000  -1.5000 Du        
   6274 ****        -6.7500  -1.2500  21.2500 Du        
   6275 ****        -6.7500  -1.2500  21.7500 Du        
   6276 ****        -6.7500  -1.0000  21.0000 Du        
   6277 ****        -6.7500  -1.0000  21.2500 Du        
   6278 ****        -6.7500  -1.0000  21.5000 Du        
   6279 ****        -6.7500  -1.0000  21.7500 Du        
   6280 ****        -6.7500  -1.0000  22.0000 Du        
   6281 ****        -6.7500  -0.7500  20.7500 Du        
   6282 ****        -6.7500  -0.7500  21.0000 Du        
   6283 ****        -6.7500  -0.7500  21.2500 Du        
   6284 ****        -6.7500  -0.7500  21.5000 Du        
   6285 ****        -6.7500  -0.7500  21.7500 Du        
   6286 ****        -6.7500  -0.7500  22.0000 Du        
   6287 ****        -6.7500  -0.5000  20.5000 Du        
   6288 ****        -6.7500  -0.5000  20.7500 Du        
   6289 ****        -6.7500  -0.5000  21.0000 Du        
   6290 ****        -6.7500  -0.5000  21.2500 Du        
   6291 ****        -6.7500  -0.5000  21.5000 Du        
   6292 ****        -6.7500  -0.5000  21.7500 Du        
   6293 ****        -6.7500  -0.5000  22.0000 Du        
   6294 ****        -6.7500  -0.5000  22.2500 Du        
   6295 ****        -6.7500  -0.2500  20.5000 Du        
   6296 ****        -6.7500  -0.2500  20.7500 Du        
   6297 ****        -6.7500  -0.2500  21.0000 Du        
   6298 ****        -6.7500  -0.2500  21.2500 Du        
   6299 ****        -6.7500  -0.2500  21.5000 Du        
   6300 ****        -6.7500  -0.2500  21.7500 Du        
   6301 ****        -6.7500  -0.2500  22.0000 Du        
   6302 ****        -6.7500   0.0000  20.5000 Du        
   6303 ****        -6.7500   0.0000  20.7500 Du        
   6304 ****        -6.7500   0.0000  21.0000 Du        
   6305 ****        -6.7500   0.0000  21.2500 Du        
   6306 ****        -6.7500   0.0000  21.5000 Du        
   6307 ****        -6.7500   0.0000  21.7500 Du        
   6308 ****        -6.7500   0.0000  22.0000 Du        
   6309 ****        -6.7500   0.2500  20.5000 Du        
   6310 ****        -6.7500   0.2500  20.7500 Du        
   6311 ****        -6.7500   0.2500  21.0000 Du        
   6312 ****        -6.7500   0.2500  21.2500 Du        
   6313 ****        -6.7500   0.5000  20.5000 Du        
   6314 ****        -6.7500   0.5000  20.7500 Du        
   6315 ****        -6.7500   0.5000  21.0000 Du        
   6316 ****        -6.7500   5.5000   9.5000 Du        
   6317 ****        -6.7500   5.5000   9.7500 Du        
   6318 ****        -6.7500   5.5000  10.0000 Du        
   6319 ****        -6.7500   5.7500   9.5000 Du        
   6320 ****        -6.7500   5.7500   9.7500 Du        
   6321 ****        -6.7500   5.7500  10.0000 Du        
   6322 ****        -6.7500   5.7500  10.2500 Du        
   6323 ****        -6.7500   5.7500  10.5000 Du        
   6324 ****        -6.7500   6.0000   9.5000 Du        
   6325 ****        -6.7500   6.0000   9.7500 Du        
   6326 ****        -6.7500   6.0000  10.0000 Du        
   6327 ****        -6.7500   6.0000  10.2500 Du        
   6328 ****        -6.7500   6.0000  10.5000 Du        
   6329 ****        -6.7500   6.2500   9.5000 Du        
   6330 ****        -6.7500   6.2500   9.7500 Du        
   6331 ****        -6.7500   6.2500  10.0000 Du        
   6332 ****        -6.7500   6.2500  10.2500 Du        
   6333 ****        -6.7500   6.2500  10.5000 Du        
   6334 ****        -6.7500   6.5000   9.5000 Du        
   6335 ****        -6.7500   6.5000   9.7500 Du        
   6336 ****        -6.7500   6.5000  10.0000 Du        
   6337 ****        -6.7500   6.5000  10.2500 Du        
   6338 ****        -6.7500   6.5000  10.5000 Du        
   6339 ****        -6.7500   6.7500   9.7500 Du        
   6340 ****        -6.7500   6.7500  10.0000 Du        
   6341 ****        -6.7500   6.7500  10.2500 Du        
   6342 ****        -6.7500   7.0000  10.0000 Du        
   6343 ****        -6.7500  11.0000  28.5000 Du        
   6344 ****        -6.7500  11.0000  28.7500 Du        
   6345 ****        -6.7500  11.0000  29.0000 Du        
   6346 ****        -6.7500  11.0000  29.2500 Du        
   6347 ****        -6.7500  11.2500  28.0000 Du        
   6348 ****        -6.7500  11.2500  28.2500 Du        
   6349 ****        -6.7500  11.2500  28.5000 Du        
   6350 ****        -6.7500  11.2500  28.7500 Du        
   6351 ****        -6.7500  11.2500  29.0000 Du        
   6352 ****        -6.7500  11.2500  29.2500 Du        
   6353 ****        -6.7500  11.5000  27.5000 Du        
   6354 ****        -6.7500  11.5000  27.7500 Du        
   6355 ****        -6.7500  11.5000  28.0000 Du        
   6356 ****        -6.7500  11.5000  28.2500 Du        
   6357 ****        -6.7500  11.5000  28.5000 Du        
   6358 ****        -6.7500  11.5000  28.7500 Du        
   6359 ****        -6.7500  11.5000  29.0000 Du        
   6360 ****        -6.7500  11.5000  29.2500 Du        
   6361 ****        -6.7500  11.7500  27.2500 Du        
   6362 ****        -6.7500  11.7500  27.5000 Du        
   6363 ****        -6.7500  11.7500  27.7500 Du        
   6364 ****        -6.7500  11.7500  28.0000 Du        
   6365 ****        -6.7500  11.7500  28.2500 Du        
   6366 ****        -6.7500  11.7500  28.5000 Du        
   6367 ****        -6.7500  11.7500  28.7500 Du        
   6368 ****        -6.7500  11.7500  29.0000 Du        
   6369 ****        -6.7500  11.7500  29.2500 Du        
   6370 ****        -6.7500  11.7500  29.5000 Du        
   6371 ****        -6.7500  12.0000  27.2500 Du        
   6372 ****        -6.7500  12.0000  27.5000 Du        
   6373 ****        -6.7500  12.0000  27.7500 Du        
   6374 ****        -6.7500  12.0000  28.0000 Du        
   6375 ****        -6.7500  12.0000  28.2500 Du        
   6376 ****        -6.7500  12.0000  28.5000 Du        
   6377 ****        -6.7500  12.0000  28.7500 Du        
   6378 ****        -6.7500  12.0000  29.0000 Du        
   6379 ****        -6.7500  12.0000  29.2500 Du        
   6380 ****        -6.7500  12.0000  29.5000 Du        
   6381 ****        -6.7500  12.0000  29.7500 Du        
   6382 ****        -6.7500  12.0000  30.0000 Du        
   6383 ****        -6.7500  12.2500  27.2500 Du        
   6384 ****        -6.7500  12.2500  27.5000 Du        
   6385 ****        -6.7500  12.2500  27.7500 Du        
   6386 ****        -6.7500  12.2500  28.0000 Du        
   6387 ****        -6.7500  12.2500  28.2500 Du        
   6388 ****        -6.7500  12.2500  28.5000 Du        
   6389 ****        -6.7500  12.2500  28.7500 Du        
   6390 ****        -6.7500  12.2500  29.0000 Du        
   6391 ****        -6.7500  12.2500  29.2500 Du        
   6392 ****        -6.7500  12.2500  29.5000 Du        
   6393 ****        -6.7500  12.2500  29.7500 Du        
   6394 ****        -6.7500  12.2500  30.0000 Du        
   6395 ****        -6.7500  12.5000  27.2500 Du        
   6396 ****        -6.7500  12.5000  27.5000 Du        
   6397 ****        -6.7500  12.5000  27.7500 Du        
   6398 ****        -6.7500  12.5000  28.0000 Du        
   6399 ****        -6.7500  12.5000  28.2500 Du        
   6400 ****        -6.7500  12.5000  28.5000 Du        
   6401 ****        -6.7500  12.5000  28.7500 Du        
   6402 ****        -6.7500  12.5000  29.0000 Du        
   6403 ****        -6.7500  12.5000  29.2500 Du        
   6404 ****        -6.7500  12.5000  29.5000 Du        
   6405 ****        -6.7500  12.5000  29.7500 Du        
   6406 ****        -6.7500  12.5000  30.0000 Du        
   6407 ****        -6.7500  12.5000  30.2500 Du        
   6408 ****        -6.7500  12.7500  27.2500 Du        
   6409 ****        -6.7500  12.7500  27.5000 Du        
   6410 ****        -6.7500  12.7500  27.7500 Du        
   6411 ****        -6.7500  12.7500  28.0000 Du        
   6412 ****        -6.7500  12.7500  28.2500 Du        
   6413 ****        -6.7500  12.7500  28.5000 Du        
   6414 ****        -6.7500  12.7500  28.7500 Du        
   6415 ****        -6.7500  12.7500  29.0000 Du        
   6416 ****        -6.7500  12.7500  29.2500 Du        
   6417 ****        -6.7500  12.7500  29.5000 Du        
   6418 ****        -6.7500  12.7500  29.7500 Du        
   6419 ****        -6.7500  12.7500  30.0000 Du        
   6420 ****        -6.7500  12.7500  30.2500 Du        
   6421 ****        -6.7500  13.0000  27.5000 Du        
   6422 ****        -6.7500  13.0000  27.7500 Du        
   6423 ****        -6.7500  13.0000  28.0000 Du        
   6424 ****        -6.7500  13.0000  28.2500 Du        
   6425 ****        -6.7500  13.0000  28.5000 Du        
   6426 ****        -6.7500  13.0000  28.7500 Du        
   6427 ****        -6.7500  13.0000  29.0000 Du        
   6428 ****        -6.7500  13.0000  29.2500 Du        
   6429 ****        -6.7500  13.0000  29.5000 Du        
   6430 ****        -6.7500  13.0000  29.7500 Du        
   6431 ****        -6.7500  13.0000  30.0000 Du        
   6432 ****        -6.7500  13.0000  30.2500 Du        
   6433 ****        -6.7500  13.0000  30.5000 Du        
   6434 ****        -6.7500  13.0000  30.7500 Du        
   6435 ****        -6.7500  13.0000  31.0000 Du        
   6436 ****        -6.7500  13.2500  27.7500 Du        
   6437 ****        -6.7500  13.2500  28.0000 Du        
   6438 ****        -6.7500  13.2500  28.2500 Du        
   6439 ****        -6.7500  13.2500  28.5000 Du        
   6440 ****        -6.7500  13.2500  28.7500 Du        
   6441 ****        -6.7500  13.2500  29.0000 Du        
   6442 ****        -6.7500  13.2500  29.2500 Du        
   6443 ****        -6.7500  13.2500  29.5000 Du        
   6444 ****        -6.7500  13.2500  29.7500 Du        
   6445 ****        -6.7500  13.2500  30.0000 Du        
   6446 ****        -6.7500  13.2500  30.2500 Du        
   6447 ****        -6.7500  13.2500  30.5000 Du        
   6448 ****        -6.7500  13.2500  30.7500 Du        
   6449 ****        -6.7500  13.2500  31.0000 Du        
   6450 ****        -6.7500  13.2500  31.2500 Du        
   6451 ****        -6.7500  13.5000  28.0000 Du        
   6452 ****        -6.7500  13.5000  28.2500 Du        
   6453 ****        -6.7500  13.5000  28.5000 Du        
   6454 ****        -6.7500  13.5000  28.7500 Du        
   6455 ****        -6.7500  13.5000  29.0000 Du        
   6456 ****        -6.7500  13.5000  29.2500 Du        
   6457 ****        -6.7500  13.5000  29.5000 Du        
   6458 ****        -6.7500  13.5000  29.7500 Du        
   6459 ****        -6.7500  13.5000  30.0000 Du        
   6460 ****        -6.7500  13.5000  30.2500 Du        
   6461 ****        -6.7500  13.5000  30.5000 Du        
   6462 ****        -6.7500  13.5000  30.7500 Du        
   6463 ****        -6.7500  13.5000  31.0000 Du        
   6464 ****        -6.7500  13.5000  31.2500 Du        
   6465 ****        -6.7500  13.5000  32.0000 Du        
   6466 ****        -6.7500  13.5000  32.2500 Du        
   6467 ****        -6.7500  13.7500  28.2500 Du        
   6468 ****        -6.7500  13.7500  28.5000 Du        
   6469 ****        -6.7500  13.7500  28.7500 Du        
   6470 ****        -6.7500  13.7500  29.0000 Du        
   6471 ****        -6.7500  13.7500  29.2500 Du        
   6472 ****        -6.7500  13.7500  29.5000 Du        
   6473 ****        -6.7500  13.7500  29.7500 Du        
   6474 ****        -6.7500  13.7500  30.0000 Du        
   6475 ****        -6.7500  13.7500  30.2500 Du        
   6476 ****        -6.7500  13.7500  30.5000 Du        
   6477 ****        -6.7500  13.7500  30.7500 Du        
   6478 ****        -6.7500  13.7500  31.0000 Du        
   6479 ****        -6.7500  13.7500  31.2500 Du        
   6480 ****        -6.7500  13.7500  31.7500 Du        
   6481 ****        -6.7500  13.7500  32.0000 Du        
   6482 ****        -6.7500  13.7500  32.2500 Du        
   6483 ****        -6.7500  13.7500  32.5000 Du        
   6484 ****        -6.7500  13.7500  32.7500 Du        
   6485 ****        -6.7500  13.7500  33.0000 Du        
   6486 ****        -6.7500  14.0000  28.5000 Du        
   6487 ****        -6.7500  14.0000  28.7500 Du        
   6488 ****        -6.7500  14.0000  29.0000 Du        
   6489 ****        -6.7500  14.0000  29.2500 Du        
   6490 ****        -6.7500  14.0000  29.5000 Du        
   6491 ****        -6.7500  14.0000  29.7500 Du        
   6492 ****        -6.7500  14.0000  30.0000 Du        
   6493 ****        -6.7500  14.0000  30.2500 Du        
   6494 ****        -6.7500  14.0000  30.5000 Du        
   6495 ****        -6.7500  14.0000  30.7500 Du        
   6496 ****        -6.7500  14.0000  31.0000 Du        
   6497 ****        -6.7500  14.0000  32.5000 Du        
   6498 ****        -6.7500  14.0000  32.7500 Du        
   6499 ****        -6.7500  14.0000  33.0000 Du        
   6500 ****        -6.7500  14.0000  33.2500 Du        
   6501 ****        -6.7500  14.2500  28.5000 Du        
   6502 ****        -6.7500  14.2500  28.7500 Du        
   6503 ****        -6.7500  14.2500  29.0000 Du        
   6504 ****        -6.7500  14.2500  29.2500 Du        
   6505 ****        -6.7500  14.2500  29.5000 Du        
   6506 ****        -6.7500  14.2500  29.7500 Du        
   6507 ****        -6.7500  14.2500  30.0000 Du        
   6508 ****        -6.7500  14.2500  30.2500 Du        
   6509 ****        -6.7500  14.2500  33.0000 Du        
   6510 ****        -6.7500  14.2500  33.2500 Du        
   6511 ****        -6.7500  14.2500  33.5000 Du        
   6512 ****        -6.7500  14.2500  33.7500 Du        
   6513 ****        -6.7500  14.2500  34.0000 Du        
   6514 ****        -6.7500  14.5000  28.5000 Du        
   6515 ****        -6.7500  14.5000  28.7500 Du        
   6516 ****        -6.7500  14.5000  29.0000 Du        
   6517 ****        -6.7500  14.5000  29.2500 Du        
   6518 ****        -6.7500  14.5000  29.5000 Du        
   6519 ****        -6.7500  14.5000  29.7500 Du        
   6520 ****        -6.7500  14.5000  30.0000 Du        
   6521 ****        -6.7500  14.5000  30.2500 Du        
   6522 ****        -6.7500  14.5000  33.5000 Du        
   6523 ****        -6.7500  14.5000  33.7500 Du        
   6524 ****        -6.7500  14.5000  34.0000 Du        
   6525 ****        -6.7500  14.5000  34.2500 Du        
   6526 ****        -6.7500  14.5000  34.5000 Du        
   6527 ****        -6.7500  14.5000  34.7500 Du        
   6528 ****        -6.7500  14.5000  35.0000 Du        
   6529 ****        -6.7500  14.7500  28.7500 Du        
   6530 ****        -6.7500  14.7500  29.0000 Du        
   6531 ****        -6.7500  14.7500  29.2500 Du        
   6532 ****        -6.7500  14.7500  29.5000 Du        
   6533 ****        -6.7500  14.7500  29.7500 Du        
   6534 ****        -6.7500  14.7500  33.7500 Du        
   6535 ****        -6.7500  14.7500  34.0000 Du        
   6536 ****        -6.7500  14.7500  34.2500 Du        
   6537 ****        -6.7500  14.7500  34.5000 Du        
   6538 ****        -6.7500  14.7500  34.7500 Du        
   6539 ****        -6.7500  14.7500  35.0000 Du        
   6540 ****        -6.7500  14.7500  35.2500 Du        
   6541 ****        -6.7500  15.0000  28.7500 Du        
   6542 ****        -6.7500  15.0000  29.0000 Du        
   6543 ****        -6.7500  15.0000  29.2500 Du        
   6544 ****        -6.7500  15.0000  29.5000 Du        
   6545 ****        -6.7500  15.0000  34.0000 Du        
   6546 ****        -6.7500  15.0000  34.2500 Du        
   6547 ****        -6.7500  15.0000  34.5000 Du        
   6548 ****        -6.7500  15.0000  34.7500 Du        
   6549 ****        -6.7500  15.0000  35.0000 Du        
   6550 ****        -6.7500  15.0000  35.2500 Du        
   6551 ****        -6.7500  15.2500  28.7500 Du        
   6552 ****        -6.7500  15.2500  29.0000 Du        
   6553 ****        -6.7500  15.2500  29.2500 Du        
   6554 ****        -6.7500  15.2500  34.2500 Du        
   6555 ****        -6.7500  15.2500  34.5000 Du        
   6556 ****        -6.7500  15.2500  34.7500 Du        
   6557 ****        -6.7500  15.2500  35.0000 Du        
   6558 ****        -6.7500  15.2500  35.2500 Du        
   6559 ****        -6.7500  15.5000  34.7500 Du        
   6560 ****        -6.7500  15.5000  35.0000 Du        
   6561 ****        -6.7500  16.0000   2.7500 Du        
   6562 ****        -6.7500  16.0000   3.0000 Du        
   6563 ****        -6.7500  16.2500   2.5000 Du        
   6564 ****        -6.7500  16.2500   2.7500 Du        
   6565 ****        -6.7500  16.2500   3.0000 Du        
   6566 ****        -6.7500  16.5000   2.2500 Du        
   6567 ****        -6.7500  16.5000   2.5000 Du        
   6568 ****        -6.7500  16.5000   2.7500 Du        
   6569 ****        -6.7500  16.5000   3.0000 Du        
   6570 ****        -6.7500  16.5000   3.2500 Du        
   6571 ****        -6.7500  16.7500   2.2500 Du        
   6572 ****        -6.7500  16.7500   2.5000 Du        
   6573 ****        -6.7500  16.7500   2.7500 Du        
   6574 ****        -6.7500  16.7500   3.0000 Du        
   6575 ****        -6.7500  16.7500   3.2500 Du        
   6576 ****        -6.7500  16.7500   3.5000 Du        
   6577 ****        -6.7500  19.2500   5.7500 Du        
   6578 ****        -6.5000  -4.0000  -1.7500 Du        
   6579 ****        -6.5000  -4.0000  -1.5000 Du        
   6580 ****        -6.5000  -1.2500  21.0000 Du        
   6581 ****        -6.5000  -1.2500  21.2500 Du        
   6582 ****        -6.5000  -1.0000  20.7500 Du        
   6583 ****        -6.5000  -1.0000  21.0000 Du        
   6584 ****        -6.5000  -1.0000  21.2500 Du        
   6585 ****        -6.5000  -1.0000  21.5000 Du        
   6586 ****        -6.5000  -1.0000  21.7500 Du        
   6587 ****        -6.5000  -1.0000  22.0000 Du        
   6588 ****        -6.5000  -0.7500  20.5000 Du        
   6589 ****        -6.5000  -0.7500  20.7500 Du        
   6590 ****        -6.5000  -0.7500  21.0000 Du        
   6591 ****        -6.5000  -0.7500  21.2500 Du        
   6592 ****        -6.5000  -0.7500  21.5000 Du        
   6593 ****        -6.5000  -0.7500  21.7500 Du        
   6594 ****        -6.5000  -0.7500  22.0000 Du        
   6595 ****        -6.5000  -0.5000  20.2500 Du        
   6596 ****        -6.5000  -0.5000  20.5000 Du        
   6597 ****        -6.5000  -0.5000  20.7500 Du        
   6598 ****        -6.5000  -0.5000  21.0000 Du        
   6599 ****        -6.5000  -0.5000  21.2500 Du        
   6600 ****        -6.5000  -0.5000  21.5000 Du        
   6601 ****        -6.5000  -0.5000  21.7500 Du        
   6602 ****        -6.5000  -0.2500  20.2500 Du        
   6603 ****        -6.5000  -0.2500  20.5000 Du        
   6604 ****        -6.5000  -0.2500  20.7500 Du        
   6605 ****        -6.5000  -0.2500  21.0000 Du        
   6606 ****        -6.5000  -0.2500  21.2500 Du        
   6607 ****        -6.5000  -0.2500  21.5000 Du        
   6608 ****        -6.5000  -0.2500  21.7500 Du        
   6609 ****        -6.5000   0.0000  20.2500 Du        
   6610 ****        -6.5000   0.0000  20.5000 Du        
   6611 ****        -6.5000   0.0000  20.7500 Du        
   6612 ****        -6.5000   0.0000  21.0000 Du        
   6613 ****        -6.5000   0.0000  21.2500 Du        
   6614 ****        -6.5000   0.2500  20.2500 Du        
   6615 ****        -6.5000   0.2500  20.5000 Du        
   6616 ****        -6.5000   0.2500  20.7500 Du        
   6617 ****        -6.5000   0.2500  21.0000 Du        
   6618 ****        -6.5000   5.2500   9.5000 Du        
   6619 ****        -6.5000   5.2500   9.7500 Du        
   6620 ****        -6.5000   5.2500  10.0000 Du        
   6621 ****        -6.5000   5.5000   9.5000 Du        
   6622 ****        -6.5000   5.5000   9.7500 Du        
   6623 ****        -6.5000   5.5000  10.0000 Du        
   6624 ****        -6.5000   5.5000  10.2500 Du        
   6625 ****        -6.5000   5.7500   9.5000 Du        
   6626 ****        -6.5000   5.7500   9.7500 Du        
   6627 ****        -6.5000   5.7500  10.0000 Du        
   6628 ****        -6.5000   5.7500  10.2500 Du        
   6629 ****        -6.5000   5.7500  10.5000 Du        
   6630 ****        -6.5000   6.0000   9.5000 Du        
   6631 ****        -6.5000   6.0000   9.7500 Du        
   6632 ****        -6.5000   6.0000  10.0000 Du        
   6633 ****        -6.5000   6.0000  10.2500 Du        
   6634 ****        -6.5000   6.0000  10.5000 Du        
   6635 ****        -6.5000   6.2500   9.5000 Du        
   6636 ****        -6.5000   6.2500   9.7500 Du        
   6637 ****        -6.5000   6.2500  10.0000 Du        
   6638 ****        -6.5000   6.2500  10.2500 Du        
   6639 ****        -6.5000   6.2500  10.5000 Du        
   6640 ****        -6.5000   6.2500  10.7500 Du        
   6641 ****        -6.5000   6.5000   9.7500 Du        
   6642 ****        -6.5000   6.5000  10.0000 Du        
   6643 ****        -6.5000   6.5000  10.2500 Du        
   6644 ****        -6.5000   6.5000  10.5000 Du        
   6645 ****        -6.5000   6.7500  10.0000 Du        
   6646 ****        -6.5000   6.7500  10.2500 Du        
   6647 ****        -6.5000   6.7500  10.5000 Du        
   6648 ****        -6.5000   7.0000  10.0000 Du        
   6649 ****        -6.5000   7.0000  10.2500 Du        
   6650 ****        -6.5000   7.0000  10.5000 Du        
   6651 ****        -6.5000  10.7500  28.7500 Du        
   6652 ****        -6.5000  10.7500  29.0000 Du        
   6653 ****        -6.5000  11.0000  28.0000 Du        
   6654 ****        -6.5000  11.0000  28.2500 Du        
   6655 ****        -6.5000  11.0000  28.5000 Du        
   6656 ****        -6.5000  11.0000  28.7500 Du        
   6657 ****        -6.5000  11.0000  29.0000 Du        
   6658 ****        -6.5000  11.0000  29.2500 Du        
   6659 ****        -6.5000  11.2500  27.5000 Du        
   6660 ****        -6.5000  11.2500  27.7500 Du        
   6661 ****        -6.5000  11.2500  28.0000 Du        
   6662 ****        -6.5000  11.2500  28.2500 Du        
   6663 ****        -6.5000  11.2500  28.5000 Du        
   6664 ****        -6.5000  11.2500  28.7500 Du        
   6665 ****        -6.5000  11.2500  29.0000 Du        
   6666 ****        -6.5000  11.2500  29.2500 Du        
   6667 ****        -6.5000  11.5000  27.2500 Du        
   6668 ****        -6.5000  11.5000  27.5000 Du        
   6669 ****        -6.5000  11.5000  27.7500 Du        
   6670 ****        -6.5000  11.5000  28.0000 Du        
   6671 ****        -6.5000  11.5000  28.2500 Du        
   6672 ****        -6.5000  11.5000  28.5000 Du        
   6673 ****        -6.5000  11.5000  28.7500 Du        
   6674 ****        -6.5000  11.5000  29.0000 Du        
   6675 ****        -6.5000  11.5000  29.2500 Du        
   6676 ****        -6.5000  11.7500  27.2500 Du        
   6677 ****        -6.5000  11.7500  27.5000 Du        
   6678 ****        -6.5000  11.7500  27.7500 Du        
   6679 ****        -6.5000  11.7500  28.0000 Du        
   6680 ****        -6.5000  11.7500  28.2500 Du        
   6681 ****        -6.5000  11.7500  28.5000 Du        
   6682 ****        -6.5000  11.7500  28.7500 Du        
   6683 ****        -6.5000  11.7500  29.0000 Du        
   6684 ****        -6.5000  11.7500  29.2500 Du        
   6685 ****        -6.5000  11.7500  29.5000 Du        
   6686 ****        -6.5000  11.7500  29.7500 Du        
   6687 ****        -6.5000  12.0000  27.2500 Du        
   6688 ****        -6.5000  12.0000  27.5000 Du        
   6689 ****        -6.5000  12.0000  27.7500 Du        
   6690 ****        -6.5000  12.0000  28.0000 Du        
   6691 ****        -6.5000  12.0000  28.2500 Du        
   6692 ****        -6.5000  12.0000  28.5000 Du        
   6693 ****        -6.5000  12.0000  28.7500 Du        
   6694 ****        -6.5000  12.0000  29.0000 Du        
   6695 ****        -6.5000  12.0000  29.2500 Du        
   6696 ****        -6.5000  12.0000  29.5000 Du        
   6697 ****        -6.5000  12.0000  29.7500 Du        
   6698 ****        -6.5000  12.0000  30.0000 Du        
   6699 ****        -6.5000  12.2500  27.2500 Du        
   6700 ****        -6.5000  12.2500  27.5000 Du        
   6701 ****        -6.5000  12.2500  27.7500 Du        
   6702 ****        -6.5000  12.2500  28.0000 Du        
   6703 ****        -6.5000  12.2500  28.2500 Du        
   6704 ****        -6.5000  12.2500  28.5000 Du        
   6705 ****        -6.5000  12.2500  28.7500 Du        
   6706 ****        -6.5000  12.2500  29.0000 Du        
   6707 ****        -6.5000  12.2500  29.2500 Du        
   6708 ****        -6.5000  12.2500  29.5000 Du        
   6709 ****        -6.5000  12.2500  29.7500 Du        
   6710 ****        -6.5000  12.5000  27.2500 Du        
   6711 ****        -6.5000  12.5000  27.5000 Du        
   6712 ****        -6.5000  12.5000  27.7500 Du        
   6713 ****        -6.5000  12.5000  28.0000 Du        
   6714 ****        -6.5000  12.5000  28.2500 Du        
   6715 ****        -6.5000  12.5000  28.5000 Du        
   6716 ****        -6.5000  12.5000  28.7500 Du        
   6717 ****        -6.5000  12.5000  29.0000 Du        
   6718 ****        -6.5000  12.5000  29.2500 Du        
   6719 ****        -6.5000  12.5000  29.5000 Du        
   6720 ****        -6.5000  12.5000  29.7500 Du        
   6721 ****        -6.5000  12.5000  30.0000 Du        
   6722 ****        -6.5000  12.5000  30.2500 Du        
   6723 ****        -6.5000  12.5000  30.5000 Du        
   6724 ****        -6.5000  12.7500  27.5000 Du        
   6725 ****        -6.5000  12.7500  27.7500 Du        
   6726 ****        -6.5000  12.7500  28.0000 Du        
   6727 ****        -6.5000  12.7500  28.2500 Du        
   6728 ****        -6.5000  12.7500  28.5000 Du        
   6729 ****        -6.5000  12.7500  28.7500 Du        
   6730 ****        -6.5000  12.7500  29.0000 Du        
   6731 ****        -6.5000  12.7500  29.2500 Du        
   6732 ****        -6.5000  12.7500  29.5000 Du        
   6733 ****        -6.5000  12.7500  29.7500 Du        
   6734 ****        -6.5000  12.7500  30.0000 Du        
   6735 ****        -6.5000  12.7500  30.2500 Du        
   6736 ****        -6.5000  12.7500  30.5000 Du        
   6737 ****        -6.5000  12.7500  30.7500 Du        
   6738 ****        -6.5000  13.0000  27.7500 Du        
   6739 ****        -6.5000  13.0000  28.0000 Du        
   6740 ****        -6.5000  13.0000  28.2500 Du        
   6741 ****        -6.5000  13.0000  28.5000 Du        
   6742 ****        -6.5000  13.0000  28.7500 Du        
   6743 ****        -6.5000  13.0000  29.0000 Du        
   6744 ****        -6.5000  13.0000  29.2500 Du        
   6745 ****        -6.5000  13.0000  29.5000 Du        
   6746 ****        -6.5000  13.0000  29.7500 Du        
   6747 ****        -6.5000  13.0000  30.0000 Du        
   6748 ****        -6.5000  13.0000  30.2500 Du        
   6749 ****        -6.5000  13.0000  30.5000 Du        
   6750 ****        -6.5000  13.0000  30.7500 Du        
   6751 ****        -6.5000  13.0000  31.0000 Du        
   6752 ****        -6.5000  13.2500  28.0000 Du        
   6753 ****        -6.5000  13.2500  28.2500 Du        
   6754 ****        -6.5000  13.2500  28.5000 Du        
   6755 ****        -6.5000  13.2500  28.7500 Du        
   6756 ****        -6.5000  13.2500  29.0000 Du        
   6757 ****        -6.5000  13.2500  29.2500 Du        
   6758 ****        -6.5000  13.2500  29.5000 Du        
   6759 ****        -6.5000  13.2500  29.7500 Du        
   6760 ****        -6.5000  13.2500  30.0000 Du        
   6761 ****        -6.5000  13.2500  30.2500 Du        
   6762 ****        -6.5000  13.2500  30.5000 Du        
   6763 ****        -6.5000  13.2500  30.7500 Du        
   6764 ****        -6.5000  13.2500  31.0000 Du        
   6765 ****        -6.5000  13.2500  31.2500 Du        
   6766 ****        -6.5000  13.5000  28.2500 Du        
   6767 ****        -6.5000  13.5000  28.5000 Du        
   6768 ****        -6.5000  13.5000  28.7500 Du        
   6769 ****        -6.5000  13.5000  29.0000 Du        
   6770 ****        -6.5000  13.5000  29.2500 Du        
   6771 ****        -6.5000  13.5000  29.5000 Du        
   6772 ****        -6.5000  13.5000  29.7500 Du        
   6773 ****        -6.5000  13.5000  30.0000 Du        
   6774 ****        -6.5000  13.5000  30.2500 Du        
   6775 ****        -6.5000  13.5000  30.5000 Du        
   6776 ****        -6.5000  13.5000  30.7500 Du        
   6777 ****        -6.5000  13.5000  31.0000 Du        
   6778 ****        -6.5000  13.5000  31.2500 Du        
   6779 ****        -6.5000  13.5000  31.5000 Du        
   6780 ****        -6.5000  13.5000  31.7500 Du        
   6781 ****        -6.5000  13.5000  32.0000 Du        
   6782 ****        -6.5000  13.5000  32.2500 Du        
   6783 ****        -6.5000  13.7500  28.2500 Du        
   6784 ****        -6.5000  13.7500  28.5000 Du        
   6785 ****        -6.5000  13.7500  28.7500 Du        
   6786 ****        -6.5000  13.7500  29.0000 Du        
   6787 ****        -6.5000  13.7500  29.2500 Du        
   6788 ****        -6.5000  13.7500  29.5000 Du        
   6789 ****        -6.5000  13.7500  29.7500 Du        
   6790 ****        -6.5000  13.7500  30.0000 Du        
   6791 ****        -6.5000  13.7500  30.2500 Du        
   6792 ****        -6.5000  13.7500  30.5000 Du        
   6793 ****        -6.5000  13.7500  30.7500 Du        
   6794 ****        -6.5000  13.7500  31.0000 Du        
   6795 ****        -6.5000  13.7500  31.2500 Du        
   6796 ****        -6.5000  13.7500  31.5000 Du        
   6797 ****        -6.5000  13.7500  31.7500 Du        
   6798 ****        -6.5000  13.7500  32.0000 Du        
   6799 ****        -6.5000  13.7500  32.2500 Du        
   6800 ****        -6.5000  13.7500  32.5000 Du        
   6801 ****        -6.5000  14.0000  28.5000 Du        
   6802 ****        -6.5000  14.0000  28.7500 Du        
   6803 ****        -6.5000  14.0000  29.0000 Du        
   6804 ****        -6.5000  14.0000  29.2500 Du        
   6805 ****        -6.5000  14.0000  29.5000 Du        
   6806 ****        -6.5000  14.0000  29.7500 Du        
   6807 ****        -6.5000  14.0000  30.0000 Du        
   6808 ****        -6.5000  14.0000  30.2500 Du        
   6809 ****        -6.5000  14.0000  30.5000 Du        
   6810 ****        -6.5000  14.0000  30.7500 Du        
   6811 ****        -6.5000  14.0000  31.0000 Du        
   6812 ****        -6.5000  14.0000  31.2500 Du        
   6813 ****        -6.5000  14.0000  31.5000 Du        
   6814 ****        -6.5000  14.0000  31.7500 Du        
   6815 ****        -6.5000  14.0000  32.0000 Du        
   6816 ****        -6.5000  14.0000  32.2500 Du        
   6817 ****        -6.5000  14.0000  32.5000 Du        
   6818 ****        -6.5000  14.0000  32.7500 Du        
   6819 ****        -6.5000  14.2500  28.5000 Du        
   6820 ****        -6.5000  14.2500  28.7500 Du        
   6821 ****        -6.5000  14.2500  29.0000 Du        
   6822 ****        -6.5000  14.2500  29.2500 Du        
   6823 ****        -6.5000  14.2500  29.5000 Du        
   6824 ****        -6.5000  14.2500  29.7500 Du        
   6825 ****        -6.5000  14.2500  30.0000 Du        
   6826 ****        -6.5000  14.2500  30.2500 Du        
   6827 ****        -6.5000  14.2500  30.5000 Du        
   6828 ****        -6.5000  14.2500  30.7500 Du        
   6829 ****        -6.5000  14.2500  31.0000 Du        
   6830 ****        -6.5000  14.2500  31.2500 Du        
   6831 ****        -6.5000  14.2500  32.0000 Du        
   6832 ****        -6.5000  14.2500  32.2500 Du        
   6833 ****        -6.5000  14.2500  32.5000 Du        
   6834 ****        -6.5000  14.2500  32.7500 Du        
   6835 ****        -6.5000  14.2500  33.0000 Du        
   6836 ****        -6.5000  14.2500  33.2500 Du        
   6837 ****        -6.5000  14.5000  28.7500 Du        
   6838 ****        -6.5000  14.5000  29.0000 Du        
   6839 ****        -6.5000  14.5000  29.2500 Du        
   6840 ****        -6.5000  14.5000  29.5000 Du        
   6841 ****        -6.5000  14.5000  29.7500 Du        
   6842 ****        -6.5000  14.5000  30.0000 Du        
   6843 ****        -6.5000  14.5000  30.2500 Du        
   6844 ****        -6.5000  14.5000  30.5000 Du        
   6845 ****        -6.5000  14.5000  33.0000 Du        
   6846 ****        -6.5000  14.5000  33.2500 Du        
   6847 ****        -6.5000  14.5000  33.5000 Du        
   6848 ****        -6.5000  14.5000  33.7500 Du        
   6849 ****        -6.5000  14.5000  34.0000 Du        
   6850 ****        -6.5000  14.5000  34.2500 Du        
   6851 ****        -6.5000  14.5000  34.5000 Du        
   6852 ****        -6.5000  14.5000  34.7500 Du        
   6853 ****        -6.5000  14.7500  28.7500 Du        
   6854 ****        -6.5000  14.7500  29.0000 Du        
   6855 ****        -6.5000  14.7500  29.2500 Du        
   6856 ****        -6.5000  14.7500  29.5000 Du        
   6857 ****        -6.5000  14.7500  29.7500 Du        
   6858 ****        -6.5000  14.7500  30.0000 Du        
   6859 ****        -6.5000  14.7500  33.2500 Du        
   6860 ****        -6.5000  14.7500  33.5000 Du        
   6861 ****        -6.5000  14.7500  33.7500 Du        
   6862 ****        -6.5000  14.7500  34.0000 Du        
   6863 ****        -6.5000  14.7500  34.2500 Du        
   6864 ****        -6.5000  14.7500  34.5000 Du        
   6865 ****        -6.5000  14.7500  34.7500 Du        
   6866 ****        -6.5000  14.7500  35.0000 Du        
   6867 ****        -6.5000  15.0000  28.7500 Du        
   6868 ****        -6.5000  15.0000  29.0000 Du        
   6869 ****        -6.5000  15.0000  29.2500 Du        
   6870 ****        -6.5000  15.0000  29.5000 Du        
   6871 ****        -6.5000  15.0000  29.7500 Du        
   6872 ****        -6.5000  15.0000  33.5000 Du        
   6873 ****        -6.5000  15.0000  33.7500 Du        
   6874 ****        -6.5000  15.0000  34.0000 Du        
   6875 ****        -6.5000  15.0000  34.2500 Du        
   6876 ****        -6.5000  15.0000  34.5000 Du        
   6877 ****        -6.5000  15.0000  34.7500 Du        
   6878 ****        -6.5000  15.0000  35.0000 Du        
   6879 ****        -6.5000  15.0000  35.2500 Du        
   6880 ****        -6.5000  15.2500  28.7500 Du        
   6881 ****        -6.5000  15.2500  29.0000 Du        
   6882 ****        -6.5000  15.2500  29.2500 Du        
   6883 ****        -6.5000  15.2500  29.5000 Du        
   6884 ****        -6.5000  15.2500  33.7500 Du        
   6885 ****        -6.5000  15.2500  34.0000 Du        
   6886 ****        -6.5000  15.2500  34.2500 Du        
   6887 ****        -6.5000  15.2500  34.5000 Du        
   6888 ****        -6.5000  15.2500  34.7500 Du        
   6889 ****        -6.5000  15.2500  35.0000 Du        
   6890 ****        -6.5000  15.2500  35.2500 Du        
   6891 ****        -6.5000  15.5000  29.0000 Du        
   6892 ****        -6.5000  15.5000  34.2500 Du        
   6893 ****        -6.5000  16.0000   2.5000 Du        
   6894 ****        -6.5000  16.0000   2.7500 Du        
   6895 ****        -6.5000  16.2500   2.5000 Du        
   6896 ****        -6.5000  16.2500   2.7500 Du        
   6897 ****        -6.5000  16.5000   2.0000 Du        
   6898 ****        -6.5000  16.5000   2.2500 Du        
   6899 ****        -6.5000  16.5000   2.5000 Du        
   6900 ****        -6.5000  16.5000   2.7500 Du        
   6901 ****        -6.5000  18.7500   5.7500 Du        
   6902 ****        -6.5000  19.0000   5.7500 Du        
   6903 ****        -6.5000  19.0000   6.0000 Du        
   6904 ****        -6.2500  -4.0000  -1.7500 Du        
   6905 ****        -6.2500  -4.0000  -1.5000 Du        
   6906 ****        -6.2500  -4.0000  -1.2500 Du        
   6907 ****        -6.2500  -1.2500  20.7500 Du        
   6908 ****        -6.2500  -1.2500  21.0000 Du        
   6909 ****        -6.2500  -1.2500  21.2500 Du        
   6910 ****        -6.2500  -1.2500  21.5000 Du        
   6911 ****        -6.2500  -1.2500  21.7500 Du        
   6912 ****        -6.2500  -1.0000  20.2500 Du        
   6913 ****        -6.2500  -1.0000  20.5000 Du        
   6914 ****        -6.2500  -1.0000  20.7500 Du        
   6915 ****        -6.2500  -1.0000  21.0000 Du        
   6916 ****        -6.2500  -1.0000  21.2500 Du        
   6917 ****        -6.2500  -1.0000  21.5000 Du        
   6918 ****        -6.2500  -1.0000  21.7500 Du        
   6919 ****        -6.2500  -1.0000  22.0000 Du        
   6920 ****        -6.2500  -0.7500  20.2500 Du        
   6921 ****        -6.2500  -0.7500  20.5000 Du        
   6922 ****        -6.2500  -0.7500  20.7500 Du        
   6923 ****        -6.2500  -0.7500  21.0000 Du        
   6924 ****        -6.2500  -0.7500  21.2500 Du        
   6925 ****        -6.2500  -0.7500  21.5000 Du        
   6926 ****        -6.2500  -0.7500  21.7500 Du        
   6927 ****        -6.2500  -0.7500  22.0000 Du        
   6928 ****        -6.2500  -0.5000  20.2500 Du        
   6929 ****        -6.2500  -0.5000  20.5000 Du        
   6930 ****        -6.2500  -0.5000  20.7500 Du        
   6931 ****        -6.2500  -0.5000  21.0000 Du        
   6932 ****        -6.2500  -0.5000  21.2500 Du        
   6933 ****        -6.2500  -0.5000  21.5000 Du        
   6934 ****        -6.2500  -0.5000  21.7500 Du        
   6935 ****        -6.2500  -0.2500  20.2500 Du        
   6936 ****        -6.2500  -0.2500  20.5000 Du        
   6937 ****        -6.2500  -0.2500  20.7500 Du        
   6938 ****        -6.2500  -0.2500  21.0000 Du        
   6939 ****        -6.2500  -0.2500  21.2500 Du        
   6940 ****        -6.2500   0.0000  20.2500 Du        
   6941 ****        -6.2500   0.0000  20.5000 Du        
   6942 ****        -6.2500   0.0000  20.7500 Du        
   6943 ****        -6.2500   0.0000  21.0000 Du        
   6944 ****        -6.2500   0.2500  20.2500 Du        
   6945 ****        -6.2500   5.0000   9.5000 Du        
   6946 ****        -6.2500   5.2500   9.5000 Du        
   6947 ****        -6.2500   5.2500   9.7500 Du        
   6948 ****        -6.2500   5.2500  10.0000 Du        
   6949 ****        -6.2500   5.2500  10.2500 Du        
   6950 ****        -6.2500   5.5000   9.5000 Du        
   6951 ****        -6.2500   5.5000   9.7500 Du        
   6952 ****        -6.2500   5.5000  10.0000 Du        
   6953 ****        -6.2500   5.5000  10.2500 Du        
   6954 ****        -6.2500   5.5000  10.5000 Du        
   6955 ****        -6.2500   5.7500   9.5000 Du        
   6956 ****        -6.2500   5.7500   9.7500 Du        
   6957 ****        -6.2500   5.7500  10.0000 Du        
   6958 ****        -6.2500   5.7500  10.2500 Du        
   6959 ****        -6.2500   5.7500  10.5000 Du        
   6960 ****        -6.2500   5.7500  10.7500 Du        
   6961 ****        -6.2500   6.0000   9.5000 Du        
   6962 ****        -6.2500   6.0000   9.7500 Du        
   6963 ****        -6.2500   6.0000  10.0000 Du        
   6964 ****        -6.2500   6.0000  10.2500 Du        
   6965 ****        -6.2500   6.0000  10.5000 Du        
   6966 ****        -6.2500   6.0000  10.7500 Du        
   6967 ****        -6.2500   6.2500   9.5000 Du        
   6968 ****        -6.2500   6.2500   9.7500 Du        
   6969 ****        -6.2500   6.2500  10.0000 Du        
   6970 ****        -6.2500   6.2500  10.2500 Du        
   6971 ****        -6.2500   6.2500  10.5000 Du        
   6972 ****        -6.2500   6.2500  10.7500 Du        
   6973 ****        -6.2500   6.5000   9.7500 Du        
   6974 ****        -6.2500   6.5000  10.0000 Du        
   6975 ****        -6.2500   6.5000  10.2500 Du        
   6976 ****        -6.2500   6.5000  10.5000 Du        
   6977 ****        -6.2500   6.5000  10.7500 Du        
   6978 ****        -6.2500   6.7500   9.7500 Du        
   6979 ****        -6.2500   6.7500  10.0000 Du        
   6980 ****        -6.2500   6.7500  10.2500 Du        
   6981 ****        -6.2500   6.7500  10.5000 Du        
   6982 ****        -6.2500   6.7500  10.7500 Du        
   6983 ****        -6.2500   7.0000  10.0000 Du        
   6984 ****        -6.2500   7.0000  10.2500 Du        
   6985 ****        -6.2500   7.0000  10.5000 Du        
   6986 ****        -6.2500   7.0000  10.7500 Du        
   6987 ****        -6.2500   7.0000  11.0000 Du        
   6988 ****        -6.2500   7.2500  10.0000 Du        
   6989 ****        -6.2500   7.2500  10.2500 Du        
   6990 ****        -6.2500   7.2500  10.5000 Du        
   6991 ****        -6.2500   7.2500  10.7500 Du        
   6992 ****        -6.2500  11.0000  27.7500 Du        
   6993 ****        -6.2500  11.0000  28.0000 Du        
   6994 ****        -6.2500  11.0000  28.2500 Du        
   6995 ****        -6.2500  11.0000  28.5000 Du        
   6996 ****        -6.2500  11.0000  28.7500 Du        
   6997 ****        -6.2500  11.0000  29.0000 Du        
   6998 ****        -6.2500  11.2500  27.5000 Du        
   6999 ****        -6.2500  11.2500  27.7500 Du        
   7000 ****        -6.2500  11.2500  28.0000 Du        
   7001 ****        -6.2500  11.2500  28.2500 Du        
   7002 ****        -6.2500  11.2500  28.5000 Du        
   7003 ****        -6.2500  11.2500  28.7500 Du        
   7004 ****        -6.2500  11.2500  29.0000 Du        
   7005 ****        -6.2500  11.2500  29.2500 Du        
   7006 ****        -6.2500  11.5000  27.2500 Du        
   7007 ****        -6.2500  11.5000  27.5000 Du        
   7008 ****        -6.2500  11.5000  27.7500 Du        
   7009 ****        -6.2500  11.5000  28.0000 Du        
   7010 ****        -6.2500  11.5000  28.2500 Du        
   7011 ****        -6.2500  11.5000  28.5000 Du        
   7012 ****        -6.2500  11.5000  28.7500 Du        
   7013 ****        -6.2500  11.5000  29.0000 Du        
   7014 ****        -6.2500  11.5000  29.2500 Du        
   7015 ****        -6.2500  11.7500  27.2500 Du        
   7016 ****        -6.2500  11.7500  27.5000 Du        
   7017 ****        -6.2500  11.7500  27.7500 Du        
   7018 ****        -6.2500  11.7500  28.0000 Du        
   7019 ****        -6.2500  11.7500  28.2500 Du        
   7020 ****        -6.2500  11.7500  28.5000 Du        
   7021 ****        -6.2500  11.7500  28.7500 Du        
   7022 ****        -6.2500  11.7500  29.0000 Du        
   7023 ****        -6.2500  11.7500  29.2500 Du        
   7024 ****        -6.2500  11.7500  29.5000 Du        
   7025 ****        -6.2500  11.7500  29.7500 Du        
   7026 ****        -6.2500  12.0000  27.2500 Du        
   7027 ****        -6.2500  12.0000  27.5000 Du        
   7028 ****        -6.2500  12.0000  27.7500 Du        
   7029 ****        -6.2500  12.0000  28.0000 Du        
   7030 ****        -6.2500  12.0000  28.2500 Du        
   7031 ****        -6.2500  12.0000  28.5000 Du        
   7032 ****        -6.2500  12.0000  28.7500 Du        
   7033 ****        -6.2500  12.0000  29.0000 Du        
   7034 ****        -6.2500  12.0000  29.2500 Du        
   7035 ****        -6.2500  12.0000  29.5000 Du        
   7036 ****        -6.2500  12.0000  29.7500 Du        
   7037 ****        -6.2500  12.0000  30.0000 Du        
   7038 ****        -6.2500  12.2500  27.2500 Du        
   7039 ****        -6.2500  12.2500  27.5000 Du        
   7040 ****        -6.2500  12.2500  27.7500 Du        
   7041 ****        -6.2500  12.2500  28.0000 Du        
   7042 ****        -6.2500  12.2500  28.2500 Du        
   7043 ****        -6.2500  12.2500  28.5000 Du        
   7044 ****        -6.2500  12.2500  28.7500 Du        
   7045 ****        -6.2500  12.2500  29.0000 Du        
   7046 ****        -6.2500  12.2500  29.2500 Du        
   7047 ****        -6.2500  12.2500  29.5000 Du        
   7048 ****        -6.2500  12.2500  29.7500 Du        
   7049 ****        -6.2500  12.2500  30.0000 Du        
   7050 ****        -6.2500  12.2500  30.2500 Du        
   7051 ****        -6.2500  12.5000  27.2500 Du        
   7052 ****        -6.2500  12.5000  27.5000 Du        
   7053 ****        -6.2500  12.5000  27.7500 Du        
   7054 ****        -6.2500  12.5000  28.0000 Du        
   7055 ****        -6.2500  12.5000  28.2500 Du        
   7056 ****        -6.2500  12.5000  28.5000 Du        
   7057 ****        -6.2500  12.5000  28.7500 Du        
   7058 ****        -6.2500  12.5000  29.0000 Du        
   7059 ****        -6.2500  12.5000  29.2500 Du        
   7060 ****        -6.2500  12.5000  29.5000 Du        
   7061 ****        -6.2500  12.5000  29.7500 Du        
   7062 ****        -6.2500  12.5000  30.0000 Du        
   7063 ****        -6.2500  12.5000  30.2500 Du        
   7064 ****        -6.2500  12.5000  30.5000 Du        
   7065 ****        -6.2500  12.5000  30.7500 Du        
   7066 ****        -6.2500  12.5000  31.0000 Du        
   7067 ****        -6.2500  12.7500  27.5000 Du        
   7068 ****        -6.2500  12.7500  27.7500 Du        
   7069 ****        -6.2500  12.7500  28.0000 Du        
   7070 ****        -6.2500  12.7500  28.2500 Du        
   7071 ****        -6.2500  12.7500  28.5000 Du        
   7072 ****        -6.2500  12.7500  28.7500 Du        
   7073 ****        -6.2500  12.7500  29.0000 Du        
   7074 ****        -6.2500  12.7500  29.2500 Du        
   7075 ****        -6.2500  12.7500  29.5000 Du        
   7076 ****        -6.2500  12.7500  29.7500 Du        
   7077 ****        -6.2500  12.7500  30.0000 Du        
   7078 ****        -6.2500  12.7500  30.2500 Du        
   7079 ****        -6.2500  12.7500  30.5000 Du        
   7080 ****        -6.2500  12.7500  30.7500 Du        
   7081 ****        -6.2500  12.7500  31.0000 Du        
   7082 ****        -6.2500  13.0000  27.7500 Du        
   7083 ****        -6.2500  13.0000  28.0000 Du        
   7084 ****        -6.2500  13.0000  28.2500 Du        
   7085 ****        -6.2500  13.0000  28.5000 Du        
   7086 ****        -6.2500  13.0000  28.7500 Du        
   7087 ****        -6.2500  13.0000  29.0000 Du        
   7088 ****        -6.2500  13.0000  29.2500 Du        
   7089 ****        -6.2500  13.0000  29.5000 Du        
   7090 ****        -6.2500  13.0000  29.7500 Du        
   7091 ****        -6.2500  13.0000  30.0000 Du        
   7092 ****        -6.2500  13.0000  30.2500 Du        
   7093 ****        -6.2500  13.0000  30.5000 Du        
   7094 ****        -6.2500  13.0000  30.7500 Du        
   7095 ****        -6.2500  13.0000  31.0000 Du        
   7096 ****        -6.2500  13.0000  31.2500 Du        
   7097 ****        -6.2500  13.2500  28.0000 Du        
   7098 ****        -6.2500  13.2500  28.2500 Du        
   7099 ****        -6.2500  13.2500  28.5000 Du        
   7100 ****        -6.2500  13.2500  28.7500 Du        
   7101 ****        -6.2500  13.2500  29.0000 Du        
   7102 ****        -6.2500  13.2500  29.2500 Du        
   7103 ****        -6.2500  13.2500  29.5000 Du        
   7104 ****        -6.2500  13.2500  29.7500 Du        
   7105 ****        -6.2500  13.2500  30.0000 Du        
   7106 ****        -6.2500  13.2500  30.2500 Du        
   7107 ****        -6.2500  13.2500  30.5000 Du        
   7108 ****        -6.2500  13.2500  30.7500 Du        
   7109 ****        -6.2500  13.2500  31.0000 Du        
   7110 ****        -6.2500  13.2500  31.2500 Du        
   7111 ****        -6.2500  13.5000  28.2500 Du        
   7112 ****        -6.2500  13.5000  28.5000 Du        
   7113 ****        -6.2500  13.5000  28.7500 Du        
   7114 ****        -6.2500  13.5000  29.0000 Du        
   7115 ****        -6.2500  13.5000  29.2500 Du        
   7116 ****        -6.2500  13.5000  29.5000 Du        
   7117 ****        -6.2500  13.5000  29.7500 Du        
   7118 ****        -6.2500  13.5000  30.0000 Du        
   7119 ****        -6.2500  13.5000  30.2500 Du        
   7120 ****        -6.2500  13.5000  30.5000 Du        
   7121 ****        -6.2500  13.5000  30.7500 Du        
   7122 ****        -6.2500  13.5000  31.0000 Du        
   7123 ****        -6.2500  13.5000  31.2500 Du        
   7124 ****        -6.2500  13.5000  31.5000 Du        
   7125 ****        -6.2500  13.5000  31.7500 Du        
   7126 ****        -6.2500  13.5000  32.0000 Du        
   7127 ****        -6.2500  13.7500  28.5000 Du        
   7128 ****        -6.2500  13.7500  28.7500 Du        
   7129 ****        -6.2500  13.7500  29.0000 Du        
   7130 ****        -6.2500  13.7500  29.2500 Du        
   7131 ****        -6.2500  13.7500  29.5000 Du        
   7132 ****        -6.2500  13.7500  29.7500 Du        
   7133 ****        -6.2500  13.7500  30.0000 Du        
   7134 ****        -6.2500  13.7500  30.2500 Du        
   7135 ****        -6.2500  13.7500  30.5000 Du        
   7136 ****        -6.2500  13.7500  30.7500 Du        
   7137 ****        -6.2500  13.7500  31.0000 Du        
   7138 ****        -6.2500  13.7500  31.2500 Du        
   7139 ****        -6.2500  13.7500  31.5000 Du        
   7140 ****        -6.2500  13.7500  31.7500 Du        
   7141 ****        -6.2500  13.7500  32.0000 Du        
   7142 ****        -6.2500  13.7500  32.2500 Du        
   7143 ****        -6.2500  14.0000  28.5000 Du        
   7144 ****        -6.2500  14.0000  28.7500 Du        
   7145 ****        -6.2500  14.0000  29.0000 Du        
   7146 ****        -6.2500  14.0000  29.2500 Du        
   7147 ****        -6.2500  14.0000  29.5000 Du        
   7148 ****        -6.2500  14.0000  29.7500 Du        
   7149 ****        -6.2500  14.0000  30.0000 Du        
   7150 ****        -6.2500  14.0000  30.2500 Du        
   7151 ****        -6.2500  14.0000  30.5000 Du        
   7152 ****        -6.2500  14.0000  30.7500 Du        
   7153 ****        -6.2500  14.0000  31.0000 Du        
   7154 ****        -6.2500  14.0000  31.2500 Du        
   7155 ****        -6.2500  14.0000  31.5000 Du        
   7156 ****        -6.2500  14.0000  31.7500 Du        
   7157 ****        -6.2500  14.0000  32.0000 Du        
   7158 ****        -6.2500  14.0000  32.2500 Du        
   7159 ****        -6.2500  14.2500  28.7500 Du        
   7160 ****        -6.2500  14.2500  29.0000 Du        
   7161 ****        -6.2500  14.2500  29.2500 Du        
   7162 ****        -6.2500  14.2500  29.5000 Du        
   7163 ****        -6.2500  14.2500  29.7500 Du        
   7164 ****        -6.2500  14.2500  30.0000 Du        
   7165 ****        -6.2500  14.2500  30.2500 Du        
   7166 ****        -6.2500  14.2500  30.5000 Du        
   7167 ****        -6.2500  14.2500  30.7500 Du        
   7168 ****        -6.2500  14.2500  31.0000 Du        
   7169 ****        -6.2500  14.2500  31.2500 Du        
   7170 ****        -6.2500  14.2500  31.5000 Du        
   7171 ****        -6.2500  14.2500  31.7500 Du        
   7172 ****        -6.2500  14.2500  32.0000 Du        
   7173 ****        -6.2500  14.2500  32.2500 Du        
   7174 ****        -6.2500  14.5000  28.7500 Du        
   7175 ****        -6.2500  14.5000  29.0000 Du        
   7176 ****        -6.2500  14.5000  29.2500 Du        
   7177 ****        -6.2500  14.5000  29.5000 Du        
   7178 ****        -6.2500  14.5000  29.7500 Du        
   7179 ****        -6.2500  14.5000  30.0000 Du        
   7180 ****        -6.2500  14.5000  30.2500 Du        
   7181 ****        -6.2500  14.5000  30.5000 Du        
   7182 ****        -6.2500  14.5000  30.7500 Du        
   7183 ****        -6.2500  14.5000  31.0000 Du        
   7184 ****        -6.2500  14.5000  31.2500 Du        
   7185 ****        -6.2500  14.5000  31.5000 Du        
   7186 ****        -6.2500  14.5000  31.7500 Du        
   7187 ****        -6.2500  14.5000  32.0000 Du        
   7188 ****        -6.2500  14.5000  32.2500 Du        
   7189 ****        -6.2500  14.5000  32.5000 Du        
   7190 ****        -6.2500  14.5000  32.7500 Du        
   7191 ****        -6.2500  14.5000  34.0000 Du        
   7192 ****        -6.2500  14.7500  28.7500 Du        
   7193 ****        -6.2500  14.7500  29.0000 Du        
   7194 ****        -6.2500  14.7500  29.2500 Du        
   7195 ****        -6.2500  14.7500  29.5000 Du        
   7196 ****        -6.2500  14.7500  29.7500 Du        
   7197 ****        -6.2500  14.7500  30.0000 Du        
   7198 ****        -6.2500  14.7500  30.2500 Du        
   7199 ****        -6.2500  14.7500  30.5000 Du        
   7200 ****        -6.2500  14.7500  32.7500 Du        
   7201 ****        -6.2500  14.7500  33.0000 Du        
   7202 ****        -6.2500  14.7500  33.2500 Du        
   7203 ****        -6.2500  14.7500  33.5000 Du        
   7204 ****        -6.2500  14.7500  33.7500 Du        
   7205 ****        -6.2500  14.7500  34.0000 Du        
   7206 ****        -6.2500  14.7500  34.2500 Du        
   7207 ****        -6.2500  14.7500  34.5000 Du        
   7208 ****        -6.2500  14.7500  34.7500 Du        
   7209 ****        -6.2500  14.7500  35.0000 Du        
   7210 ****        -6.2500  15.0000  28.7500 Du        
   7211 ****        -6.2500  15.0000  29.0000 Du        
   7212 ****        -6.2500  15.0000  29.2500 Du        
   7213 ****        -6.2500  15.0000  29.5000 Du        
   7214 ****        -6.2500  15.0000  29.7500 Du        
   7215 ****        -6.2500  15.0000  30.0000 Du        
   7216 ****        -6.2500  15.0000  33.0000 Du        
   7217 ****        -6.2500  15.0000  33.2500 Du        
   7218 ****        -6.2500  15.0000  33.5000 Du        
   7219 ****        -6.2500  15.0000  33.7500 Du        
   7220 ****        -6.2500  15.0000  34.0000 Du        
   7221 ****        -6.2500  15.0000  34.2500 Du        
   7222 ****        -6.2500  15.0000  34.5000 Du        
   7223 ****        -6.2500  15.0000  34.7500 Du        
   7224 ****        -6.2500  15.0000  35.0000 Du        
   7225 ****        -6.2500  15.2500  28.7500 Du        
   7226 ****        -6.2500  15.2500  29.0000 Du        
   7227 ****        -6.2500  15.2500  29.2500 Du        
   7228 ****        -6.2500  15.2500  29.5000 Du        
   7229 ****        -6.2500  15.2500  33.2500 Du        
   7230 ****        -6.2500  15.2500  33.5000 Du        
   7231 ****        -6.2500  15.2500  33.7500 Du        
   7232 ****        -6.2500  15.2500  34.0000 Du        
   7233 ****        -6.2500  15.2500  34.2500 Du        
   7234 ****        -6.2500  15.2500  34.5000 Du        
   7235 ****        -6.2500  15.2500  34.7500 Du        
   7236 ****        -6.2500  15.2500  35.0000 Du        
   7237 ****        -6.2500  15.5000  29.0000 Du        
   7238 ****        -6.2500  15.5000  33.7500 Du        
   7239 ****        -6.2500  15.5000  34.0000 Du        
   7240 ****        -6.2500  15.5000  34.2500 Du        
   7241 ****        -6.2500  18.0000   5.5000 Du        
   7242 ****        -6.2500  18.0000   5.7500 Du        
   7243 ****        -6.2500  18.2500   5.5000 Du        
   7244 ****        -6.2500  18.2500   5.7500 Du        
   7245 ****        -6.2500  18.2500   6.0000 Du        
   7246 ****        -6.2500  18.5000   5.5000 Du        
   7247 ****        -6.2500  18.5000   5.7500 Du        
   7248 ****        -6.2500  18.5000   6.0000 Du        
   7249 ****        -6.2500  18.7500   5.7500 Du        
   7250 ****        -6.2500  18.7500   6.0000 Du        
   7251 ****        -6.0000  -4.0000  -1.7500 Du        
   7252 ****        -6.0000  -4.0000  -1.5000 Du        
   7253 ****        -6.0000  -4.0000  -1.2500 Du        
   7254 ****        -6.0000  -3.7500  -1.2500 Du        
   7255 ****        -6.0000  -1.5000  21.2500 Du        
   7256 ****        -6.0000  -1.2500  20.2500 Du        
   7257 ****        -6.0000  -1.2500  20.5000 Du        
   7258 ****        -6.0000  -1.2500  20.7500 Du        
   7259 ****        -6.0000  -1.2500  21.0000 Du        
   7260 ****        -6.0000  -1.2500  21.2500 Du        
   7261 ****        -6.0000  -1.2500  21.5000 Du        
   7262 ****        -6.0000  -1.2500  21.7500 Du        
   7263 ****        -6.0000  -1.0000  20.0000 Du        
   7264 ****        -6.0000  -1.0000  20.2500 Du        
   7265 ****        -6.0000  -1.0000  20.5000 Du        
   7266 ****        -6.0000  -1.0000  20.7500 Du        
   7267 ****        -6.0000  -1.0000  21.0000 Du        
   7268 ****        -6.0000  -1.0000  21.2500 Du        
   7269 ****        -6.0000  -1.0000  21.5000 Du        
   7270 ****        -6.0000  -1.0000  21.7500 Du        
   7271 ****        -6.0000  -0.7500  20.0000 Du        
   7272 ****        -6.0000  -0.7500  20.2500 Du        
   7273 ****        -6.0000  -0.7500  20.5000 Du        
   7274 ****        -6.0000  -0.7500  20.7500 Du        
   7275 ****        -6.0000  -0.7500  21.0000 Du        
   7276 ****        -6.0000  -0.7500  21.2500 Du        
   7277 ****        -6.0000  -0.7500  21.5000 Du        
   7278 ****        -6.0000  -0.7500  21.7500 Du        
   7279 ****        -6.0000  -0.5000  20.0000 Du        
   7280 ****        -6.0000  -0.5000  20.2500 Du        
   7281 ****        -6.0000  -0.5000  20.5000 Du        
   7282 ****        -6.0000  -0.5000  20.7500 Du        
   7283 ****        -6.0000  -0.5000  21.0000 Du        
   7284 ****        -6.0000  -0.5000  21.2500 Du        
   7285 ****        -6.0000  -0.5000  21.5000 Du        
   7286 ****        -6.0000  -0.2500  20.0000 Du        
   7287 ****        -6.0000  -0.2500  20.2500 Du        
   7288 ****        -6.0000  -0.2500  20.5000 Du        
   7289 ****        -6.0000  -0.2500  20.7500 Du        
   7290 ****        -6.0000  -0.2500  21.0000 Du        
   7291 ****        -6.0000  -0.2500  21.2500 Du        
   7292 ****        -6.0000   0.0000  20.2500 Du        
   7293 ****        -6.0000   0.0000  20.5000 Du        
   7294 ****        -6.0000   5.0000   9.2500 Du        
   7295 ****        -6.0000   5.0000   9.5000 Du        
   7296 ****        -6.0000   5.0000   9.7500 Du        
   7297 ****        -6.0000   5.0000  10.0000 Du        
   7298 ****        -6.0000   5.2500   9.5000 Du        
   7299 ****        -6.0000   5.2500   9.7500 Du        
   7300 ****        -6.0000   5.2500  10.0000 Du        
   7301 ****        -6.0000   5.2500  10.2500 Du        
   7302 ****        -6.0000   5.2500  10.5000 Du        
   7303 ****        -6.0000   5.5000   9.5000 Du        
   7304 ****        -6.0000   5.5000   9.7500 Du        
   7305 ****        -6.0000   5.5000  10.0000 Du        
   7306 ****        -6.0000   5.5000  10.2500 Du        
   7307 ****        -6.0000   5.5000  10.5000 Du        
   7308 ****        -6.0000   5.5000  10.7500 Du        
   7309 ****        -6.0000   5.7500   9.5000 Du        
   7310 ****        -6.0000   5.7500   9.7500 Du        
   7311 ****        -6.0000   5.7500  10.0000 Du        
   7312 ****        -6.0000   5.7500  10.2500 Du        
   7313 ****        -6.0000   5.7500  10.5000 Du        
   7314 ****        -6.0000   5.7500  10.7500 Du        
   7315 ****        -6.0000   6.0000   9.5000 Du        
   7316 ****        -6.0000   6.0000   9.7500 Du        
   7317 ****        -6.0000   6.0000  10.0000 Du        
   7318 ****        -6.0000   6.0000  10.2500 Du        
   7319 ****        -6.0000   6.0000  10.5000 Du        
   7320 ****        -6.0000   6.0000  10.7500 Du        
   7321 ****        -6.0000   6.0000  11.0000 Du        
   7322 ****        -6.0000   6.2500   9.5000 Du        
   7323 ****        -6.0000   6.2500   9.7500 Du        
   7324 ****        -6.0000   6.2500  10.0000 Du        
   7325 ****        -6.0000   6.2500  10.2500 Du        
   7326 ****        -6.0000   6.2500  10.5000 Du        
   7327 ****        -6.0000   6.2500  10.7500 Du        
   7328 ****        -6.0000   6.2500  11.0000 Du        
   7329 ****        -6.0000   6.5000   9.7500 Du        
   7330 ****        -6.0000   6.5000  10.0000 Du        
   7331 ****        -6.0000   6.5000  10.2500 Du        
   7332 ****        -6.0000   6.5000  10.5000 Du        
   7333 ****        -6.0000   6.5000  10.7500 Du        
   7334 ****        -6.0000   6.5000  11.0000 Du        
   7335 ****        -6.0000   6.7500   9.7500 Du        
   7336 ****        -6.0000   6.7500  10.0000 Du        
   7337 ****        -6.0000   6.7500  10.2500 Du        
   7338 ****        -6.0000   6.7500  10.5000 Du        
   7339 ****        -6.0000   6.7500  10.7500 Du        
   7340 ****        -6.0000   6.7500  11.0000 Du        
   7341 ****        -6.0000   7.0000  10.0000 Du        
   7342 ****        -6.0000   7.0000  10.2500 Du        
   7343 ****        -6.0000   7.0000  10.5000 Du        
   7344 ****        -6.0000   7.0000  10.7500 Du        
   7345 ****        -6.0000   7.0000  11.0000 Du        
   7346 ****        -6.0000   7.2500  10.0000 Du        
   7347 ****        -6.0000   7.2500  10.2500 Du        
   7348 ****        -6.0000   7.2500  10.5000 Du        
   7349 ****        -6.0000   7.2500  10.7500 Du        
   7350 ****        -6.0000  11.2500  27.7500 Du        
   7351 ****        -6.0000  11.2500  28.0000 Du        
   7352 ****        -6.0000  11.2500  28.2500 Du        
   7353 ****        -6.0000  11.5000  27.5000 Du        
   7354 ****        -6.0000  11.5000  27.7500 Du        
   7355 ****        -6.0000  11.5000  28.0000 Du        
   7356 ****        -6.0000  11.5000  28.2500 Du        
   7357 ****        -6.0000  11.5000  28.5000 Du        
   7358 ****        -6.0000  11.5000  28.7500 Du        
   7359 ****        -6.0000  11.5000  29.0000 Du        
   7360 ****        -6.0000  11.5000  29.2500 Du        
   7361 ****        -6.0000  11.7500  27.5000 Du        
   7362 ****        -6.0000  11.7500  27.7500 Du        
   7363 ****        -6.0000  11.7500  28.0000 Du        
   7364 ****        -6.0000  11.7500  28.2500 Du        
   7365 ****        -6.0000  11.7500  28.5000 Du        
   7366 ****        -6.0000  11.7500  28.7500 Du        
   7367 ****        -6.0000  11.7500  29.0000 Du        
   7368 ****        -6.0000  11.7500  29.2500 Du        
   7369 ****        -6.0000  12.0000  27.5000 Du        
   7370 ****        -6.0000  12.0000  27.7500 Du        
   7371 ****        -6.0000  12.0000  28.0000 Du        
   7372 ****        -6.0000  12.0000  28.2500 Du        
   7373 ****        -6.0000  12.0000  28.5000 Du        
   7374 ****        -6.0000  12.0000  28.7500 Du        
   7375 ****        -6.0000  12.0000  29.0000 Du        
   7376 ****        -6.0000  12.0000  29.2500 Du        
   7377 ****        -6.0000  12.0000  29.5000 Du        
   7378 ****        -6.0000  12.0000  29.7500 Du        
   7379 ****        -6.0000  12.0000  30.0000 Du        
   7380 ****        -6.0000  12.2500  27.2500 Du        
   7381 ****        -6.0000  12.2500  27.5000 Du        
   7382 ****        -6.0000  12.2500  27.7500 Du        
   7383 ****        -6.0000  12.2500  28.0000 Du        
   7384 ****        -6.0000  12.2500  28.2500 Du        
   7385 ****        -6.0000  12.2500  28.5000 Du        
   7386 ****        -6.0000  12.2500  28.7500 Du        
   7387 ****        -6.0000  12.2500  29.0000 Du        
   7388 ****        -6.0000  12.2500  29.2500 Du        
   7389 ****        -6.0000  12.2500  29.5000 Du        
   7390 ****        -6.0000  12.2500  29.7500 Du        
   7391 ****        -6.0000  12.2500  30.0000 Du        
   7392 ****        -6.0000  12.2500  30.2500 Du        
   7393 ****        -6.0000  12.5000  27.5000 Du        
   7394 ****        -6.0000  12.5000  27.7500 Du        
   7395 ****        -6.0000  12.5000  28.0000 Du        
   7396 ****        -6.0000  12.5000  28.2500 Du        
   7397 ****        -6.0000  12.5000  28.5000 Du        
   7398 ****        -6.0000  12.5000  28.7500 Du        
   7399 ****        -6.0000  12.5000  29.0000 Du        
   7400 ****        -6.0000  12.5000  29.2500 Du        
   7401 ****        -6.0000  12.5000  29.5000 Du        
   7402 ****        -6.0000  12.5000  29.7500 Du        
   7403 ****        -6.0000  12.5000  30.0000 Du        
   7404 ****        -6.0000  12.5000  30.2500 Du        
   7405 ****        -6.0000  12.5000  30.5000 Du        
   7406 ****        -6.0000  12.5000  30.7500 Du        
   7407 ****        -6.0000  12.5000  31.0000 Du        
   7408 ****        -6.0000  12.7500  27.5000 Du        
   7409 ****        -6.0000  12.7500  27.7500 Du        
   7410 ****        -6.0000  12.7500  28.0000 Du        
   7411 ****        -6.0000  12.7500  28.2500 Du        
   7412 ****        -6.0000  12.7500  28.5000 Du        
   7413 ****        -6.0000  12.7500  28.7500 Du        
   7414 ****        -6.0000  12.7500  29.0000 Du        
   7415 ****        -6.0000  12.7500  29.2500 Du        
   7416 ****        -6.0000  12.7500  29.5000 Du        
   7417 ****        -6.0000  12.7500  29.7500 Du        
   7418 ****        -6.0000  12.7500  30.0000 Du        
   7419 ****        -6.0000  12.7500  30.2500 Du        
   7420 ****        -6.0000  12.7500  30.5000 Du        
   7421 ****        -6.0000  12.7500  30.7500 Du        
   7422 ****        -6.0000  12.7500  31.0000 Du        
   7423 ****        -6.0000  12.7500  31.2500 Du        
   7424 ****        -6.0000  13.0000  27.7500 Du        
   7425 ****        -6.0000  13.0000  28.0000 Du        
   7426 ****        -6.0000  13.0000  28.2500 Du        
   7427 ****        -6.0000  13.0000  28.5000 Du        
   7428 ****        -6.0000  13.0000  28.7500 Du        
   7429 ****        -6.0000  13.0000  29.0000 Du        
   7430 ****        -6.0000  13.0000  29.2500 Du        
   7431 ****        -6.0000  13.0000  29.5000 Du        
   7432 ****        -6.0000  13.0000  29.7500 Du        
   7433 ****        -6.0000  13.0000  30.0000 Du        
   7434 ****        -6.0000  13.0000  30.2500 Du        
   7435 ****        -6.0000  13.0000  30.5000 Du        
   7436 ****        -6.0000  13.0000  30.7500 Du        
   7437 ****        -6.0000  13.0000  31.0000 Du        
   7438 ****        -6.0000  13.0000  31.2500 Du        
   7439 ****        -6.0000  13.2500  28.0000 Du        
   7440 ****        -6.0000  13.2500  28.2500 Du        
   7441 ****        -6.0000  13.2500  28.5000 Du        
   7442 ****        -6.0000  13.2500  28.7500 Du        
   7443 ****        -6.0000  13.2500  29.0000 Du        
   7444 ****        -6.0000  13.2500  29.2500 Du        
   7445 ****        -6.0000  13.2500  29.5000 Du        
   7446 ****        -6.0000  13.2500  29.7500 Du        
   7447 ****        -6.0000  13.2500  30.0000 Du        
   7448 ****        -6.0000  13.2500  30.2500 Du        
   7449 ****        -6.0000  13.2500  30.5000 Du        
   7450 ****        -6.0000  13.2500  30.7500 Du        
   7451 ****        -6.0000  13.2500  31.0000 Du        
   7452 ****        -6.0000  13.2500  31.2500 Du        
   7453 ****        -6.0000  13.5000  28.2500 Du        
   7454 ****        -6.0000  13.5000  28.5000 Du        
   7455 ****        -6.0000  13.5000  28.7500 Du        
   7456 ****        -6.0000  13.5000  29.0000 Du        
   7457 ****        -6.0000  13.5000  29.2500 Du        
   7458 ****        -6.0000  13.5000  29.5000 Du        
   7459 ****        -6.0000  13.5000  29.7500 Du        
   7460 ****        -6.0000  13.5000  30.0000 Du        
   7461 ****        -6.0000  13.5000  30.2500 Du        
   7462 ****        -6.0000  13.5000  30.5000 Du        
   7463 ****        -6.0000  13.5000  30.7500 Du        
   7464 ****        -6.0000  13.5000  31.0000 Du        
   7465 ****        -6.0000  13.5000  31.2500 Du        
   7466 ****        -6.0000  13.5000  31.5000 Du        
   7467 ****        -6.0000  13.5000  31.7500 Du        
   7468 ****        -6.0000  13.7500  28.5000 Du        
   7469 ****        -6.0000  13.7500  28.7500 Du        
   7470 ****        -6.0000  13.7500  29.0000 Du        
   7471 ****        -6.0000  13.7500  29.2500 Du        
   7472 ****        -6.0000  13.7500  29.5000 Du        
   7473 ****        -6.0000  13.7500  29.7500 Du        
   7474 ****        -6.0000  13.7500  30.0000 Du        
   7475 ****        -6.0000  13.7500  30.2500 Du        
   7476 ****        -6.0000  13.7500  30.5000 Du        
   7477 ****        -6.0000  13.7500  30.7500 Du        
   7478 ****        -6.0000  13.7500  31.0000 Du        
   7479 ****        -6.0000  13.7500  31.2500 Du        
   7480 ****        -6.0000  13.7500  31.5000 Du        
   7481 ****        -6.0000  13.7500  31.7500 Du        
   7482 ****        -6.0000  14.0000  28.5000 Du        
   7483 ****        -6.0000  14.0000  28.7500 Du        
   7484 ****        -6.0000  14.0000  29.0000 Du        
   7485 ****        -6.0000  14.0000  29.2500 Du        
   7486 ****        -6.0000  14.0000  29.5000 Du        
   7487 ****        -6.0000  14.0000  29.7500 Du        
   7488 ****        -6.0000  14.0000  30.0000 Du        
   7489 ****        -6.0000  14.0000  30.2500 Du        
   7490 ****        -6.0000  14.0000  30.5000 Du        
   7491 ****        -6.0000  14.0000  30.7500 Du        
   7492 ****        -6.0000  14.0000  31.0000 Du        
   7493 ****        -6.0000  14.0000  31.2500 Du        
   7494 ****        -6.0000  14.0000  31.5000 Du        
   7495 ****        -6.0000  14.0000  31.7500 Du        
   7496 ****        -6.0000  14.2500  28.7500 Du        
   7497 ****        -6.0000  14.2500  29.0000 Du        
   7498 ****        -6.0000  14.2500  29.2500 Du        
   7499 ****        -6.0000  14.2500  29.5000 Du        
   7500 ****        -6.0000  14.2500  29.7500 Du        
   7501 ****        -6.0000  14.2500  30.0000 Du        
   7502 ****        -6.0000  14.2500  30.2500 Du        
   7503 ****        -6.0000  14.2500  30.5000 Du        
   7504 ****        -6.0000  14.2500  30.7500 Du        
   7505 ****        -6.0000  14.2500  31.0000 Du        
   7506 ****        -6.0000  14.2500  31.2500 Du        
   7507 ****        -6.0000  14.2500  31.5000 Du        
   7508 ****        -6.0000  14.2500  31.7500 Du        
   7509 ****        -6.0000  14.5000  28.7500 Du        
   7510 ****        -6.0000  14.5000  29.0000 Du        
   7511 ****        -6.0000  14.5000  29.2500 Du        
   7512 ****        -6.0000  14.5000  29.5000 Du        
   7513 ****        -6.0000  14.5000  29.7500 Du        
   7514 ****        -6.0000  14.5000  30.0000 Du        
   7515 ****        -6.0000  14.5000  30.2500 Du        
   7516 ****        -6.0000  14.5000  30.5000 Du        
   7517 ****        -6.0000  14.5000  30.7500 Du        
   7518 ****        -6.0000  14.5000  31.0000 Du        
   7519 ****        -6.0000  14.5000  31.2500 Du        
   7520 ****        -6.0000  14.5000  31.7500 Du        
   7521 ****        -6.0000  14.7500  28.7500 Du        
   7522 ****        -6.0000  14.7500  29.0000 Du        
   7523 ****        -6.0000  14.7500  29.2500 Du        
   7524 ****        -6.0000  14.7500  29.5000 Du        
   7525 ****        -6.0000  14.7500  29.7500 Du        
   7526 ****        -6.0000  14.7500  30.0000 Du        
   7527 ****        -6.0000  14.7500  30.2500 Du        
   7528 ****        -6.0000  15.0000  29.0000 Du        
   7529 ****        -6.0000  15.0000  29.2500 Du        
   7530 ****        -6.0000  15.0000  29.5000 Du        
   7531 ****        -6.0000  15.0000  29.7500 Du        
   7532 ****        -6.0000  15.0000  34.0000 Du        
   7533 ****        -6.0000  15.0000  34.2500 Du        
   7534 ****        -6.0000  15.0000  34.5000 Du        
   7535 ****        -6.0000  15.2500  29.0000 Du        
   7536 ****        -6.0000  15.2500  29.2500 Du        
   7537 ****        -6.0000  15.2500  33.2500 Du        
   7538 ****        -6.0000  15.2500  33.5000 Du        
   7539 ****        -6.0000  15.2500  33.7500 Du        
   7540 ****        -6.0000  15.2500  34.0000 Du        
   7541 ****        -6.0000  15.2500  34.2500 Du        
   7542 ****        -6.0000  15.5000  33.5000 Du        
   7543 ****        -6.0000  15.5000  33.7500 Du        
   7544 ****        -6.0000  15.5000  34.0000 Du        
   7545 ****        -6.0000  18.2500   5.7500 Du        
   7546 ****        -6.0000  18.2500   6.0000 Du        
   7547 ****        -6.0000  18.5000   5.7500 Du        
   7548 ****        -6.0000  18.5000   6.0000 Du        
   7549 ****        -5.7500  -4.0000  -1.5000 Du        
   7550 ****        -5.7500  -4.0000  -1.2500 Du        
   7551 ****        -5.7500  -3.7500  -1.5000 Du        
   7552 ****        -5.7500  -3.7500  -1.2500 Du        
   7553 ****        -5.7500  -1.5000  20.7500 Du        
   7554 ****        -5.7500  -1.5000  21.0000 Du        
   7555 ****        -5.7500  -1.5000  21.2500 Du        
   7556 ****        -5.7500  -1.2500  20.0000 Du        
   7557 ****        -5.7500  -1.2500  20.2500 Du        
   7558 ****        -5.7500  -1.2500  20.5000 Du        
   7559 ****        -5.7500  -1.2500  20.7500 Du        
   7560 ****        -5.7500  -1.2500  21.0000 Du        
   7561 ****        -5.7500  -1.2500  21.2500 Du        
   7562 ****        -5.7500  -1.2500  21.5000 Du        
   7563 ****        -5.7500  -1.2500  21.7500 Du        
   7564 ****        -5.7500  -1.0000  19.7500 Du        
   7565 ****        -5.7500  -1.0000  20.0000 Du        
   7566 ****        -5.7500  -1.0000  20.2500 Du        
   7567 ****        -5.7500  -1.0000  20.5000 Du        
   7568 ****        -5.7500  -1.0000  20.7500 Du        
   7569 ****        -5.7500  -1.0000  21.0000 Du        
   7570 ****        -5.7500  -1.0000  21.2500 Du        
   7571 ****        -5.7500  -1.0000  21.5000 Du        
   7572 ****        -5.7500  -0.7500  20.0000 Du        
   7573 ****        -5.7500  -0.7500  20.2500 Du        
   7574 ****        -5.7500  -0.7500  20.5000 Du        
   7575 ****        -5.7500  -0.7500  20.7500 Du        
   7576 ****        -5.7500  -0.7500  21.0000 Du        
   7577 ****        -5.7500  -0.7500  21.2500 Du        
   7578 ****        -5.7500  -0.5000  20.0000 Du        
   7579 ****        -5.7500  -0.5000  20.2500 Du        
   7580 ****        -5.7500  -0.5000  20.5000 Du        
   7581 ****        -5.7500  -0.5000  20.7500 Du        
   7582 ****        -5.7500  -0.5000  21.0000 Du        
   7583 ****        -5.7500  -0.5000  21.2500 Du        
   7584 ****        -5.7500  -0.2500  20.2500 Du        
   7585 ****        -5.7500  -0.2500  20.5000 Du        
   7586 ****        -5.7500  -0.2500  20.7500 Du        
   7587 ****        -5.7500   4.7500   9.2500 Du        
   7588 ****        -5.7500   4.7500   9.5000 Du        
   7589 ****        -5.7500   4.7500   9.7500 Du        
   7590 ****        -5.7500   5.0000   9.5000 Du        
   7591 ****        -5.7500   5.0000   9.7500 Du        
   7592 ****        -5.7500   5.0000  10.0000 Du        
   7593 ****        -5.7500   5.0000  10.2500 Du        
   7594 ****        -5.7500   5.2500   9.5000 Du        
   7595 ****        -5.7500   5.2500   9.7500 Du        
   7596 ****        -5.7500   5.2500  10.0000 Du        
   7597 ****        -5.7500   5.2500  10.2500 Du        
   7598 ****        -5.7500   5.2500  10.5000 Du        
   7599 ****        -5.7500   5.2500  10.7500 Du        
   7600 ****        -5.7500   5.5000   9.5000 Du        
   7601 ****        -5.7500   5.5000   9.7500 Du        
   7602 ****        -5.7500   5.5000  10.0000 Du        
   7603 ****        -5.7500   5.5000  10.2500 Du        
   7604 ****        -5.7500   5.5000  10.5000 Du        
   7605 ****        -5.7500   5.5000  10.7500 Du        
   7606 ****        -5.7500   5.7500   9.5000 Du        
   7607 ****        -5.7500   5.7500   9.7500 Du        
   7608 ****        -5.7500   5.7500  10.0000 Du        
   7609 ****        -5.7500   5.7500  10.2500 Du        
   7610 ****        -5.7500   5.7500  10.5000 Du        
   7611 ****        -5.7500   5.7500  10.7500 Du        
   7612 ****        -5.7500   5.7500  11.0000 Du        
   7613 ****        -5.7500   6.0000   9.7500 Du        
   7614 ****        -5.7500   6.0000  10.0000 Du        
   7615 ****        -5.7500   6.0000  10.2500 Du        
   7616 ****        -5.7500   6.0000  10.5000 Du        
   7617 ****        -5.7500   6.0000  10.7500 Du        
   7618 ****        -5.7500   6.0000  11.0000 Du        
   7619 ****        -5.7500   6.2500   9.5000 Du        
   7620 ****        -5.7500   6.2500   9.7500 Du        
   7621 ****        -5.7500   6.2500  10.0000 Du        
   7622 ****        -5.7500   6.2500  10.2500 Du        
   7623 ****        -5.7500   6.2500  10.5000 Du        
   7624 ****        -5.7500   6.2500  10.7500 Du        
   7625 ****        -5.7500   6.2500  11.0000 Du        
   7626 ****        -5.7500   6.5000   9.7500 Du        
   7627 ****        -5.7500   6.5000  10.0000 Du        
   7628 ****        -5.7500   6.5000  10.2500 Du        
   7629 ****        -5.7500   6.5000  10.5000 Du        
   7630 ****        -5.7500   6.5000  10.7500 Du        
   7631 ****        -5.7500   6.5000  11.0000 Du        
   7632 ****        -5.7500   6.7500   9.7500 Du        
   7633 ****        -5.7500   6.7500  10.0000 Du        
   7634 ****        -5.7500   6.7500  10.2500 Du        
   7635 ****        -5.7500   6.7500  10.5000 Du        
   7636 ****        -5.7500   6.7500  10.7500 Du        
   7637 ****        -5.7500   6.7500  11.0000 Du        
   7638 ****        -5.7500   6.7500  11.2500 Du        
   7639 ****        -5.7500   7.0000  10.0000 Du        
   7640 ****        -5.7500   7.0000  10.2500 Du        
   7641 ****        -5.7500   7.0000  10.5000 Du        
   7642 ****        -5.7500   7.0000  10.7500 Du        
   7643 ****        -5.7500   7.0000  11.0000 Du        
   7644 ****        -5.7500   7.0000  11.2500 Du        
   7645 ****        -5.7500   7.2500  10.2500 Du        
   7646 ****        -5.7500   7.2500  10.5000 Du        
   7647 ****        -5.7500   7.2500  10.7500 Du        
   7648 ****        -5.7500   7.2500  11.0000 Du        
   7649 ****        -5.7500  11.7500  27.7500 Du        
   7650 ****        -5.7500  11.7500  28.0000 Du        
   7651 ****        -5.7500  11.7500  28.2500 Du        
   7652 ****        -5.7500  11.7500  28.5000 Du        
   7653 ****        -5.7500  11.7500  28.7500 Du        
   7654 ****        -5.7500  12.0000  27.5000 Du        
   7655 ****        -5.7500  12.0000  27.7500 Du        
   7656 ****        -5.7500  12.0000  28.0000 Du        
   7657 ****        -5.7500  12.0000  28.2500 Du        
   7658 ****        -5.7500  12.0000  28.5000 Du        
   7659 ****        -5.7500  12.0000  28.7500 Du        
   7660 ****        -5.7500  12.0000  29.0000 Du        
   7661 ****        -5.7500  12.0000  29.2500 Du        
   7662 ****        -5.7500  12.2500  27.5000 Du        
   7663 ****        -5.7500  12.2500  27.7500 Du        
   7664 ****        -5.7500  12.2500  28.0000 Du        
   7665 ****        -5.7500  12.2500  28.2500 Du        
   7666 ****        -5.7500  12.2500  28.5000 Du        
   7667 ****        -5.7500  12.2500  28.7500 Du        
   7668 ****        -5.7500  12.2500  29.0000 Du        
   7669 ****        -5.7500  12.2500  29.2500 Du        
   7670 ****        -5.7500  12.2500  29.5000 Du        
   7671 ****        -5.7500  12.2500  29.7500 Du        
   7672 ****        -5.7500  12.2500  30.0000 Du        
   7673 ****        -5.7500  12.2500  30.2500 Du        
   7674 ****        -5.7500  12.5000  27.5000 Du        
   7675 ****        -5.7500  12.5000  27.7500 Du        
   7676 ****        -5.7500  12.5000  28.0000 Du        
   7677 ****        -5.7500  12.5000  28.2500 Du        
   7678 ****        -5.7500  12.5000  28.5000 Du        
   7679 ****        -5.7500  12.5000  28.7500 Du        
   7680 ****        -5.7500  12.5000  29.0000 Du        
   7681 ****        -5.7500  12.5000  29.2500 Du        
   7682 ****        -5.7500  12.5000  29.5000 Du        
   7683 ****        -5.7500  12.5000  29.7500 Du        
   7684 ****        -5.7500  12.5000  30.0000 Du        
   7685 ****        -5.7500  12.5000  30.2500 Du        
   7686 ****        -5.7500  12.5000  30.5000 Du        
   7687 ****        -5.7500  12.5000  30.7500 Du        
   7688 ****        -5.7500  12.5000  31.0000 Du        
   7689 ****        -5.7500  12.7500  27.7500 Du        
   7690 ****        -5.7500  12.7500  28.0000 Du        
   7691 ****        -5.7500  12.7500  28.2500 Du        
   7692 ****        -5.7500  12.7500  28.5000 Du        
   7693 ****        -5.7500  12.7500  28.7500 Du        
   7694 ****        -5.7500  12.7500  29.0000 Du        
   7695 ****        -5.7500  12.7500  29.2500 Du        
   7696 ****        -5.7500  12.7500  29.5000 Du        
   7697 ****        -5.7500  12.7500  29.7500 Du        
   7698 ****        -5.7500  12.7500  30.0000 Du        
   7699 ****        -5.7500  12.7500  30.2500 Du        
   7700 ****        -5.7500  12.7500  30.5000 Du        
   7701 ****        -5.7500  12.7500  30.7500 Du        
   7702 ****        -5.7500  12.7500  31.0000 Du        
   7703 ****        -5.7500  13.0000  27.7500 Du        
   7704 ****        -5.7500  13.0000  28.0000 Du        
   7705 ****        -5.7500  13.0000  28.2500 Du        
   7706 ****        -5.7500  13.0000  28.5000 Du        
   7707 ****        -5.7500  13.0000  28.7500 Du        
   7708 ****        -5.7500  13.0000  29.0000 Du        
   7709 ****        -5.7500  13.0000  29.2500 Du        
   7710 ****        -5.7500  13.0000  29.5000 Du        
   7711 ****        -5.7500  13.0000  29.7500 Du        
   7712 ****        -5.7500  13.0000  30.0000 Du        
   7713 ****        -5.7500  13.0000  30.2500 Du        
   7714 ****        -5.7500  13.0000  30.5000 Du        
   7715 ****        -5.7500  13.0000  30.7500 Du        
   7716 ****        -5.7500  13.0000  31.0000 Du        
   7717 ****        -5.7500  13.2500  28.0000 Du        
   7718 ****        -5.7500  13.2500  28.2500 Du        
   7719 ****        -5.7500  13.2500  28.5000 Du        
   7720 ****        -5.7500  13.2500  28.7500 Du        
   7721 ****        -5.7500  13.2500  29.0000 Du        
   7722 ****        -5.7500  13.2500  29.2500 Du        
   7723 ****        -5.7500  13.2500  29.5000 Du        
   7724 ****        -5.7500  13.2500  29.7500 Du        
   7725 ****        -5.7500  13.2500  30.0000 Du        
   7726 ****        -5.7500  13.2500  30.2500 Du        
   7727 ****        -5.7500  13.2500  30.5000 Du        
   7728 ****        -5.7500  13.5000  28.2500 Du        
   7729 ****        -5.7500  13.5000  28.5000 Du        
   7730 ****        -5.7500  13.5000  28.7500 Du        
   7731 ****        -5.7500  13.5000  29.0000 Du        
   7732 ****        -5.7500  13.5000  29.2500 Du        
   7733 ****        -5.7500  13.5000  29.5000 Du        
   7734 ****        -5.7500  13.5000  29.7500 Du        
   7735 ****        -5.7500  13.5000  30.0000 Du        
   7736 ****        -5.7500  13.5000  30.2500 Du        
   7737 ****        -5.7500  13.7500  28.5000 Du        
   7738 ****        -5.7500  13.7500  28.7500 Du        
   7739 ****        -5.7500  13.7500  29.0000 Du        
   7740 ****        -5.7500  13.7500  29.2500 Du        
   7741 ****        -5.7500  13.7500  29.5000 Du        
   7742 ****        -5.7500  13.7500  29.7500 Du        
   7743 ****        -5.7500  13.7500  30.0000 Du        
   7744 ****        -5.7500  13.7500  30.2500 Du        
   7745 ****        -5.7500  14.0000  28.7500 Du        
   7746 ****        -5.7500  14.0000  29.0000 Du        
   7747 ****        -5.7500  14.0000  29.2500 Du        
   7748 ****        -5.7500  14.0000  29.5000 Du        
   7749 ****        -5.7500  14.0000  29.7500 Du        
   7750 ****        -5.7500  14.0000  30.0000 Du        
   7751 ****        -5.7500  14.0000  30.2500 Du        
   7752 ****        -5.7500  14.2500  28.7500 Du        
   7753 ****        -5.7500  14.2500  29.0000 Du        
   7754 ****        -5.7500  14.2500  29.2500 Du        
   7755 ****        -5.7500  14.2500  29.5000 Du        
   7756 ****        -5.7500  14.2500  29.7500 Du        
   7757 ****        -5.7500  14.2500  30.0000 Du        
   7758 ****        -5.7500  14.2500  30.2500 Du        
   7759 ****        -5.7500  14.5000  29.0000 Du        
   7760 ****        -5.7500  14.5000  29.2500 Du        
   7761 ****        -5.7500  14.5000  29.5000 Du        
   7762 ****        -5.7500  14.5000  29.7500 Du        
   7763 ****        -5.7500  14.5000  30.0000 Du        
   7764 ****        -5.7500  14.7500  29.0000 Du        
   7765 ****        -5.7500  14.7500  29.2500 Du        
   7766 ****        -5.7500  14.7500  29.5000 Du        
   7767 ****        -5.7500  14.7500  29.7500 Du        
   7768 ****        -5.7500  15.0000  29.2500 Du        
   7769 ****        -5.5000  -4.0000  -1.5000 Du        
   7770 ****        -5.5000  -4.0000  -1.2500 Du        
   7771 ****        -5.5000  -4.0000  -1.0000 Du        
   7772 ****        -5.5000  -3.7500  -1.5000 Du        
   7773 ****        -5.5000  -3.7500  -1.2500 Du        
   7774 ****        -5.5000  -3.7500  -1.0000 Du        
   7775 ****        -5.5000  -1.5000  20.2500 Du        
   7776 ****        -5.5000  -1.5000  20.5000 Du        
   7777 ****        -5.5000  -1.5000  20.7500 Du        
   7778 ****        -5.5000  -1.5000  21.0000 Du        
   7779 ****        -5.5000  -1.2500  20.0000 Du        
   7780 ****        -5.5000  -1.2500  20.2500 Du        
   7781 ****        -5.5000  -1.2500  20.5000 Du        
   7782 ****        -5.5000  -1.2500  20.7500 Du        
   7783 ****        -5.5000  -1.2500  21.0000 Du        
   7784 ****        -5.5000  -1.2500  21.2500 Du        
   7785 ****        -5.5000  -1.0000  20.0000 Du        
   7786 ****        -5.5000  -1.0000  20.2500 Du        
   7787 ****        -5.5000  -1.0000  20.5000 Du        
   7788 ****        -5.5000  -1.0000  20.7500 Du        
   7789 ****        -5.5000  -1.0000  21.0000 Du        
   7790 ****        -5.5000  -1.0000  21.2500 Du        
   7791 ****        -5.5000  -0.7500  20.0000 Du        
   7792 ****        -5.5000  -0.7500  20.2500 Du        
   7793 ****        -5.5000  -0.7500  20.5000 Du        
   7794 ****        -5.5000  -0.7500  20.7500 Du        
   7795 ****        -5.5000  -0.7500  21.0000 Du        
   7796 ****        -5.5000  -0.7500  21.2500 Du        
   7797 ****        -5.5000  -0.5000  20.2500 Du        
   7798 ****        -5.5000  -0.5000  20.5000 Du        
   7799 ****        -5.5000  -0.5000  20.7500 Du        
   7800 ****        -5.5000   4.5000   9.5000 Du        
   7801 ****        -5.5000   4.7500   9.5000 Du        
   7802 ****        -5.5000   4.7500   9.7500 Du        
   7803 ****        -5.5000   4.7500  10.0000 Du        
   7804 ****        -5.5000   4.7500  10.2500 Du        
   7805 ****        -5.5000   5.0000   9.5000 Du        
   7806 ****        -5.5000   5.0000   9.7500 Du        
   7807 ****        -5.5000   5.0000  10.0000 Du        
   7808 ****        -5.5000   5.0000  10.2500 Du        
   7809 ****        -5.5000   5.0000  10.5000 Du        
   7810 ****        -5.5000   5.2500   9.5000 Du        
   7811 ****        -5.5000   5.2500   9.7500 Du        
   7812 ****        -5.5000   5.2500  10.0000 Du        
   7813 ****        -5.5000   5.2500  10.2500 Du        
   7814 ****        -5.5000   5.2500  10.5000 Du        
   7815 ****        -5.5000   5.2500  10.7500 Du        
   7816 ****        -5.5000   5.5000   9.5000 Du        
   7817 ****        -5.5000   5.5000   9.7500 Du        
   7818 ****        -5.5000   5.5000  10.0000 Du        
   7819 ****        -5.5000   5.5000  10.2500 Du        
   7820 ****        -5.5000   5.5000  10.5000 Du        
   7821 ****        -5.5000   5.5000  10.7500 Du        
   7822 ****        -5.5000   5.5000  11.0000 Du        
   7823 ****        -5.5000   5.7500   9.5000 Du        
   7824 ****        -5.5000   5.7500   9.7500 Du        
   7825 ****        -5.5000   5.7500  10.0000 Du        
   7826 ****        -5.5000   5.7500  10.2500 Du        
   7827 ****        -5.5000   5.7500  10.5000 Du        
   7828 ****        -5.5000   5.7500  10.7500 Du        
   7829 ****        -5.5000   5.7500  11.0000 Du        
   7830 ****        -5.5000   6.0000   9.7500 Du        
   7831 ****        -5.5000   6.0000  10.0000 Du        
   7832 ****        -5.5000   6.0000  10.2500 Du        
   7833 ****        -5.5000   6.0000  10.5000 Du        
   7834 ****        -5.5000   6.0000  10.7500 Du        
   7835 ****        -5.5000   6.0000  11.0000 Du        
   7836 ****        -5.5000   6.0000  11.2500 Du        
   7837 ****        -5.5000   6.2500   9.7500 Du        
   7838 ****        -5.5000   6.2500  10.0000 Du        
   7839 ****        -5.5000   6.2500  10.2500 Du        
   7840 ****        -5.5000   6.2500  10.5000 Du        
   7841 ****        -5.5000   6.2500  10.7500 Du        
   7842 ****        -5.5000   6.2500  11.0000 Du        
   7843 ****        -5.5000   6.2500  11.2500 Du        
   7844 ****        -5.5000   6.5000  10.0000 Du        
   7845 ****        -5.5000   6.5000  10.2500 Du        
   7846 ****        -5.5000   6.5000  10.5000 Du        
   7847 ****        -5.5000   6.5000  10.7500 Du        
   7848 ****        -5.5000   6.5000  11.0000 Du        
   7849 ****        -5.5000   6.5000  11.2500 Du        
   7850 ****        -5.5000   6.7500  10.0000 Du        
   7851 ****        -5.5000   6.7500  10.2500 Du        
   7852 ****        -5.5000   6.7500  10.5000 Du        
   7853 ****        -5.5000   6.7500  10.7500 Du        
   7854 ****        -5.5000   6.7500  11.0000 Du        
   7855 ****        -5.5000   6.7500  11.2500 Du        
   7856 ****        -5.5000   7.0000  10.0000 Du        
   7857 ****        -5.5000   7.0000  10.2500 Du        
   7858 ****        -5.5000   7.0000  10.5000 Du        
   7859 ****        -5.5000   7.0000  10.7500 Du        
   7860 ****        -5.5000   7.0000  11.0000 Du        
   7861 ****        -5.5000   7.2500  10.2500 Du        
   7862 ****        -5.5000   7.2500  10.5000 Du        
   7863 ****        -5.5000   7.2500  10.7500 Du        
   7864 ****        -5.5000   7.2500  11.0000 Du        
   7865 ****        -5.5000  12.2500  27.7500 Du        
   7866 ****        -5.5000  12.2500  28.0000 Du        
   7867 ****        -5.5000  12.2500  28.2500 Du        
   7868 ****        -5.5000  12.2500  28.5000 Du        
   7869 ****        -5.5000  12.2500  28.7500 Du        
   7870 ****        -5.5000  12.2500  29.0000 Du        
   7871 ****        -5.5000  12.2500  29.2500 Du        
   7872 ****        -5.5000  12.5000  27.5000 Du        
   7873 ****        -5.5000  12.5000  27.7500 Du        
   7874 ****        -5.5000  12.5000  28.0000 Du        
   7875 ****        -5.5000  12.5000  28.2500 Du        
   7876 ****        -5.5000  12.5000  28.5000 Du        
   7877 ****        -5.5000  12.5000  28.7500 Du        
   7878 ****        -5.5000  12.5000  29.0000 Du        
   7879 ****        -5.5000  12.5000  29.2500 Du        
   7880 ****        -5.5000  12.5000  29.5000 Du        
   7881 ****        -5.5000  12.5000  29.7500 Du        
   7882 ****        -5.5000  12.5000  30.0000 Du        
   7883 ****        -5.5000  12.5000  30.2500 Du        
   7884 ****        -5.5000  12.7500  27.7500 Du        
   7885 ****        -5.5000  12.7500  28.0000 Du        
   7886 ****        -5.5000  12.7500  28.2500 Du        
   7887 ****        -5.5000  12.7500  28.5000 Du        
   7888 ****        -5.5000  12.7500  28.7500 Du        
   7889 ****        -5.5000  12.7500  29.0000 Du        
   7890 ****        -5.5000  12.7500  29.2500 Du        
   7891 ****        -5.5000  12.7500  29.5000 Du        
   7892 ****        -5.5000  12.7500  29.7500 Du        
   7893 ****        -5.5000  12.7500  30.0000 Du        
   7894 ****        -5.5000  12.7500  30.2500 Du        
   7895 ****        -5.5000  13.0000  27.7500 Du        
   7896 ****        -5.5000  13.0000  28.0000 Du        
   7897 ****        -5.5000  13.0000  28.2500 Du        
   7898 ****        -5.5000  13.0000  28.5000 Du        
   7899 ****        -5.5000  13.0000  28.7500 Du        
   7900 ****        -5.5000  13.0000  29.0000 Du        
   7901 ****        -5.5000  13.0000  29.2500 Du        
   7902 ****        -5.5000  13.0000  29.5000 Du        
   7903 ****        -5.5000  13.0000  29.7500 Du        
   7904 ****        -5.5000  13.0000  30.0000 Du        
   7905 ****        -5.5000  13.2500  28.0000 Du        
   7906 ****        -5.5000  13.2500  28.2500 Du        
   7907 ****        -5.5000  13.2500  28.5000 Du        
   7908 ****        -5.5000  13.2500  28.7500 Du        
   7909 ****        -5.5000  13.2500  29.0000 Du        
   7910 ****        -5.5000  13.2500  29.2500 Du        
   7911 ****        -5.5000  13.2500  29.5000 Du        
   7912 ****        -5.5000  13.2500  29.7500 Du        
   7913 ****        -5.5000  13.2500  30.0000 Du        
   7914 ****        -5.5000  13.5000  28.2500 Du        
   7915 ****        -5.5000  13.5000  28.5000 Du        
   7916 ****        -5.5000  13.5000  28.7500 Du        
   7917 ****        -5.5000  13.5000  29.0000 Du        
   7918 ****        -5.5000  13.5000  29.2500 Du        
   7919 ****        -5.5000  13.5000  29.5000 Du        
   7920 ****        -5.5000  13.5000  29.7500 Du        
   7921 ****        -5.5000  13.7500  28.5000 Du        
   7922 ****        -5.5000  13.7500  28.7500 Du        
   7923 ****        -5.5000  13.7500  29.0000 Du        
   7924 ****        -5.5000  13.7500  29.2500 Du        
   7925 ****        -5.5000  13.7500  29.5000 Du        
   7926 ****        -5.5000  13.7500  29.7500 Du        
   7927 ****        -5.5000  14.0000  28.7500 Du        
   7928 ****        -5.5000  14.0000  29.0000 Du        
   7929 ****        -5.5000  14.0000  29.2500 Du        
   7930 ****        -5.5000  14.0000  29.5000 Du        
   7931 ****        -5.5000  14.0000  29.7500 Du        
   7932 ****        -5.5000  14.2500  29.0000 Du        
   7933 ****        -5.5000  14.2500  29.2500 Du        
   7934 ****        -5.5000  14.2500  29.5000 Du        
   7935 ****        -5.5000  14.5000  29.0000 Du        
   7936 ****        -5.5000  14.5000  29.2500 Du        
   7937 ****        -5.5000  14.5000  29.5000 Du        
   7938 ****        -5.2500  -4.0000  -1.5000 Du        
   7939 ****        -5.2500  -4.0000  -1.2500 Du        
   7940 ****        -5.2500  -4.0000  -1.0000 Du        
   7941 ****        -5.2500  -3.7500  -1.2500 Du        
   7942 ****        -5.2500  -3.7500  -1.0000 Du        
   7943 ****        -5.2500  -1.5000  20.0000 Du        
   7944 ****        -5.2500  -1.5000  20.2500 Du        
   7945 ****        -5.2500  -1.5000  20.5000 Du        
   7946 ****        -5.2500  -1.5000  20.7500 Du        
   7947 ****        -5.2500  -1.5000  21.0000 Du        
   7948 ****        -5.2500  -1.5000  21.2500 Du        
   7949 ****        -5.2500  -1.2500  20.0000 Du        
   7950 ****        -5.2500  -1.2500  20.2500 Du        
   7951 ****        -5.2500  -1.2500  20.5000 Du        
   7952 ****        -5.2500  -1.2500  20.7500 Du        
   7953 ****        -5.2500  -1.2500  21.0000 Du        
   7954 ****        -5.2500  -1.2500  21.2500 Du        
   7955 ****        -5.2500  -1.0000  20.0000 Du        
   7956 ****        -5.2500  -1.0000  20.2500 Du        
   7957 ****        -5.2500  -1.0000  20.5000 Du        
   7958 ****        -5.2500  -1.0000  20.7500 Du        
   7959 ****        -5.2500  -1.0000  21.0000 Du        
   7960 ****        -5.2500  -1.0000  21.2500 Du        
   7961 ****        -5.2500  -0.7500  20.2500 Du        
   7962 ****        -5.2500  -0.7500  20.5000 Du        
   7963 ****        -5.2500  -0.7500  20.7500 Du        
   7964 ****        -5.2500  -0.7500  21.0000 Du        
   7965 ****        -5.2500   3.7500   8.7500 Du        
   7966 ****        -5.2500   4.0000   9.0000 Du        
   7967 ****        -5.2500   4.0000   9.5000 Du        
   7968 ****        -5.2500   4.2500   9.0000 Du        
   7969 ****        -5.2500   4.2500   9.2500 Du        
   7970 ****        -5.2500   4.2500   9.5000 Du        
   7971 ****        -5.2500   4.2500   9.7500 Du        
   7972 ****        -5.2500   4.5000   9.5000 Du        
   7973 ****        -5.2500   4.5000   9.7500 Du        
   7974 ****        -5.2500   4.5000  10.0000 Du        
   7975 ****        -5.2500   4.7500   9.5000 Du        
   7976 ****        -5.2500   4.7500   9.7500 Du        
   7977 ****        -5.2500   4.7500  10.0000 Du        
   7978 ****        -5.2500   4.7500  10.2500 Du        
   7979 ****        -5.2500   4.7500  10.5000 Du        
   7980 ****        -5.2500   5.0000   9.5000 Du        
   7981 ****        -5.2500   5.0000   9.7500 Du        
   7982 ****        -5.2500   5.0000  10.0000 Du        
   7983 ****        -5.2500   5.0000  10.2500 Du        
   7984 ****        -5.2500   5.0000  10.5000 Du        
   7985 ****        -5.2500   5.0000  10.7500 Du        
   7986 ****        -5.2500   5.2500   9.5000 Du        
   7987 ****        -5.2500   5.2500   9.7500 Du        
   7988 ****        -5.2500   5.2500  10.0000 Du        
   7989 ****        -5.2500   5.2500  10.2500 Du        
   7990 ****        -5.2500   5.2500  10.5000 Du        
   7991 ****        -5.2500   5.2500  10.7500 Du        
   7992 ****        -5.2500   5.2500  11.0000 Du        
   7993 ****        -5.2500   5.5000   9.5000 Du        
   7994 ****        -5.2500   5.5000   9.7500 Du        
   7995 ****        -5.2500   5.5000  10.0000 Du        
   7996 ****        -5.2500   5.5000  10.2500 Du        
   7997 ****        -5.2500   5.5000  10.5000 Du        
   7998 ****        -5.2500   5.5000  10.7500 Du        
   7999 ****        -5.2500   5.5000  11.0000 Du        
   8000 ****        -5.2500   5.5000  11.2500 Du        
   8001 ****        -5.2500   5.7500   9.7500 Du        
   8002 ****        -5.2500   5.7500  10.0000 Du        
   8003 ****        -5.2500   5.7500  10.2500 Du        
   8004 ****        -5.2500   5.7500  10.5000 Du        
   8005 ****        -5.2500   5.7500  10.7500 Du        
   8006 ****        -5.2500   5.7500  11.0000 Du        
   8007 ****        -5.2500   5.7500  11.2500 Du        
   8008 ****        -5.2500   6.0000   9.7500 Du        
   8009 ****        -5.2500   6.0000  10.0000 Du        
   8010 ****        -5.2500   6.0000  10.2500 Du        
   8011 ****        -5.2500   6.0000  10.5000 Du        
   8012 ****        -5.2500   6.0000  10.7500 Du        
   8013 ****        -5.2500   6.0000  11.0000 Du        
   8014 ****        -5.2500   6.0000  11.2500 Du        
   8015 ****        -5.2500   6.2500   9.7500 Du        
   8016 ****        -5.2500   6.2500  10.0000 Du        
   8017 ****        -5.2500   6.2500  10.2500 Du        
   8018 ****        -5.2500   6.2500  10.5000 Du        
   8019 ****        -5.2500   6.2500  10.7500 Du        
   8020 ****        -5.2500   6.2500  11.0000 Du        
   8021 ****        -5.2500   6.2500  11.2500 Du        
   8022 ****        -5.2500   6.5000  10.0000 Du        
   8023 ****        -5.2500   6.5000  10.2500 Du        
   8024 ****        -5.2500   6.5000  10.5000 Du        
   8025 ****        -5.2500   6.5000  10.7500 Du        
   8026 ****        -5.2500   6.5000  11.0000 Du        
   8027 ****        -5.2500   6.5000  11.2500 Du        
   8028 ****        -5.2500   6.7500  10.0000 Du        
   8029 ****        -5.2500   6.7500  10.2500 Du        
   8030 ****        -5.2500   6.7500  10.5000 Du        
   8031 ****        -5.2500   6.7500  10.7500 Du        
   8032 ****        -5.2500   6.7500  11.0000 Du        
   8033 ****        -5.2500   6.7500  11.2500 Du        
   8034 ****        -5.2500   7.0000  10.0000 Du        
   8035 ****        -5.2500   7.0000  10.2500 Du        
   8036 ****        -5.2500   7.0000  10.5000 Du        
   8037 ****        -5.2500   7.0000  10.7500 Du        
   8038 ****        -5.2500   7.0000  11.0000 Du        
   8039 ****        -5.2500   7.2500  10.5000 Du        
   8040 ****        -5.2500   7.2500  10.7500 Du        
   8041 ****        -5.2500  12.5000  27.7500 Du        
   8042 ****        -5.2500  12.5000  28.0000 Du        
   8043 ****        -5.2500  12.5000  28.2500 Du        
   8044 ****        -5.2500  12.5000  28.5000 Du        
   8045 ****        -5.2500  12.5000  28.7500 Du        
   8046 ****        -5.2500  12.7500  27.7500 Du        
   8047 ****        -5.2500  12.7500  28.0000 Du        
   8048 ****        -5.2500  12.7500  28.2500 Du        
   8049 ****        -5.2500  12.7500  28.5000 Du        
   8050 ****        -5.2500  12.7500  28.7500 Du        
   8051 ****        -5.2500  12.7500  29.0000 Du        
   8052 ****        -5.2500  12.7500  29.2500 Du        
   8053 ****        -5.2500  12.7500  29.5000 Du        
   8054 ****        -5.2500  13.0000  28.0000 Du        
   8055 ****        -5.2500  13.0000  28.2500 Du        
   8056 ****        -5.2500  13.0000  28.5000 Du        
   8057 ****        -5.2500  13.0000  28.7500 Du        
   8058 ****        -5.2500  13.0000  29.0000 Du        
   8059 ****        -5.2500  13.0000  29.2500 Du        
   8060 ****        -5.2500  13.0000  29.5000 Du        
   8061 ****        -5.2500  13.0000  29.7500 Du        
   8062 ****        -5.2500  13.2500  28.0000 Du        
   8063 ****        -5.2500  13.2500  28.2500 Du        
   8064 ****        -5.2500  13.2500  28.5000 Du        
   8065 ****        -5.2500  13.2500  28.7500 Du        
   8066 ****        -5.2500  13.2500  29.0000 Du        
   8067 ****        -5.2500  13.2500  29.2500 Du        
   8068 ****        -5.2500  13.2500  29.5000 Du        
   8069 ****        -5.2500  13.5000  28.2500 Du        
   8070 ****        -5.2500  13.5000  28.5000 Du        
   8071 ****        -5.2500  13.5000  28.7500 Du        
   8072 ****        -5.2500  13.5000  29.0000 Du        
   8073 ****        -5.2500  13.5000  29.2500 Du        
   8074 ****        -5.2500  13.5000  29.5000 Du        
   8075 ****        -5.2500  13.7500  28.5000 Du        
   8076 ****        -5.2500  13.7500  28.7500 Du        
   8077 ****        -5.2500  13.7500  29.0000 Du        
   8078 ****        -5.2500  13.7500  29.2500 Du        
   8079 ****        -5.2500  14.0000  28.7500 Du        
   8080 ****        -5.2500  14.0000  29.0000 Du        
   8081 ****        -5.2500  14.0000  29.2500 Du        
   8082 ****        -5.2500  14.2500  29.0000 Du        
   8083 ****        -5.2500  14.2500  29.2500 Du        
   8084 ****        -5.0000  -4.0000  -1.2500 Du        
   8085 ****        -5.0000  -2.0000  19.2500 Du        
   8086 ****        -5.0000  -1.7500  19.7500 Du        
   8087 ****        -5.0000  -1.7500  20.0000 Du        
   8088 ****        -5.0000  -1.7500  20.2500 Du        
   8089 ****        -5.0000  -1.5000  20.2500 Du        
   8090 ****        -5.0000  -1.5000  20.5000 Du        
   8091 ****        -5.0000  -1.5000  20.7500 Du        
   8092 ****        -5.0000  -1.5000  21.0000 Du        
   8093 ****        -5.0000  -1.2500  20.2500 Du        
   8094 ****        -5.0000  -1.2500  20.5000 Du        
   8095 ****        -5.0000  -1.2500  20.7500 Du        
   8096 ****        -5.0000  -1.2500  21.0000 Du        
   8097 ****        -5.0000  -1.2500  21.2500 Du        
   8098 ****        -5.0000  -1.0000  20.2500 Du        
   8099 ****        -5.0000  -1.0000  20.5000 Du        
   8100 ****        -5.0000  -1.0000  20.7500 Du        
   8101 ****        -5.0000  -1.0000  21.0000 Du        
   8102 ****        -5.0000   3.7500   8.7500 Du        
   8103 ****        -5.0000   3.7500   9.0000 Du        
   8104 ****        -5.0000   4.0000   9.0000 Du        
   8105 ****        -5.0000   4.0000   9.2500 Du        
   8106 ****        -5.0000   4.0000   9.5000 Du        
   8107 ****        -5.0000   4.2500   9.0000 Du        
   8108 ****        -5.0000   4.2500   9.2500 Du        
   8109 ****        -5.0000   4.2500   9.5000 Du        
   8110 ****        -5.0000   4.2500   9.7500 Du        
   8111 ****        -5.0000   4.5000   9.5000 Du        
   8112 ****        -5.0000   4.5000   9.7500 Du        
   8113 ****        -5.0000   4.5000  10.0000 Du        
   8114 ****        -5.0000   4.7500   9.5000 Du        
   8115 ****        -5.0000   4.7500   9.7500 Du        
   8116 ****        -5.0000   4.7500  10.0000 Du        
   8117 ****        -5.0000   4.7500  10.2500 Du        
   8118 ****        -5.0000   4.7500  10.5000 Du        
   8119 ****        -5.0000   5.0000   9.5000 Du        
   8120 ****        -5.0000   5.0000   9.7500 Du        
   8121 ****        -5.0000   5.0000  10.0000 Du        
   8122 ****        -5.0000   5.0000  10.2500 Du        
   8123 ****        -5.0000   5.0000  10.5000 Du        
   8124 ****        -5.0000   5.0000  10.7500 Du        
   8125 ****        -5.0000   5.0000  11.0000 Du        
   8126 ****        -5.0000   5.2500   9.5000 Du        
   8127 ****        -5.0000   5.2500   9.7500 Du        
   8128 ****        -5.0000   5.2500  10.0000 Du        
   8129 ****        -5.0000   5.2500  10.2500 Du        
   8130 ****        -5.0000   5.2500  10.5000 Du        
   8131 ****        -5.0000   5.2500  10.7500 Du        
   8132 ****        -5.0000   5.2500  11.0000 Du        
   8133 ****        -5.0000   5.2500  11.2500 Du        
   8134 ****        -5.0000   5.2500  11.5000 Du        
   8135 ****        -5.0000   5.5000   9.7500 Du        
   8136 ****        -5.0000   5.5000  10.0000 Du        
   8137 ****        -5.0000   5.5000  10.2500 Du        
   8138 ****        -5.0000   5.5000  10.5000 Du        
   8139 ****        -5.0000   5.5000  10.7500 Du        
   8140 ****        -5.0000   5.5000  11.0000 Du        
   8141 ****        -5.0000   5.5000  11.2500 Du        
   8142 ****        -5.0000   5.5000  11.5000 Du        
   8143 ****        -5.0000   5.7500   9.7500 Du        
   8144 ****        -5.0000   5.7500  10.0000 Du        
   8145 ****        -5.0000   5.7500  10.2500 Du        
   8146 ****        -5.0000   5.7500  10.5000 Du        
   8147 ****        -5.0000   5.7500  10.7500 Du        
   8148 ****        -5.0000   5.7500  11.0000 Du        
   8149 ****        -5.0000   5.7500  11.2500 Du        
   8150 ****        -5.0000   5.7500  11.5000 Du        
   8151 ****        -5.0000   6.0000   9.7500 Du        
   8152 ****        -5.0000   6.0000  10.0000 Du        
   8153 ****        -5.0000   6.0000  10.2500 Du        
   8154 ****        -5.0000   6.0000  10.5000 Du        
   8155 ****        -5.0000   6.0000  10.7500 Du        
   8156 ****        -5.0000   6.0000  11.0000 Du        
   8157 ****        -5.0000   6.0000  11.2500 Du        
   8158 ****        -5.0000   6.0000  11.5000 Du        
   8159 ****        -5.0000   6.2500   9.7500 Du        
   8160 ****        -5.0000   6.2500  10.0000 Du        
   8161 ****        -5.0000   6.2500  10.2500 Du        
   8162 ****        -5.0000   6.2500  10.5000 Du        
   8163 ****        -5.0000   6.2500  10.7500 Du        
   8164 ****        -5.0000   6.2500  11.0000 Du        
   8165 ****        -5.0000   6.2500  11.2500 Du        
   8166 ****        -5.0000   6.5000  10.0000 Du        
   8167 ****        -5.0000   6.5000  10.2500 Du        
   8168 ****        -5.0000   6.5000  10.5000 Du        
   8169 ****        -5.0000   6.5000  10.7500 Du        
   8170 ****        -5.0000   6.5000  11.0000 Du        
   8171 ****        -5.0000   6.7500  10.0000 Du        
   8172 ****        -5.0000   6.7500  10.2500 Du        
   8173 ****        -5.0000   6.7500  10.5000 Du        
   8174 ****        -5.0000   6.7500  10.7500 Du        
   8175 ****        -5.0000   6.7500  11.0000 Du        
   8176 ****        -5.0000   7.0000  10.2500 Du        
   8177 ****        -5.0000   7.0000  10.5000 Du        
   8178 ****        -5.0000   7.0000  10.7500 Du        
   8179 ****        -5.0000   7.0000  11.0000 Du        
   8180 ****        -5.0000   7.2500  10.5000 Du        
   8181 ****        -5.0000   7.2500  10.7500 Du        
   8182 ****        -5.0000  12.7500  28.0000 Du        
   8183 ****        -5.0000  12.7500  28.2500 Du        
   8184 ****        -5.0000  13.0000  28.0000 Du        
   8185 ****        -5.0000  13.0000  28.2500 Du        
   8186 ****        -5.0000  13.0000  28.5000 Du        
   8187 ****        -5.0000  13.0000  28.7500 Du        
   8188 ****        -5.0000  13.0000  29.0000 Du        
   8189 ****        -5.0000  13.0000  29.2500 Du        
   8190 ****        -5.0000  13.2500  28.2500 Du        
   8191 ****        -5.0000  13.2500  28.5000 Du        
   8192 ****        -5.0000  13.2500  28.7500 Du        
   8193 ****        -5.0000  13.2500  29.0000 Du        
   8194 ****        -5.0000  13.2500  29.2500 Du        
   8195 ****        -5.0000  13.5000  28.2500 Du        
   8196 ****        -5.0000  13.5000  28.5000 Du        
   8197 ****        -5.0000  13.5000  28.7500 Du        
   8198 ****        -5.0000  13.5000  29.0000 Du        
   8199 ****        -5.0000  13.5000  29.2500 Du        
   8200 ****        -5.0000  13.7500  28.5000 Du        
   8201 ****        -5.0000  13.7500  28.7500 Du        
   8202 ****        -5.0000  13.7500  29.0000 Du        
   8203 ****        -5.0000  14.0000  28.7500 Du        
   8204 ****        -5.0000  14.0000  29.0000 Du        
   8205 ****        -4.7500  -4.0000  -1.2500 Du        
   8206 ****        -4.7500  -2.5000  18.2500 Du        
   8207 ****        -4.7500  -2.5000  18.5000 Du        
   8208 ****        -4.7500  -2.2500  18.2500 Du        
   8209 ****        -4.7500  -2.2500  18.5000 Du        
   8210 ****        -4.7500  -2.2500  18.7500 Du        
   8211 ****        -4.7500  -2.2500  19.0000 Du        
   8212 ****        -4.7500  -2.2500  19.2500 Du        
   8213 ****        -4.7500  -2.0000  19.0000 Du        
   8214 ****        -4.7500  -2.0000  19.2500 Du        
   8215 ****        -4.7500  -2.0000  19.5000 Du        
   8216 ****        -4.7500  -2.0000  19.7500 Du        
   8217 ****        -4.7500  -1.7500  19.7500 Du        
   8218 ****        -4.7500  -1.7500  20.0000 Du        
   8219 ****        -4.7500  -1.7500  20.2500 Du        
   8220 ****        -4.7500  -1.5000  20.2500 Du        
   8221 ****        -4.7500  -1.5000  20.5000 Du        
   8222 ****        -4.7500  -1.2500  20.5000 Du        
   8223 ****        -4.7500  -1.2500  20.7500 Du        
   8224 ****        -4.7500   4.2500   9.5000 Du        
   8225 ****        -4.7500   4.2500   9.7500 Du        
   8226 ****        -4.7500   4.5000   9.5000 Du        
   8227 ****        -4.7500   4.5000   9.7500 Du        
   8228 ****        -4.7500   4.5000  10.0000 Du        
   8229 ****        -4.7500   4.7500   9.7500 Du        
   8230 ****        -4.7500   4.7500  10.0000 Du        
   8231 ****        -4.7500   4.7500  10.2500 Du        
   8232 ****        -4.7500   4.7500  10.5000 Du        
   8233 ****        -4.7500   4.7500  10.7500 Du        
   8234 ****        -4.7500   5.0000   9.7500 Du        
   8235 ****        -4.7500   5.0000  10.0000 Du        
   8236 ****        -4.7500   5.0000  10.2500 Du        
   8237 ****        -4.7500   5.0000  10.5000 Du        
   8238 ****        -4.7500   5.0000  10.7500 Du        
   8239 ****        -4.7500   5.0000  11.0000 Du        
   8240 ****        -4.7500   5.0000  11.2500 Du        
   8241 ****        -4.7500   5.2500   9.7500 Du        
   8242 ****        -4.7500   5.2500  10.0000 Du        
   8243 ****        -4.7500   5.2500  10.2500 Du        
   8244 ****        -4.7500   5.2500  10.5000 Du        
   8245 ****        -4.7500   5.2500  10.7500 Du        
   8246 ****        -4.7500   5.2500  11.0000 Du        
   8247 ****        -4.7500   5.2500  11.2500 Du        
   8248 ****        -4.7500   5.2500  11.5000 Du        
   8249 ****        -4.7500   5.2500  11.7500 Du        
   8250 ****        -4.7500   5.5000   9.7500 Du        
   8251 ****        -4.7500   5.5000  10.0000 Du        
   8252 ****        -4.7500   5.5000  10.2500 Du        
   8253 ****        -4.7500   5.5000  10.5000 Du        
   8254 ****        -4.7500   5.5000  10.7500 Du        
   8255 ****        -4.7500   5.5000  11.0000 Du        
   8256 ****        -4.7500   5.5000  11.2500 Du        
   8257 ****        -4.7500   5.5000  11.5000 Du        
   8258 ****        -4.7500   5.5000  11.7500 Du        
   8259 ****        -4.7500   5.7500   9.7500 Du        
   8260 ****        -4.7500   5.7500  10.0000 Du        
   8261 ****        -4.7500   5.7500  10.2500 Du        
   8262 ****        -4.7500   5.7500  10.5000 Du        
   8263 ****        -4.7500   5.7500  10.7500 Du        
   8264 ****        -4.7500   5.7500  11.0000 Du        
   8265 ****        -4.7500   5.7500  11.2500 Du        
   8266 ****        -4.7500   5.7500  11.5000 Du        
   8267 ****        -4.7500   6.0000   9.7500 Du        
   8268 ****        -4.7500   6.0000  10.0000 Du        
   8269 ****        -4.7500   6.0000  10.2500 Du        
   8270 ****        -4.7500   6.0000  10.5000 Du        
   8271 ****        -4.7500   6.0000  10.7500 Du        
   8272 ****        -4.7500   6.0000  11.0000 Du        
   8273 ****        -4.7500   6.0000  11.2500 Du        
   8274 ****        -4.7500   6.2500  10.0000 Du        
   8275 ****        -4.7500   6.2500  10.2500 Du        
   8276 ****        -4.7500   6.2500  10.5000 Du        
   8277 ****        -4.7500   6.2500  10.7500 Du        
   8278 ****        -4.7500   6.2500  11.0000 Du        
   8279 ****        -4.7500   6.2500  11.2500 Du        
   8280 ****        -4.7500   6.5000  10.2500 Du        
   8281 ****        -4.7500   6.5000  10.5000 Du        
   8282 ****        -4.7500   6.5000  10.7500 Du        
   8283 ****        -4.7500   6.5000  11.0000 Du        
   8284 ****        -4.7500   6.7500  10.2500 Du        
   8285 ****        -4.7500   6.7500  10.5000 Du        
   8286 ****        -4.7500   6.7500  10.7500 Du        
   8287 ****        -4.7500   6.7500  11.0000 Du        
   8288 ****        -4.7500   7.0000  10.5000 Du        
   8289 ****        -4.7500   7.0000  10.7500 Du        
   8290 ****        -4.7500   7.2500  10.5000 Du        
   8291 ****        -4.7500  13.2500  28.2500 Du        
   8292 ****        -4.7500  13.2500  28.5000 Du        
   8293 ****        -4.7500  13.5000  28.7500 Du        
   8294 ****        -4.5000  -2.5000  18.2500 Du        
   8295 ****        -4.5000  -2.5000  18.5000 Du        
   8296 ****        -4.5000  -2.5000  18.7500 Du        
   8297 ****        -4.5000  -2.5000  19.0000 Du        
   8298 ****        -4.5000  -2.2500  18.2500 Du        
   8299 ****        -4.5000  -2.2500  18.5000 Du        
   8300 ****        -4.5000  -2.2500  18.7500 Du        
   8301 ****        -4.5000  -2.2500  19.0000 Du        
   8302 ****        -4.5000  -2.2500  19.2500 Du        
   8303 ****        -4.5000  -2.0000  19.2500 Du        
   8304 ****        -4.5000   4.7500   9.7500 Du        
   8305 ****        -4.5000   4.7500  10.0000 Du        
   8306 ****        -4.5000   4.7500  10.2500 Du        
   8307 ****        -4.5000   4.7500  10.5000 Du        
   8308 ****        -4.5000   4.7500  10.7500 Du        
   8309 ****        -4.5000   5.0000   9.7500 Du        
   8310 ****        -4.5000   5.0000  10.0000 Du        
   8311 ****        -4.5000   5.0000  10.2500 Du        
   8312 ****        -4.5000   5.0000  10.5000 Du        
   8313 ****        -4.5000   5.0000  10.7500 Du        
   8314 ****        -4.5000   5.0000  11.0000 Du        
   8315 ****        -4.5000   5.0000  11.2500 Du        
   8316 ****        -4.5000   5.0000  11.5000 Du        
   8317 ****        -4.5000   5.0000  11.7500 Du        
   8318 ****        -4.5000   5.2500  10.0000 Du        
   8319 ****        -4.5000   5.2500  10.2500 Du        
   8320 ****        -4.5000   5.2500  10.5000 Du        
   8321 ****        -4.5000   5.2500  10.7500 Du        
   8322 ****        -4.5000   5.2500  11.0000 Du        
   8323 ****        -4.5000   5.2500  11.2500 Du        
   8324 ****        -4.5000   5.2500  11.5000 Du        
   8325 ****        -4.5000   5.2500  11.7500 Du        
   8326 ****        -4.5000   5.5000  10.2500 Du        
   8327 ****        -4.5000   5.5000  10.5000 Du        
   8328 ****        -4.5000   5.5000  10.7500 Du        
   8329 ****        -4.5000   5.5000  11.0000 Du        
   8330 ****        -4.5000   5.5000  11.2500 Du        
   8331 ****        -4.5000   5.5000  11.5000 Du        
   8332 ****        -4.5000   5.7500  10.2500 Du        
   8333 ****        -4.5000   5.7500  10.5000 Du        
   8334 ****        -4.5000   5.7500  10.7500 Du        
   8335 ****        -4.5000   5.7500  11.0000 Du        
   8336 ****        -4.5000   5.7500  11.2500 Du        
   8337 ****        -4.5000   5.7500  11.5000 Du        
   8338 ****        -4.5000   6.0000  10.2500 Du        
   8339 ****        -4.5000   6.0000  10.5000 Du        
   8340 ****        -4.5000   6.0000  10.7500 Du        
   8341 ****        -4.5000   6.0000  11.0000 Du        
   8342 ****        -4.5000   6.0000  11.2500 Du        
   8343 ****        -4.5000   6.2500  10.5000 Du        
   8344 ****        -4.5000   6.2500  10.7500 Du        
   8345 ****        -4.5000   6.2500  11.0000 Du        
   8346 ****        -4.5000   6.5000  10.5000 Du        
   8347 ****        -4.5000   6.5000  10.7500 Du        
   8348 ****        -4.5000   6.7500  10.5000 Du        
   8349 ****        -4.5000   6.7500  10.7500 Du        
   8350 ****        -4.5000   7.0000  10.5000 Du        
   8351 ****        -4.2500  -3.0000  18.2500 Du        
   8352 ****        -4.2500  -3.0000  18.5000 Du        
   8353 ****        -4.2500  -3.0000  18.7500 Du        
   8354 ****        -4.2500  -2.7500  18.2500 Du        
   8355 ****        -4.2500  -2.7500  18.5000 Du        
   8356 ****        -4.2500  -2.7500  18.7500 Du        
   8357 ****        -4.2500  -2.7500  19.0000 Du        
   8358 ****        -4.2500  -2.5000  18.0000 Du        
   8359 ****        -4.2500  -2.5000  18.2500 Du        
   8360 ****        -4.2500  -2.5000  18.5000 Du        
   8361 ****        -4.2500  -2.5000  18.7500 Du        
   8362 ****        -4.2500  -2.5000  19.0000 Du        
   8363 ****        -4.2500  -2.5000  19.2500 Du        
   8364 ****        -4.2500  -2.2500  18.2500 Du        
   8365 ****        -4.2500  -2.2500  18.7500 Du        
   8366 ****        -4.2500  -2.2500  19.0000 Du        
   8367 ****        -4.2500  -2.2500  19.2500 Du        
   8368 ****        -4.2500   4.7500  10.0000 Du        
   8369 ****        -4.2500   4.7500  10.2500 Du        
   8370 ****        -4.2500   4.7500  10.5000 Du        
   8371 ****        -4.2500   4.7500  10.7500 Du        
   8372 ****        -4.2500   5.0000  10.0000 Du        
   8373 ****        -4.2500   5.0000  10.2500 Du        
   8374 ****        -4.2500   5.0000  10.5000 Du        
   8375 ****        -4.2500   5.0000  10.7500 Du        
   8376 ****        -4.2500   5.0000  11.0000 Du        
   8377 ****        -4.2500   5.0000  11.2500 Du        
   8378 ****        -4.2500   5.0000  11.5000 Du        
   8379 ****        -4.2500   5.0000  11.7500 Du        
   8380 ****        -4.2500   5.2500  10.0000 Du        
   8381 ****        -4.2500   5.2500  10.2500 Du        
   8382 ****        -4.2500   5.2500  10.5000 Du        
   8383 ****        -4.2500   5.2500  10.7500 Du        
   8384 ****        -4.2500   5.2500  11.0000 Du        
   8385 ****        -4.2500   5.2500  11.2500 Du        
   8386 ****        -4.2500   5.2500  11.5000 Du        
   8387 ****        -4.2500   5.2500  11.7500 Du        
   8388 ****        -4.2500   5.5000  10.2500 Du        
   8389 ****        -4.2500   5.5000  10.5000 Du        
   8390 ****        -4.2500   5.5000  10.7500 Du        
   8391 ****        -4.2500   5.5000  11.0000 Du        
   8392 ****        -4.2500   5.5000  11.2500 Du        
   8393 ****        -4.2500   5.5000  11.5000 Du        
   8394 ****        -4.2500   5.7500  10.2500 Du        
   8395 ****        -4.2500   5.7500  10.5000 Du        
   8396 ****        -4.2500   5.7500  10.7500 Du        
   8397 ****        -4.2500   5.7500  11.0000 Du        
   8398 ****        -4.2500   5.7500  11.2500 Du        
   8399 ****        -4.2500   6.0000  10.2500 Du        
   8400 ****        -4.2500   6.0000  10.5000 Du        
   8401 ****        -4.2500   6.0000  10.7500 Du        
   8402 ****        -4.2500   6.0000  11.0000 Du        
   8403 ****        -4.2500   6.0000  11.2500 Du        
   8404 ****        -4.2500   6.2500  10.5000 Du        
   8405 ****        -4.2500   6.2500  10.7500 Du        
   8406 ****        -4.2500   6.2500  11.0000 Du        
   8407 ****        -4.2500   6.5000  10.5000 Du        
   8408 ****        -4.2500   6.5000  10.7500 Du        
   8409 ****        -4.0000  -3.2500  18.5000 Du        
   8410 ****        -4.0000  -3.2500  18.7500 Du        
   8411 ****        -4.0000  -3.0000  18.2500 Du        
   8412 ****        -4.0000  -3.0000  18.5000 Du        
   8413 ****        -4.0000  -3.0000  18.7500 Du        
   8414 ****        -4.0000  -3.0000  19.0000 Du        
   8415 ****        -4.0000  -3.0000  19.2500 Du        
   8416 ****        -4.0000  -2.7500  18.0000 Du        
   8417 ****        -4.0000  -2.7500  18.2500 Du        
   8418 ****        -4.0000  -2.7500  18.5000 Du        
   8419 ****        -4.0000  -2.7500  18.7500 Du        
   8420 ****        -4.0000  -2.7500  19.0000 Du        
   8421 ****        -4.0000  -2.7500  19.2500 Du        
   8422 ****        -4.0000  -2.5000  18.0000 Du        
   8423 ****        -4.0000  -2.5000  18.2500 Du        
   8424 ****        -4.0000  -2.5000  18.5000 Du        
   8425 ****        -4.0000  -2.5000  18.7500 Du        
   8426 ****        -4.0000  -2.5000  19.0000 Du        
   8427 ****        -4.0000  -2.5000  19.2500 Du        
   8428 ****        -4.0000  -2.2500  19.0000 Du        
   8429 ****        -4.0000  -2.2500  19.2500 Du        
   8430 ****        -4.0000   4.7500  10.2500 Du        
   8431 ****        -4.0000   4.7500  10.5000 Du        
   8432 ****        -4.0000   4.7500  10.7500 Du        
   8433 ****        -4.0000   5.0000  10.2500 Du        
   8434 ****        -4.0000   5.0000  10.5000 Du        
   8435 ****        -4.0000   5.0000  10.7500 Du        
   8436 ****        -4.0000   5.0000  11.0000 Du        
   8437 ****        -4.0000   5.0000  11.2500 Du        
   8438 ****        -4.0000   5.0000  11.5000 Du        
   8439 ****        -4.0000   5.0000  11.7500 Du        
   8440 ****        -4.0000   5.2500  10.2500 Du        
   8441 ****        -4.0000   5.2500  10.5000 Du        
   8442 ****        -4.0000   5.2500  10.7500 Du        
   8443 ****        -4.0000   5.2500  11.0000 Du        
   8444 ****        -4.0000   5.2500  11.2500 Du        
   8445 ****        -4.0000   5.2500  11.5000 Du        
   8446 ****        -4.0000   5.2500  11.7500 Du        
   8447 ****        -4.0000   5.5000  10.5000 Du        
   8448 ****        -4.0000   5.5000  10.7500 Du        
   8449 ****        -4.0000   5.5000  11.0000 Du        
   8450 ****        -4.0000   5.5000  11.2500 Du        
   8451 ****        -4.0000   5.5000  11.5000 Du        
   8452 ****        -4.0000   5.7500  10.5000 Du        
   8453 ****        -4.0000   5.7500  10.7500 Du        
   8454 ****        -4.0000   5.7500  11.0000 Du        
   8455 ****        -4.0000   5.7500  11.2500 Du        
   8456 ****        -4.0000   6.0000  10.5000 Du        
   8457 ****        -4.0000   6.0000  10.7500 Du        
   8458 ****        -4.0000   6.0000  11.0000 Du        
   8459 ****        -4.0000   6.2500  10.5000 Du        
   8460 ****        -4.0000   6.2500  10.7500 Du        
   8461 ****        -3.7500  -3.7500  -0.5000 Du        
   8462 ****        -3.7500  -3.5000  18.7500 Du        
   8463 ****        -3.7500  -3.5000  19.0000 Du        
   8464 ****        -3.7500  -3.2500  18.2500 Du        
   8465 ****        -3.7500  -3.2500  18.5000 Du        
   8466 ****        -3.7500  -3.2500  18.7500 Du        
   8467 ****        -3.7500  -3.2500  19.0000 Du        
   8468 ****        -3.7500  -3.2500  19.2500 Du        
   8469 ****        -3.7500  -3.0000  18.2500 Du        
   8470 ****        -3.7500  -3.0000  18.5000 Du        
   8471 ****        -3.7500  -3.0000  18.7500 Du        
   8472 ****        -3.7500  -3.0000  19.0000 Du        
   8473 ****        -3.7500  -3.0000  19.2500 Du        
   8474 ****        -3.7500  -3.0000  19.5000 Du        
   8475 ****        -3.7500  -2.7500  18.0000 Du        
   8476 ****        -3.7500  -2.7500  18.2500 Du        
   8477 ****        -3.7500  -2.7500  18.5000 Du        
   8478 ****        -3.7500  -2.7500  18.7500 Du        
   8479 ****        -3.7500  -2.7500  19.0000 Du        
   8480 ****        -3.7500  -2.7500  19.2500 Du        
   8481 ****        -3.7500  -2.7500  19.5000 Du        
   8482 ****        -3.7500  -2.5000  18.0000 Du        
   8483 ****        -3.7500  -2.5000  18.2500 Du        
   8484 ****        -3.7500  -2.5000  18.5000 Du        
   8485 ****        -3.7500  -2.5000  18.7500 Du        
   8486 ****        -3.7500  -2.5000  19.0000 Du        
   8487 ****        -3.7500  -2.5000  19.2500 Du        
   8488 ****        -3.7500   5.0000  10.5000 Du        
   8489 ****        -3.7500   5.0000  10.7500 Du        
   8490 ****        -3.7500   5.0000  11.0000 Du        
   8491 ****        -3.7500   5.0000  11.2500 Du        
   8492 ****        -3.7500   5.0000  11.5000 Du        
   8493 ****        -3.7500   5.0000  11.7500 Du        
   8494 ****        -3.7500   5.2500  10.5000 Du        
   8495 ****        -3.7500   5.2500  10.7500 Du        
   8496 ****        -3.7500   5.2500  11.0000 Du        
   8497 ****        -3.7500   5.2500  11.2500 Du        
   8498 ****        -3.7500   5.2500  11.5000 Du        
   8499 ****        -3.7500   5.5000  10.5000 Du        
   8500 ****        -3.7500   5.5000  10.7500 Du        
   8501 ****        -3.7500   5.5000  11.0000 Du        
   8502 ****        -3.7500   5.5000  11.2500 Du        
   8503 ****        -3.7500   5.5000  11.5000 Du        
   8504 ****        -3.7500   5.7500  10.5000 Du        
   8505 ****        -3.7500   5.7500  10.7500 Du        
   8506 ****        -3.7500   5.7500  11.0000 Du        
   8507 ****        -3.7500   5.7500  11.2500 Du        
   8508 ****        -3.7500   6.0000  10.5000 Du        
   8509 ****        -3.7500   6.0000  10.7500 Du        
   8510 ****        -3.7500   6.0000  11.0000 Du        
   8511 ****        -3.7500   6.2500  10.7500 Du        
   8512 ****        -3.7500  18.5000  -1.0000 Du        
   8513 ****        -3.7500  18.5000  -0.7500 Du        
   8514 ****        -3.7500  18.7500  -1.0000 Du        
   8515 ****        -3.5000  -3.5000  18.7500 Du        
   8516 ****        -3.5000  -3.5000  19.0000 Du        
   8517 ****        -3.5000  -3.2500  18.2500 Du        
   8518 ****        -3.5000  -3.2500  18.5000 Du        
   8519 ****        -3.5000  -3.2500  18.7500 Du        
   8520 ****        -3.5000  -3.2500  19.0000 Du        
   8521 ****        -3.5000  -3.2500  19.2500 Du        
   8522 ****        -3.5000  -3.0000  18.2500 Du        
   8523 ****        -3.5000  -3.0000  18.5000 Du        
   8524 ****        -3.5000  -3.0000  18.7500 Du        
   8525 ****        -3.5000  -3.0000  19.0000 Du        
   8526 ****        -3.5000  -3.0000  19.2500 Du        
   8527 ****        -3.5000  -2.7500  18.2500 Du        
   8528 ****        -3.5000  -2.7500  18.5000 Du        
   8529 ****        -3.5000  -2.7500  18.7500 Du        
   8530 ****        -3.5000  -2.7500  19.0000 Du        
   8531 ****        -3.5000  -2.7500  19.2500 Du        
   8532 ****        -3.5000   5.0000  10.7500 Du        
   8533 ****        -3.5000   5.0000  11.0000 Du        
   8534 ****        -3.5000   5.0000  11.5000 Du        
   8535 ****        -3.5000   5.2500  10.7500 Du        
   8536 ****        -3.5000   5.2500  11.0000 Du        
   8537 ****        -3.5000   5.2500  11.2500 Du        
   8538 ****        -3.5000   5.2500  11.5000 Du        
   8539 ****        -3.5000   5.5000  10.7500 Du        
   8540 ****        -3.5000   5.5000  11.0000 Du        
   8541 ****        -3.5000  18.5000  -1.0000 Du        
   8542 ****        -3.5000  18.5000  -0.7500 Du        
   8543 ****        -3.5000  18.7500  -1.2500 Du        
   8544 ****        -3.5000  18.7500  -1.0000 Du        
   8545 ****        -3.5000  18.7500  -0.7500 Du        
   8546 ****        -3.5000  19.0000  -1.0000 Du        
   8547 ****        -3.2500  -3.5000  18.7500 Du        
   8548 ****        -3.2500  -3.5000  19.0000 Du        
   8549 ****        -3.2500  -3.2500  18.2500 Du        
   8550 ****        -3.2500  -3.2500  18.5000 Du        
   8551 ****        -3.2500  -3.2500  18.7500 Du        
   8552 ****        -3.2500  -3.2500  19.0000 Du        
   8553 ****        -3.2500  -3.2500  19.2500 Du        
   8554 ****        -3.2500  -3.0000  18.2500 Du        
   8555 ****        -3.2500  -3.0000  18.5000 Du        
   8556 ****        -3.2500  -3.0000  18.7500 Du        
   8557 ****        -3.2500  -3.0000  19.0000 Du        
   8558 ****        -3.2500  -3.0000  19.2500 Du        
   8559 ****        -3.2500  -2.7500  18.2500 Du        
   8560 ****        -3.2500  -2.7500  18.5000 Du        
   8561 ****        -3.2500  -2.7500  18.7500 Du        
   8562 ****        -3.2500  -2.7500  19.0000 Du        
   8563 ****        -3.2500   5.0000  10.7500 Du        
   8564 ****        -3.2500   5.0000  11.0000 Du        
   8565 ****        -3.2500   5.2500  10.7500 Du        
   8566 ****        -3.2500   5.2500  11.0000 Du        
   8567 ****        -3.2500  18.2500  -1.0000 Du        
   8568 ****        -3.2500  18.5000  -1.2500 Du        
   8569 ****        -3.2500  18.5000  -1.0000 Du        
   8570 ****        -3.2500  18.5000  -0.7500 Du        
   8571 ****        -3.2500  18.7500  -1.2500 Du        
   8572 ****        -3.2500  18.7500  -1.0000 Du        
   8573 ****        -3.2500  18.7500  -0.7500 Du        
   8574 ****        -3.2500  19.0000  -1.2500 Du        
   8575 ****        -3.2500  19.0000  -1.0000 Du        
   8576 ****        -3.2500  19.0000  -0.7500 Du        
   8577 ****        -3.2500  19.2500  -1.5000 Du        
   8578 ****        -3.2500  19.2500  -1.2500 Du        
   8579 ****        -3.2500  19.2500  -1.0000 Du        
   8580 ****        -3.2500  19.5000  -1.5000 Du        
   8581 ****        -3.2500  19.5000  -1.2500 Du        
   8582 ****        -3.2500  19.5000  -1.0000 Du        
   8583 ****        -3.2500  19.7500  -1.5000 Du        
   8584 ****        -3.2500  19.7500  -1.2500 Du        
   8585 ****        -3.2500  20.0000  -1.5000 Du        
   8586 ****        -3.0000  -3.2500  18.2500 Du        
   8587 ****        -3.0000  -3.2500  18.5000 Du        
   8588 ****        -3.0000  -3.0000  18.2500 Du        
   8589 ****        -3.0000  -3.0000  18.5000 Du        
   8590 ****        -3.0000  -3.0000  18.7500 Du        
   8591 ****        -3.0000  18.2500  -1.2500 Du        
   8592 ****        -3.0000  18.2500  -1.0000 Du        
   8593 ****        -3.0000  18.5000  -1.2500 Du        
   8594 ****        -3.0000  18.5000  -1.0000 Du        
   8595 ****        -3.0000  18.5000  -0.7500 Du        
   8596 ****        -3.0000  18.7500  -1.2500 Du        
   8597 ****        -3.0000  18.7500  -1.0000 Du        
   8598 ****        -3.0000  18.7500  -0.7500 Du        
   8599 ****        -3.0000  19.0000  -1.5000 Du        
   8600 ****        -3.0000  19.0000  -1.2500 Du        
   8601 ****        -3.0000  19.0000  -1.0000 Du        
   8602 ****        -3.0000  19.0000  -0.7500 Du        
   8603 ****        -3.0000  19.2500  -1.5000 Du        
   8604 ****        -3.0000  19.2500  -1.2500 Du        
   8605 ****        -3.0000  19.2500  -1.0000 Du        
   8606 ****        -3.0000  19.5000  -1.5000 Du        
   8607 ****        -3.0000  19.5000  -1.2500 Du        
   8608 ****        -3.0000  19.5000  -1.0000 Du        
   8609 ****        -3.0000  19.7500  -1.5000 Du        
   8610 ****        -3.0000  19.7500  -1.2500 Du        
   8611 ****        -3.0000  20.0000  -1.5000 Du        
   8612 ****        -2.7500  18.2500  -1.0000 Du        
   8613 ****        -2.7500  18.5000  -1.2500 Du        
   8614 ****        -2.7500  18.5000  -1.0000 Du        
   8615 ****        -2.7500  18.7500  -1.2500 Du        
   8616 ****        -2.7500  18.7500  -1.0000 Du        
   8617 ****        -2.7500  19.0000  -1.5000 Du        
   8618 ****        -2.7500  19.0000  -1.2500 Du        
   8619 ****        -2.7500  19.0000  -1.0000 Du        
   8620 ****        -2.7500  19.2500  -1.5000 Du        
   8621 ****        -2.7500  19.2500  -1.2500 Du        
   8622 ****        -2.7500  19.2500  -1.0000 Du        
   8623 ****        -2.7500  19.5000  -1.5000 Du        
   8624 ****        -2.7500  19.5000  -1.2500 Du        
   8625 ****        -2.5000  18.5000  -1.2500 Du        
   8626 ****        -2.5000  18.7500  -1.2500 Du        
   8627 ****        -2.5000  19.0000  -1.2500 Du        
   8628 ****        -2.5000  19.2500  -1.5000 Du        
   8629 ****        -2.5000  19.2500  -1.2500 Du        
   8630 ****        -2.2500  11.5000   9.5000 Du        
   8631 ****        -2.2500  11.7500   9.5000 Du        
   8632 ****        -2.2500  12.0000   9.5000 Du        
   8633 ****        -2.2500  19.0000  -1.5000 Du        
   8634 ****        -2.0000  -2.7500   3.7500 Du        
   8635 ****        -2.0000  11.2500   9.2500 Du        
   8636 ****        -2.0000  11.2500   9.5000 Du        
   8637 ****        -2.0000  11.5000   9.0000 Du        
   8638 ****        -2.0000  11.5000   9.2500 Du        
   8639 ****        -2.0000  11.5000   9.5000 Du        
   8640 ****        -2.0000  11.5000   9.7500 Du        
   8641 ****        -2.0000  11.7500   9.0000 Du        
   8642 ****        -2.0000  11.7500   9.2500 Du        
   8643 ****        -2.0000  11.7500   9.5000 Du        
   8644 ****        -2.0000  11.7500   9.7500 Du        
   8645 ****        -2.0000  12.0000   9.2500 Du        
   8646 ****        -2.0000  12.0000   9.5000 Du        
   8647 ****        -2.0000  12.0000   9.7500 Du        
   8648 ****        -2.0000  12.0000  10.0000 Du        
   8649 ****        -2.0000  12.2500   9.2500 Du        
   8650 ****        -2.0000  12.2500   9.5000 Du        
   8651 ****        -2.0000  12.2500   9.7500 Du        
   8652 ****        -2.0000  12.2500  10.0000 Du        
   8653 ****        -2.0000  12.5000   9.5000 Du        
   8654 ****        -2.0000  12.5000   9.7500 Du        
   8655 ****        -2.0000  12.5000  10.0000 Du        
   8656 ****        -2.0000  12.7500   9.5000 Du        
   8657 ****        -2.0000  12.7500   9.7500 Du        
   8658 ****        -2.0000  12.7500  10.0000 Du        
   8659 ****        -2.0000  15.5000  39.0000 Du        
   8660 ****        -1.7500  -3.2500   6.2500 Du        
   8661 ****        -1.7500  -3.2500   6.5000 Du        
   8662 ****        -1.7500  -3.2500   6.7500 Du        
   8663 ****        -1.7500  -3.2500   7.0000 Du        
   8664 ****        -1.7500  -3.0000   5.7500 Du        
   8665 ****        -1.7500  -3.0000   6.0000 Du        
   8666 ****        -1.7500  -3.0000   6.2500 Du        
   8667 ****        -1.7500  -3.0000   6.5000 Du        
   8668 ****        -1.7500  -3.0000   6.7500 Du        
   8669 ****        -1.7500  -3.0000   7.0000 Du        
   8670 ****        -1.7500  -2.7500   3.7500 Du        
   8671 ****        -1.7500  -2.7500   4.0000 Du        
   8672 ****        -1.7500  -2.7500   4.2500 Du        
   8673 ****        -1.7500  -2.7500   4.7500 Du        
   8674 ****        -1.7500  -2.7500   5.2500 Du        
   8675 ****        -1.7500  -2.7500   5.5000 Du        
   8676 ****        -1.7500  -2.7500   5.7500 Du        
   8677 ****        -1.7500  -2.7500   6.0000 Du        
   8678 ****        -1.7500  -2.7500   6.2500 Du        
   8679 ****        -1.7500  -2.7500   6.5000 Du        
   8680 ****        -1.7500  -2.7500   6.7500 Du        
   8681 ****        -1.7500  -2.7500   7.0000 Du        
   8682 ****        -1.7500  -2.5000   6.0000 Du        
   8683 ****        -1.7500  -2.5000   6.2500 Du        
   8684 ****        -1.7500  -2.5000   6.5000 Du        
   8685 ****        -1.7500  -2.5000   6.7500 Du        
   8686 ****        -1.7500  -2.2500   6.0000 Du        
   8687 ****        -1.7500  -2.2500   6.2500 Du        
   8688 ****        -1.7500  -2.2500   6.5000 Du        
   8689 ****        -1.7500  -2.2500   6.7500 Du        
   8690 ****        -1.7500  11.0000   9.5000 Du        
   8691 ****        -1.7500  11.2500   9.0000 Du        
   8692 ****        -1.7500  11.2500   9.2500 Du        
   8693 ****        -1.7500  11.2500   9.5000 Du        
   8694 ****        -1.7500  11.2500   9.7500 Du        
   8695 ****        -1.7500  11.5000   9.0000 Du        
   8696 ****        -1.7500  11.5000   9.2500 Du        
   8697 ****        -1.7500  11.5000   9.5000 Du        
   8698 ****        -1.7500  11.5000   9.7500 Du        
   8699 ****        -1.7500  11.5000  10.0000 Du        
   8700 ****        -1.7500  11.7500   8.7500 Du        
   8701 ****        -1.7500  11.7500   9.0000 Du        
   8702 ****        -1.7500  11.7500   9.2500 Du        
   8703 ****        -1.7500  11.7500   9.5000 Du        
   8704 ****        -1.7500  11.7500   9.7500 Du        
   8705 ****        -1.7500  11.7500  10.0000 Du        
   8706 ****        -1.7500  12.0000   8.7500 Du        
   8707 ****        -1.7500  12.0000   9.0000 Du        
   8708 ****        -1.7500  12.0000   9.2500 Du        
   8709 ****        -1.7500  12.0000   9.5000 Du        
   8710 ****        -1.7500  12.0000   9.7500 Du        
   8711 ****        -1.7500  12.0000  10.0000 Du        
   8712 ****        -1.7500  12.0000  10.2500 Du        
   8713 ****        -1.7500  12.2500   9.0000 Du        
   8714 ****        -1.7500  12.2500   9.2500 Du        
   8715 ****        -1.7500  12.2500   9.5000 Du        
   8716 ****        -1.7500  12.2500   9.7500 Du        
   8717 ****        -1.7500  12.2500  10.0000 Du        
   8718 ****        -1.7500  12.2500  10.2500 Du        
   8719 ****        -1.7500  12.5000   9.0000 Du        
   8720 ****        -1.7500  12.5000   9.2500 Du        
   8721 ****        -1.7500  12.5000   9.5000 Du        
   8722 ****        -1.7500  12.5000   9.7500 Du        
   8723 ****        -1.7500  12.5000  10.0000 Du        
   8724 ****        -1.7500  12.5000  10.2500 Du        
   8725 ****        -1.7500  12.7500   9.2500 Du        
   8726 ****        -1.7500  12.7500   9.5000 Du        
   8727 ****        -1.7500  12.7500   9.7500 Du        
   8728 ****        -1.7500  12.7500  10.0000 Du        
   8729 ****        -1.7500  12.7500  10.2500 Du        
   8730 ****        -1.7500  13.0000   9.2500 Du        
   8731 ****        -1.7500  13.0000   9.5000 Du        
   8732 ****        -1.7500  13.0000   9.7500 Du        
   8733 ****        -1.7500  13.0000  10.0000 Du        
   8734 ****        -1.7500  13.2500   9.5000 Du        
   8735 ****        -1.7500  13.2500   9.7500 Du        
   8736 ****        -1.7500  15.2500  39.0000 Du        
   8737 ****        -1.7500  15.5000  39.0000 Du        
   8738 ****        -1.7500  15.5000  39.2500 Du        
   8739 ****        -1.7500  15.7500  39.0000 Du        
   8740 ****        -1.7500  15.7500  39.2500 Du        
   8741 ****        -1.5000  -3.7500   7.0000 Du        
   8742 ****        -1.5000  -3.7500   7.2500 Du        
   8743 ****        -1.5000  -3.5000   6.7500 Du        
   8744 ****        -1.5000  -3.5000   7.0000 Du        
   8745 ****        -1.5000  -3.5000   7.2500 Du        
   8746 ****        -1.5000  -3.2500   6.2500 Du        
   8747 ****        -1.5000  -3.2500   6.5000 Du        
   8748 ****        -1.5000  -3.2500   6.7500 Du        
   8749 ****        -1.5000  -3.2500   7.0000 Du        
   8750 ****        -1.5000  -3.2500   7.2500 Du        
   8751 ****        -1.5000  -3.2500   7.5000 Du        
   8752 ****        -1.5000  -3.0000   6.0000 Du        
   8753 ****        -1.5000  -3.0000   6.2500 Du        
   8754 ****        -1.5000  -3.0000   6.5000 Du        
   8755 ****        -1.5000  -3.0000   6.7500 Du        
   8756 ****        -1.5000  -3.0000   7.0000 Du        
   8757 ****        -1.5000  -3.0000   7.2500 Du        
   8758 ****        -1.5000  -3.0000   7.5000 Du        
   8759 ****        -1.5000  -2.7500   3.2500 Du        
   8760 ****        -1.5000  -2.7500   3.5000 Du        
   8761 ****        -1.5000  -2.7500   3.7500 Du        
   8762 ****        -1.5000  -2.7500   4.0000 Du        
   8763 ****        -1.5000  -2.7500   4.2500 Du        
   8764 ****        -1.5000  -2.7500   5.5000 Du        
   8765 ****        -1.5000  -2.7500   5.7500 Du        
   8766 ****        -1.5000  -2.7500   6.0000 Du        
   8767 ****        -1.5000  -2.7500   6.2500 Du        
   8768 ****        -1.5000  -2.7500   6.5000 Du        
   8769 ****        -1.5000  -2.7500   6.7500 Du        
   8770 ****        -1.5000  -2.7500   7.0000 Du        
   8771 ****        -1.5000  -2.7500   7.2500 Du        
   8772 ****        -1.5000  -2.5000   5.7500 Du        
   8773 ****        -1.5000  -2.5000   6.0000 Du        
   8774 ****        -1.5000  -2.5000   6.2500 Du        
   8775 ****        -1.5000  -2.5000   6.7500 Du        
   8776 ****        -1.5000  -2.2500   5.7500 Du        
   8777 ****        -1.5000  -2.2500   6.0000 Du        
   8778 ****        -1.5000  -2.2500   6.2500 Du        
   8779 ****        -1.5000  11.0000   9.5000 Du        
   8780 ****        -1.5000  11.0000   9.7500 Du        
   8781 ****        -1.5000  11.2500   9.2500 Du        
   8782 ****        -1.5000  11.2500   9.5000 Du        
   8783 ****        -1.5000  11.2500   9.7500 Du        
   8784 ****        -1.5000  11.2500  10.0000 Du        
   8785 ****        -1.5000  11.5000   8.7500 Du        
   8786 ****        -1.5000  11.5000   9.0000 Du        
   8787 ****        -1.5000  11.5000   9.2500 Du        
   8788 ****        -1.5000  11.5000   9.5000 Du        
   8789 ****        -1.5000  11.5000   9.7500 Du        
   8790 ****        -1.5000  11.5000  10.0000 Du        
   8791 ****        -1.5000  11.7500   8.7500 Du        
   8792 ****        -1.5000  11.7500   9.0000 Du        
   8793 ****        -1.5000  11.7500   9.2500 Du        
   8794 ****        -1.5000  11.7500   9.5000 Du        
   8795 ****        -1.5000  11.7500   9.7500 Du        
   8796 ****        -1.5000  11.7500  10.0000 Du        
   8797 ****        -1.5000  11.7500  10.2500 Du        
   8798 ****        -1.5000  12.0000   8.7500 Du        
   8799 ****        -1.5000  12.0000   9.0000 Du        
   8800 ****        -1.5000  12.0000   9.2500 Du        
   8801 ****        -1.5000  12.0000   9.5000 Du        
   8802 ****        -1.5000  12.0000   9.7500 Du        
   8803 ****        -1.5000  12.0000  10.0000 Du        
   8804 ****        -1.5000  12.0000  10.2500 Du        
   8805 ****        -1.5000  12.0000  10.5000 Du        
   8806 ****        -1.5000  12.2500   8.7500 Du        
   8807 ****        -1.5000  12.2500   9.0000 Du        
   8808 ****        -1.5000  12.2500   9.2500 Du        
   8809 ****        -1.5000  12.2500   9.5000 Du        
   8810 ****        -1.5000  12.2500   9.7500 Du        
   8811 ****        -1.5000  12.2500  10.0000 Du        
   8812 ****        -1.5000  12.2500  10.2500 Du        
   8813 ****        -1.5000  12.2500  10.5000 Du        
   8814 ****        -1.5000  12.5000   8.7500 Du        
   8815 ****        -1.5000  12.5000   9.0000 Du        
   8816 ****        -1.5000  12.5000   9.2500 Du        
   8817 ****        -1.5000  12.5000   9.5000 Du        
   8818 ****        -1.5000  12.5000   9.7500 Du        
   8819 ****        -1.5000  12.5000  10.0000 Du        
   8820 ****        -1.5000  12.5000  10.2500 Du        
   8821 ****        -1.5000  12.5000  10.5000 Du        
   8822 ****        -1.5000  12.7500   9.0000 Du        
   8823 ****        -1.5000  12.7500   9.2500 Du        
   8824 ****        -1.5000  12.7500   9.5000 Du        
   8825 ****        -1.5000  12.7500   9.7500 Du        
   8826 ****        -1.5000  12.7500  10.0000 Du        
   8827 ****        -1.5000  12.7500  10.2500 Du        
   8828 ****        -1.5000  13.0000   9.0000 Du        
   8829 ****        -1.5000  13.0000   9.2500 Du        
   8830 ****        -1.5000  13.0000   9.5000 Du        
   8831 ****        -1.5000  13.0000   9.7500 Du        
   8832 ****        -1.5000  13.0000  10.0000 Du        
   8833 ****        -1.5000  13.0000  10.2500 Du        
   8834 ****        -1.5000  13.2500   9.2500 Du        
   8835 ****        -1.5000  13.2500   9.5000 Du        
   8836 ****        -1.5000  13.2500   9.7500 Du        
   8837 ****        -1.5000  13.2500  10.0000 Du        
   8838 ****        -1.5000  13.5000   9.2500 Du        
   8839 ****        -1.5000  13.5000   9.5000 Du        
   8840 ****        -1.5000  13.5000   9.7500 Du        
   8841 ****        -1.5000  13.7500   9.5000 Du        
   8842 ****        -1.5000  13.7500   9.7500 Du        
   8843 ****        -1.5000  15.5000  38.7500 Du        
   8844 ****        -1.5000  15.5000  39.0000 Du        
   8845 ****        -1.5000  15.5000  39.2500 Du        
   8846 ****        -1.5000  15.7500  39.0000 Du        
   8847 ****        -1.5000  15.7500  39.2500 Du        
   8848 ****        -1.5000  16.0000  39.0000 Du        
   8849 ****        -1.5000  16.0000  39.2500 Du        
   8850 ****        -1.2500  -3.7500   6.7500 Du        
   8851 ****        -1.2500  -3.7500   7.0000 Du        
   8852 ****        -1.2500  -3.7500   7.2500 Du        
   8853 ****        -1.2500  -3.7500   7.5000 Du        
   8854 ****        -1.2500  -3.5000   6.5000 Du        
   8855 ****        -1.2500  -3.5000   6.7500 Du        
   8856 ****        -1.2500  -3.5000   7.0000 Du        
   8857 ****        -1.2500  -3.5000   7.2500 Du        
   8858 ****        -1.2500  -3.5000   7.5000 Du        
   8859 ****        -1.2500  -3.5000   7.7500 Du        
   8860 ****        -1.2500  -3.2500   6.2500 Du        
   8861 ****        -1.2500  -3.2500   6.5000 Du        
   8862 ****        -1.2500  -3.2500   6.7500 Du        
   8863 ****        -1.2500  -3.2500   7.0000 Du        
   8864 ****        -1.2500  -3.2500   7.2500 Du        
   8865 ****        -1.2500  -3.2500   7.5000 Du        
   8866 ****        -1.2500  -3.2500   7.7500 Du        
   8867 ****        -1.2500  -3.0000   3.7500 Du        
   8868 ****        -1.2500  -3.0000   4.0000 Du        
   8869 ****        -1.2500  -3.0000   5.7500 Du        
   8870 ****        -1.2500  -3.0000   6.0000 Du        
   8871 ****        -1.2500  -3.0000   6.2500 Du        
   8872 ****        -1.2500  -3.0000   6.5000 Du        
   8873 ****        -1.2500  -3.0000   6.7500 Du        
   8874 ****        -1.2500  -3.0000   7.0000 Du        
   8875 ****        -1.2500  -3.0000   7.2500 Du        
   8876 ****        -1.2500  -3.0000   7.5000 Du        
   8877 ****        -1.2500  -3.0000   7.7500 Du        
   8878 ****        -1.2500  -2.7500   2.7500 Du        
   8879 ****        -1.2500  -2.7500   3.0000 Du        
   8880 ****        -1.2500  -2.7500   3.2500 Du        
   8881 ****        -1.2500  -2.7500   3.5000 Du        
   8882 ****        -1.2500  -2.7500   3.7500 Du        
   8883 ****        -1.2500  -2.7500   4.0000 Du        
   8884 ****        -1.2500  -2.7500   4.2500 Du        
   8885 ****        -1.2500  -2.7500   4.5000 Du        
   8886 ****        -1.2500  -2.7500   4.7500 Du        
   8887 ****        -1.2500  -2.7500   5.0000 Du        
   8888 ****        -1.2500  -2.7500   5.2500 Du        
   8889 ****        -1.2500  -2.7500   5.5000 Du        
   8890 ****        -1.2500  -2.7500   5.7500 Du        
   8891 ****        -1.2500  -2.7500   6.0000 Du        
   8892 ****        -1.2500  -2.7500   6.2500 Du        
   8893 ****        -1.2500  -2.7500   6.5000 Du        
   8894 ****        -1.2500  -2.7500   6.7500 Du        
   8895 ****        -1.2500  -2.7500   7.0000 Du        
   8896 ****        -1.2500  -2.7500   7.2500 Du        
   8897 ****        -1.2500  -2.7500   7.5000 Du        
   8898 ****        -1.2500  -2.7500   7.7500 Du        
   8899 ****        -1.2500  -2.5000   5.7500 Du        
   8900 ****        -1.2500  -2.5000   6.0000 Du        
   8901 ****        -1.2500  -2.5000   6.2500 Du        
   8902 ****        -1.2500  -2.5000   6.7500 Du        
   8903 ****        -1.2500  -2.5000   7.0000 Du        
   8904 ****        -1.2500  -2.5000   7.2500 Du        
   8905 ****        -1.2500  -2.2500   5.7500 Du        
   8906 ****        -1.2500  -2.2500   6.0000 Du        
   8907 ****        -1.2500  -2.2500   6.2500 Du        
   8908 ****        -1.2500  -2.2500   7.0000 Du        
   8909 ****        -1.2500   6.2500  19.0000 Du        
   8910 ****        -1.2500   6.2500  19.2500 Du        
   8911 ****        -1.2500  11.0000   9.5000 Du        
   8912 ****        -1.2500  11.0000   9.7500 Du        
   8913 ****        -1.2500  11.0000  10.0000 Du        
   8914 ****        -1.2500  11.2500   9.0000 Du        
   8915 ****        -1.2500  11.2500   9.2500 Du        
   8916 ****        -1.2500  11.2500   9.5000 Du        
   8917 ****        -1.2500  11.2500   9.7500 Du        
   8918 ****        -1.2500  11.2500  10.0000 Du        
   8919 ****        -1.2500  11.2500  10.2500 Du        
   8920 ****        -1.2500  11.5000   8.5000 Du        
   8921 ****        -1.2500  11.5000   8.7500 Du        
   8922 ****        -1.2500  11.5000   9.0000 Du        
   8923 ****        -1.2500  11.5000   9.2500 Du        
   8924 ****        -1.2500  11.5000   9.5000 Du        
   8925 ****        -1.2500  11.5000   9.7500 Du        
   8926 ****        -1.2500  11.5000  10.0000 Du        
   8927 ****        -1.2500  11.5000  10.2500 Du        
   8928 ****        -1.2500  11.7500   8.5000 Du        
   8929 ****        -1.2500  11.7500   8.7500 Du        
   8930 ****        -1.2500  11.7500   9.0000 Du        
   8931 ****        -1.2500  11.7500   9.2500 Du        
   8932 ****        -1.2500  11.7500   9.5000 Du        
   8933 ****        -1.2500  11.7500   9.7500 Du        
   8934 ****        -1.2500  11.7500  10.0000 Du        
   8935 ****        -1.2500  11.7500  10.2500 Du        
   8936 ****        -1.2500  11.7500  10.5000 Du        
   8937 ****        -1.2500  12.0000   8.5000 Du        
   8938 ****        -1.2500  12.0000   8.7500 Du        
   8939 ****        -1.2500  12.0000   9.0000 Du        
   8940 ****        -1.2500  12.0000   9.2500 Du        
   8941 ****        -1.2500  12.0000   9.5000 Du        
   8942 ****        -1.2500  12.0000   9.7500 Du        
   8943 ****        -1.2500  12.0000  10.0000 Du        
   8944 ****        -1.2500  12.0000  10.2500 Du        
   8945 ****        -1.2500  12.0000  10.5000 Du        
   8946 ****        -1.2500  12.0000  10.7500 Du        
   8947 ****        -1.2500  12.2500   8.5000 Du        
   8948 ****        -1.2500  12.2500   8.7500 Du        
   8949 ****        -1.2500  12.2500   9.0000 Du        
   8950 ****        -1.2500  12.2500   9.2500 Du        
   8951 ****        -1.2500  12.2500   9.5000 Du        
   8952 ****        -1.2500  12.2500   9.7500 Du        
   8953 ****        -1.2500  12.2500  10.0000 Du        
   8954 ****        -1.2500  12.2500  10.2500 Du        
   8955 ****        -1.2500  12.2500  10.5000 Du        
   8956 ****        -1.2500  12.2500  10.7500 Du        
   8957 ****        -1.2500  12.5000   8.7500 Du        
   8958 ****        -1.2500  12.5000   9.0000 Du        
   8959 ****        -1.2500  12.5000   9.2500 Du        
   8960 ****        -1.2500  12.5000   9.5000 Du        
   8961 ****        -1.2500  12.5000   9.7500 Du        
   8962 ****        -1.2500  12.5000  10.0000 Du        
   8963 ****        -1.2500  12.5000  10.2500 Du        
   8964 ****        -1.2500  12.5000  10.5000 Du        
   8965 ****        -1.2500  12.5000  10.7500 Du        
   8966 ****        -1.2500  12.7500   8.7500 Du        
   8967 ****        -1.2500  12.7500   9.0000 Du        
   8968 ****        -1.2500  12.7500   9.2500 Du        
   8969 ****        -1.2500  12.7500   9.5000 Du        
   8970 ****        -1.2500  12.7500   9.7500 Du        
   8971 ****        -1.2500  12.7500  10.0000 Du        
   8972 ****        -1.2500  12.7500  10.2500 Du        
   8973 ****        -1.2500  12.7500  10.5000 Du        
   8974 ****        -1.2500  13.0000   9.0000 Du        
   8975 ****        -1.2500  13.0000   9.2500 Du        
   8976 ****        -1.2500  13.0000   9.5000 Du        
   8977 ****        -1.2500  13.0000   9.7500 Du        
   8978 ****        -1.2500  13.0000  10.0000 Du        
   8979 ****        -1.2500  13.0000  10.2500 Du        
   8980 ****        -1.2500  13.0000  10.5000 Du        
   8981 ****        -1.2500  13.2500   9.0000 Du        
   8982 ****        -1.2500  13.2500   9.2500 Du        
   8983 ****        -1.2500  13.2500   9.5000 Du        
   8984 ****        -1.2500  13.2500   9.7500 Du        
   8985 ****        -1.2500  13.2500  10.0000 Du        
   8986 ****        -1.2500  13.2500  10.2500 Du        
   8987 ****        -1.2500  13.5000   9.2500 Du        
   8988 ****        -1.2500  13.5000   9.5000 Du        
   8989 ****        -1.2500  13.5000   9.7500 Du        
   8990 ****        -1.2500  13.5000  10.0000 Du        
   8991 ****        -1.2500  13.7500   9.5000 Du        
   8992 ****        -1.2500  13.7500   9.7500 Du        
   8993 ****        -1.2500  13.7500  10.0000 Du        
   8994 ****        -1.2500  15.0000  38.2500 Du        
   8995 ****        -1.2500  15.2500  38.7500 Du        
   8996 ****        -1.2500  15.2500  39.0000 Du        
   8997 ****        -1.2500  15.2500  39.2500 Du        
   8998 ****        -1.2500  15.5000  38.7500 Du        
   8999 ****        -1.2500  15.5000  39.0000 Du        
   9000 ****        -1.2500  15.5000  39.2500 Du        
   9001 ****        -1.2500  15.5000  39.5000 Du        
   9002 ****        -1.2500  15.7500  39.0000 Du        
   9003 ****        -1.2500  15.7500  39.2500 Du        
   9004 ****        -1.2500  15.7500  39.5000 Du        
   9005 ****        -1.2500  15.7500  39.7500 Du        
   9006 ****        -1.0000  -4.0000   7.0000 Du        
   9007 ****        -1.0000  -4.0000   7.2500 Du        
   9008 ****        -1.0000  -4.0000   7.5000 Du        
   9009 ****        -1.0000  -4.0000  13.0000 Du        
   9010 ****        -1.0000  -4.0000  13.2500 Du        
   9011 ****        -1.0000  -4.0000  13.5000 Du        
   9012 ****        -1.0000  -4.0000  13.7500 Du        
   9013 ****        -1.0000  -4.0000  14.0000 Du        
   9014 ****        -1.0000  -3.7500   6.7500 Du        
   9015 ****        -1.0000  -3.7500   7.0000 Du        
   9016 ****        -1.0000  -3.7500   7.2500 Du        
   9017 ****        -1.0000  -3.7500   7.5000 Du        
   9018 ****        -1.0000  -3.7500   7.7500 Du        
   9019 ****        -1.0000  -3.7500  13.2500 Du        
   9020 ****        -1.0000  -3.7500  13.5000 Du        
   9021 ****        -1.0000  -3.7500  13.7500 Du        
   9022 ****        -1.0000  -3.7500  14.0000 Du        
   9023 ****        -1.0000  -3.5000   6.5000 Du        
   9024 ****        -1.0000  -3.5000   6.7500 Du        
   9025 ****        -1.0000  -3.5000   7.0000 Du        
   9026 ****        -1.0000  -3.5000   7.2500 Du        
   9027 ****        -1.0000  -3.5000   7.5000 Du        
   9028 ****        -1.0000  -3.5000   7.7500 Du        
   9029 ****        -1.0000  -3.5000   8.0000 Du        
   9030 ****        -1.0000  -3.2500   6.2500 Du        
   9031 ****        -1.0000  -3.2500   6.5000 Du        
   9032 ****        -1.0000  -3.2500   6.7500 Du        
   9033 ****        -1.0000  -3.2500   7.0000 Du        
   9034 ****        -1.0000  -3.2500   7.2500 Du        
   9035 ****        -1.0000  -3.2500   7.5000 Du        
   9036 ****        -1.0000  -3.2500   7.7500 Du        
   9037 ****        -1.0000  -3.2500   8.0000 Du        
   9038 ****        -1.0000  -3.2500   8.2500 Du        
   9039 ****        -1.0000  -3.0000   2.5000 Du        
   9040 ****        -1.0000  -3.0000   2.7500 Du        
   9041 ****        -1.0000  -3.0000   3.0000 Du        
   9042 ****        -1.0000  -3.0000   3.2500 Du        
   9043 ****        -1.0000  -3.0000   3.5000 Du        
   9044 ****        -1.0000  -3.0000   3.7500 Du        
   9045 ****        -1.0000  -3.0000   4.0000 Du        
   9046 ****        -1.0000  -3.0000   5.7500 Du        
   9047 ****        -1.0000  -3.0000   6.0000 Du        
   9048 ****        -1.0000  -3.0000   6.2500 Du        
   9049 ****        -1.0000  -3.0000   6.5000 Du        
   9050 ****        -1.0000  -3.0000   6.7500 Du        
   9051 ****        -1.0000  -3.0000   7.0000 Du        
   9052 ****        -1.0000  -3.0000   7.2500 Du        
   9053 ****        -1.0000  -3.0000   7.5000 Du        
   9054 ****        -1.0000  -3.0000   7.7500 Du        
   9055 ****        -1.0000  -3.0000   8.0000 Du        
   9056 ****        -1.0000  -3.0000   8.2500 Du        
   9057 ****        -1.0000  -2.7500   2.2500 Du        
   9058 ****        -1.0000  -2.7500   2.5000 Du        
   9059 ****        -1.0000  -2.7500   2.7500 Du        
   9060 ****        -1.0000  -2.7500   3.0000 Du        
   9061 ****        -1.0000  -2.7500   3.2500 Du        
   9062 ****        -1.0000  -2.7500   3.5000 Du        
   9063 ****        -1.0000  -2.7500   3.7500 Du        
   9064 ****        -1.0000  -2.7500   4.0000 Du        
   9065 ****        -1.0000  -2.7500   4.2500 Du        
   9066 ****        -1.0000  -2.7500   4.7500 Du        
   9067 ****        -1.0000  -2.7500   5.0000 Du        
   9068 ****        -1.0000  -2.7500   5.2500 Du        
   9069 ****        -1.0000  -2.7500   5.5000 Du        
   9070 ****        -1.0000  -2.7500   5.7500 Du        
   9071 ****        -1.0000  -2.7500   6.0000 Du        
   9072 ****        -1.0000  -2.7500   6.2500 Du        
   9073 ****        -1.0000  -2.7500   6.5000 Du        
   9074 ****        -1.0000  -2.7500   6.7500 Du        
   9075 ****        -1.0000  -2.7500   7.0000 Du        
   9076 ****        -1.0000  -2.7500   7.2500 Du        
   9077 ****        -1.0000  -2.7500   7.5000 Du        
   9078 ****        -1.0000  -2.7500   7.7500 Du        
   9079 ****        -1.0000  -2.7500   8.0000 Du        
   9080 ****        -1.0000  -2.5000   5.7500 Du        
   9081 ****        -1.0000  -2.5000   6.0000 Du        
   9082 ****        -1.0000  -2.5000   6.2500 Du        
   9083 ****        -1.0000  -2.5000   6.7500 Du        
   9084 ****        -1.0000  -2.5000   7.0000 Du        
   9085 ****        -1.0000  -2.5000   7.2500 Du        
   9086 ****        -1.0000  -2.5000   7.5000 Du        
   9087 ****        -1.0000  -2.2500   6.2500 Du        
   9088 ****        -1.0000   6.0000  19.0000 Du        
   9089 ****        -1.0000   6.0000  19.2500 Du        
   9090 ****        -1.0000   6.2500  18.7500 Du        
   9091 ****        -1.0000   6.2500  19.0000 Du        
   9092 ****        -1.0000   6.2500  19.2500 Du        
   9093 ****        -1.0000   6.2500  19.5000 Du        
   9094 ****        -1.0000   6.5000  18.7500 Du        
   9095 ****        -1.0000   6.5000  19.0000 Du        
   9096 ****        -1.0000   6.5000  19.2500 Du        
   9097 ****        -1.0000   6.5000  19.5000 Du        
   9098 ****        -1.0000   6.7500  18.7500 Du        
   9099 ****        -1.0000   6.7500  19.0000 Du        
   9100 ****        -1.0000  10.7500   9.7500 Du        
   9101 ****        -1.0000  10.7500  10.0000 Du        
   9102 ****        -1.0000  10.7500  10.2500 Du        
   9103 ****        -1.0000  11.0000   9.5000 Du        
   9104 ****        -1.0000  11.0000   9.7500 Du        
   9105 ****        -1.0000  11.0000  10.0000 Du        
   9106 ****        -1.0000  11.0000  10.2500 Du        
   9107 ****        -1.0000  11.2500   9.2500 Du        
   9108 ****        -1.0000  11.2500   9.5000 Du        
   9109 ****        -1.0000  11.2500   9.7500 Du        
   9110 ****        -1.0000  11.2500  10.0000 Du        
   9111 ****        -1.0000  11.2500  10.2500 Du        
   9112 ****        -1.0000  11.2500  10.5000 Du        
   9113 ****        -1.0000  11.5000   8.5000 Du        
   9114 ****        -1.0000  11.5000   8.7500 Du        
   9115 ****        -1.0000  11.5000   9.0000 Du        
   9116 ****        -1.0000  11.5000   9.2500 Du        
   9117 ****        -1.0000  11.5000   9.5000 Du        
   9118 ****        -1.0000  11.5000   9.7500 Du        
   9119 ****        -1.0000  11.5000  10.0000 Du        
   9120 ****        -1.0000  11.5000  10.2500 Du        
   9121 ****        -1.0000  11.5000  10.5000 Du        
   9122 ****        -1.0000  11.7500   8.5000 Du        
   9123 ****        -1.0000  11.7500   8.7500 Du        
   9124 ****        -1.0000  11.7500   9.0000 Du        
   9125 ****        -1.0000  11.7500   9.2500 Du        
   9126 ****        -1.0000  11.7500   9.5000 Du        
   9127 ****        -1.0000  11.7500   9.7500 Du        
   9128 ****        -1.0000  11.7500  10.0000 Du        
   9129 ****        -1.0000  11.7500  10.2500 Du        
   9130 ****        -1.0000  11.7500  10.5000 Du        
   9131 ****        -1.0000  11.7500  10.7500 Du        
   9132 ****        -1.0000  12.0000   8.2500 Du        
   9133 ****        -1.0000  12.0000   8.5000 Du        
   9134 ****        -1.0000  12.0000   8.7500 Du        
   9135 ****        -1.0000  12.0000   9.0000 Du        
   9136 ****        -1.0000  12.0000   9.2500 Du        
   9137 ****        -1.0000  12.0000   9.5000 Du        
   9138 ****        -1.0000  12.0000   9.7500 Du        
   9139 ****        -1.0000  12.0000  10.0000 Du        
   9140 ****        -1.0000  12.0000  10.2500 Du        
   9141 ****        -1.0000  12.0000  10.5000 Du        
   9142 ****        -1.0000  12.0000  10.7500 Du        
   9143 ****        -1.0000  12.0000  11.0000 Du        
   9144 ****        -1.0000  12.2500   8.5000 Du        
   9145 ****        -1.0000  12.2500   8.7500 Du        
   9146 ****        -1.0000  12.2500   9.0000 Du        
   9147 ****        -1.0000  12.2500   9.2500 Du        
   9148 ****        -1.0000  12.2500   9.5000 Du        
   9149 ****        -1.0000  12.2500   9.7500 Du        
   9150 ****        -1.0000  12.2500  10.0000 Du        
   9151 ****        -1.0000  12.2500  10.2500 Du        
   9152 ****        -1.0000  12.2500  10.5000 Du        
   9153 ****        -1.0000  12.2500  10.7500 Du        
   9154 ****        -1.0000  12.2500  11.0000 Du        
   9155 ****        -1.0000  12.5000   8.5000 Du        
   9156 ****        -1.0000  12.5000   8.7500 Du        
   9157 ****        -1.0000  12.5000   9.0000 Du        
   9158 ****        -1.0000  12.5000   9.2500 Du        
   9159 ****        -1.0000  12.5000   9.5000 Du        
   9160 ****        -1.0000  12.5000   9.7500 Du        
   9161 ****        -1.0000  12.5000  10.0000 Du        
   9162 ****        -1.0000  12.5000  10.2500 Du        
   9163 ****        -1.0000  12.5000  10.5000 Du        
   9164 ****        -1.0000  12.5000  10.7500 Du        
   9165 ****        -1.0000  12.5000  11.0000 Du        
   9166 ****        -1.0000  12.7500   8.7500 Du        
   9167 ****        -1.0000  12.7500   9.0000 Du        
   9168 ****        -1.0000  12.7500   9.2500 Du        
   9169 ****        -1.0000  12.7500   9.5000 Du        
   9170 ****        -1.0000  12.7500   9.7500 Du        
   9171 ****        -1.0000  12.7500  10.0000 Du        
   9172 ****        -1.0000  12.7500  10.2500 Du        
   9173 ****        -1.0000  12.7500  10.5000 Du        
   9174 ****        -1.0000  12.7500  10.7500 Du        
   9175 ****        -1.0000  12.7500  11.0000 Du        
   9176 ****        -1.0000  13.0000   8.7500 Du        
   9177 ****        -1.0000  13.0000   9.0000 Du        
   9178 ****        -1.0000  13.0000   9.2500 Du        
   9179 ****        -1.0000  13.0000   9.5000 Du        
   9180 ****        -1.0000  13.0000   9.7500 Du        
   9181 ****        -1.0000  13.0000  10.0000 Du        
   9182 ****        -1.0000  13.0000  10.2500 Du        
   9183 ****        -1.0000  13.0000  10.5000 Du        
   9184 ****        -1.0000  13.0000  10.7500 Du        
   9185 ****        -1.0000  13.2500   9.0000 Du        
   9186 ****        -1.0000  13.2500   9.2500 Du        
   9187 ****        -1.0000  13.2500   9.5000 Du        
   9188 ****        -1.0000  13.2500   9.7500 Du        
   9189 ****        -1.0000  13.2500  10.0000 Du        
   9190 ****        -1.0000  13.2500  10.2500 Du        
   9191 ****        -1.0000  13.2500  10.5000 Du        
   9192 ****        -1.0000  13.5000   9.2500 Du        
   9193 ****        -1.0000  13.5000   9.5000 Du        
   9194 ****        -1.0000  13.5000   9.7500 Du        
   9195 ****        -1.0000  13.5000  10.0000 Du        
   9196 ****        -1.0000  13.5000  10.2500 Du        
   9197 ****        -1.0000  13.7500   9.5000 Du        
   9198 ****        -1.0000  13.7500   9.7500 Du        
   9199 ****        -1.0000  13.7500  10.0000 Du        
   9200 ****        -1.0000  14.7500  38.0000 Du        
   9201 ****        -1.0000  14.7500  38.2500 Du        
   9202 ****        -1.0000  15.0000  38.0000 Du        
   9203 ****        -1.0000  15.0000  38.2500 Du        
   9204 ****        -1.0000  15.0000  38.5000 Du        
   9205 ****        -1.0000  15.0000  38.7500 Du        
   9206 ****        -1.0000  15.0000  39.0000 Du        
   9207 ****        -1.0000  15.2500  38.2500 Du        
   9208 ****        -1.0000  15.2500  38.7500 Du        
   9209 ****        -1.0000  15.2500  39.0000 Du        
   9210 ****        -1.0000  15.2500  39.2500 Du        
   9211 ****        -1.0000  15.5000  38.7500 Du        
   9212 ****        -1.0000  15.5000  39.0000 Du        
   9213 ****        -1.0000  15.5000  39.2500 Du        
   9214 ****        -1.0000  15.5000  39.5000 Du        
   9215 ****        -1.0000  15.7500  39.2500 Du        
   9216 ****        -0.7500  -4.0000   7.0000 Du        
   9217 ****        -0.7500  -4.0000   7.2500 Du        
   9218 ****        -0.7500  -4.0000   7.5000 Du        
   9219 ****        -0.7500  -4.0000   7.7500 Du        
   9220 ****        -0.7500  -4.0000  12.7500 Du        
   9221 ****        -0.7500  -4.0000  13.0000 Du        
   9222 ****        -0.7500  -4.0000  13.2500 Du        
   9223 ****        -0.7500  -4.0000  13.5000 Du        
   9224 ****        -0.7500  -4.0000  13.7500 Du        
   9225 ****        -0.7500  -4.0000  14.0000 Du        
   9226 ****        -0.7500  -4.0000  14.2500 Du        
   9227 ****        -0.7500  -3.7500   6.7500 Du        
   9228 ****        -0.7500  -3.7500   7.0000 Du        
   9229 ****        -0.7500  -3.7500   7.2500 Du        
   9230 ****        -0.7500  -3.7500   7.5000 Du        
   9231 ****        -0.7500  -3.7500   7.7500 Du        
   9232 ****        -0.7500  -3.7500   8.0000 Du        
   9233 ****        -0.7500  -3.7500  13.0000 Du        
   9234 ****        -0.7500  -3.7500  13.2500 Du        
   9235 ****        -0.7500  -3.7500  13.5000 Du        
   9236 ****        -0.7500  -3.7500  13.7500 Du        
   9237 ****        -0.7500  -3.7500  14.0000 Du        
   9238 ****        -0.7500  -3.7500  14.2500 Du        
   9239 ****        -0.7500  -3.5000   6.5000 Du        
   9240 ****        -0.7500  -3.5000   6.7500 Du        
   9241 ****        -0.7500  -3.5000   7.0000 Du        
   9242 ****        -0.7500  -3.5000   7.2500 Du        
   9243 ****        -0.7500  -3.5000   7.5000 Du        
   9244 ****        -0.7500  -3.5000   7.7500 Du        
   9245 ****        -0.7500  -3.5000   8.0000 Du        
   9246 ****        -0.7500  -3.5000   8.2500 Du        
   9247 ****        -0.7500  -3.5000  13.5000 Du        
   9248 ****        -0.7500  -3.5000  13.7500 Du        
   9249 ****        -0.7500  -3.5000  14.0000 Du        
   9250 ****        -0.7500  -3.5000  14.2500 Du        
   9251 ****        -0.7500  -3.2500   2.7500 Du        
   9252 ****        -0.7500  -3.2500   3.0000 Du        
   9253 ****        -0.7500  -3.2500   3.2500 Du        
   9254 ****        -0.7500  -3.2500   3.5000 Du        
   9255 ****        -0.7500  -3.2500   6.2500 Du        
   9256 ****        -0.7500  -3.2500   6.5000 Du        
   9257 ****        -0.7500  -3.2500   6.7500 Du        
   9258 ****        -0.7500  -3.2500   7.0000 Du        
   9259 ****        -0.7500  -3.2500   7.2500 Du        
   9260 ****        -0.7500  -3.2500   7.5000 Du        
   9261 ****        -0.7500  -3.2500   7.7500 Du        
   9262 ****        -0.7500  -3.2500   8.0000 Du        
   9263 ****        -0.7500  -3.2500   8.2500 Du        
   9264 ****        -0.7500  -3.2500   8.5000 Du        
   9265 ****        -0.7500  -3.2500  13.7500 Du        
   9266 ****        -0.7500  -3.2500  14.0000 Du        
   9267 ****        -0.7500  -3.2500  14.2500 Du        
   9268 ****        -0.7500  -3.2500  14.5000 Du        
   9269 ****        -0.7500  -3.0000   2.5000 Du        
   9270 ****        -0.7500  -3.0000   2.7500 Du        
   9271 ****        -0.7500  -3.0000   3.0000 Du        
   9272 ****        -0.7500  -3.0000   3.2500 Du        
   9273 ****        -0.7500  -3.0000   3.5000 Du        
   9274 ****        -0.7500  -3.0000   3.7500 Du        
   9275 ****        -0.7500  -3.0000   4.0000 Du        
   9276 ****        -0.7500  -3.0000   4.2500 Du        
   9277 ****        -0.7500  -3.0000   5.7500 Du        
   9278 ****        -0.7500  -3.0000   6.0000 Du        
   9279 ****        -0.7500  -3.0000   6.2500 Du        
   9280 ****        -0.7500  -3.0000   6.5000 Du        
   9281 ****        -0.7500  -3.0000   6.7500 Du        
   9282 ****        -0.7500  -3.0000   7.0000 Du        
   9283 ****        -0.7500  -3.0000   7.2500 Du        
   9284 ****        -0.7500  -3.0000   7.5000 Du        
   9285 ****        -0.7500  -3.0000   7.7500 Du        
   9286 ****        -0.7500  -3.0000   8.0000 Du        
   9287 ****        -0.7500  -3.0000   8.2500 Du        
   9288 ****        -0.7500  -3.0000   8.5000 Du        
   9289 ****        -0.7500  -3.0000  14.0000 Du        
   9290 ****        -0.7500  -3.0000  14.2500 Du        
   9291 ****        -0.7500  -3.0000  14.5000 Du        
   9292 ****        -0.7500  -3.0000  14.7500 Du        
   9293 ****        -0.7500  -2.7500   2.2500 Du        
   9294 ****        -0.7500  -2.7500   2.5000 Du        
   9295 ****        -0.7500  -2.7500   2.7500 Du        
   9296 ****        -0.7500  -2.7500   3.0000 Du        
   9297 ****        -0.7500  -2.7500   3.2500 Du        
   9298 ****        -0.7500  -2.7500   3.5000 Du        
   9299 ****        -0.7500  -2.7500   3.7500 Du        
   9300 ****        -0.7500  -2.7500   4.0000 Du        
   9301 ****        -0.7500  -2.7500   4.2500 Du        
   9302 ****        -0.7500  -2.7500   5.2500 Du        
   9303 ****        -0.7500  -2.7500   5.7500 Du        
   9304 ****        -0.7500  -2.7500   6.0000 Du        
   9305 ****        -0.7500  -2.7500   6.2500 Du        
   9306 ****        -0.7500  -2.7500   6.5000 Du        
   9307 ****        -0.7500  -2.7500   6.7500 Du        
   9308 ****        -0.7500  -2.7500   7.0000 Du        
   9309 ****        -0.7500  -2.7500   7.2500 Du        
   9310 ****        -0.7500  -2.7500   7.5000 Du        
   9311 ****        -0.7500  -2.7500   7.7500 Du        
   9312 ****        -0.7500  -2.7500   8.0000 Du        
   9313 ****        -0.7500  -2.7500   8.2500 Du        
   9314 ****        -0.7500  -2.7500  14.7500 Du        
   9315 ****        -0.7500  -2.5000   6.2500 Du        
   9316 ****        -0.7500  -2.5000   7.7500 Du        
   9317 ****        -0.7500   5.7500  19.2500 Du        
   9318 ****        -0.7500   5.7500  24.7500 Du        
   9319 ****        -0.7500   6.0000  18.7500 Du        
   9320 ****        -0.7500   6.0000  19.0000 Du        
   9321 ****        -0.7500   6.0000  19.2500 Du        
   9322 ****        -0.7500   6.0000  19.5000 Du        
   9323 ****        -0.7500   6.0000  19.7500 Du        
   9324 ****        -0.7500   6.0000  24.7500 Du        
   9325 ****        -0.7500   6.2500  18.7500 Du        
   9326 ****        -0.7500   6.2500  19.0000 Du        
   9327 ****        -0.7500   6.2500  19.2500 Du        
   9328 ****        -0.7500   6.2500  19.5000 Du        
   9329 ****        -0.7500   6.2500  19.7500 Du        
   9330 ****        -0.7500   6.5000  18.5000 Du        
   9331 ****        -0.7500   6.5000  18.7500 Du        
   9332 ****        -0.7500   6.5000  19.0000 Du        
   9333 ****        -0.7500   6.5000  19.2500 Du        
   9334 ****        -0.7500   6.5000  19.5000 Du        
   9335 ****        -0.7500   6.5000  19.7500 Du        
   9336 ****        -0.7500   6.7500  18.5000 Du        
   9337 ****        -0.7500   6.7500  18.7500 Du        
   9338 ****        -0.7500   6.7500  19.0000 Du        
   9339 ****        -0.7500   6.7500  19.2500 Du        
   9340 ****        -0.7500   6.7500  19.5000 Du        
   9341 ****        -0.7500   7.0000  18.2500 Du        
   9342 ****        -0.7500   7.0000  18.5000 Du        
   9343 ****        -0.7500   7.0000  18.7500 Du        
   9344 ****        -0.7500  10.7500   9.7500 Du        
   9345 ****        -0.7500  10.7500  10.0000 Du        
   9346 ****        -0.7500  10.7500  10.2500 Du        
   9347 ****        -0.7500  10.7500  10.5000 Du        
   9348 ****        -0.7500  11.0000   9.5000 Du        
   9349 ****        -0.7500  11.0000   9.7500 Du        
   9350 ****        -0.7500  11.0000  10.0000 Du        
   9351 ****        -0.7500  11.0000  10.2500 Du        
   9352 ****        -0.7500  11.0000  10.5000 Du        
   9353 ****        -0.7500  11.2500   9.5000 Du        
   9354 ****        -0.7500  11.2500   9.7500 Du        
   9355 ****        -0.7500  11.2500  10.0000 Du        
   9356 ****        -0.7500  11.2500  10.2500 Du        
   9357 ****        -0.7500  11.2500  10.5000 Du        
   9358 ****        -0.7500  11.2500  10.7500 Du        
   9359 ****        -0.7500  11.2500  42.5000 Du        
   9360 ****        -0.7500  11.5000   8.5000 Du        
   9361 ****        -0.7500  11.5000   8.7500 Du        
   9362 ****        -0.7500  11.5000   9.0000 Du        
   9363 ****        -0.7500  11.5000   9.2500 Du        
   9364 ****        -0.7500  11.5000   9.5000 Du        
   9365 ****        -0.7500  11.5000   9.7500 Du        
   9366 ****        -0.7500  11.5000  10.0000 Du        
   9367 ****        -0.7500  11.5000  10.2500 Du        
   9368 ****        -0.7500  11.5000  10.5000 Du        
   9369 ****        -0.7500  11.5000  10.7500 Du        
   9370 ****        -0.7500  11.7500   8.5000 Du        
   9371 ****        -0.7500  11.7500   8.7500 Du        
   9372 ****        -0.7500  11.7500   9.0000 Du        
   9373 ****        -0.7500  11.7500   9.2500 Du        
   9374 ****        -0.7500  11.7500   9.5000 Du        
   9375 ****        -0.7500  11.7500   9.7500 Du        
   9376 ****        -0.7500  11.7500  10.0000 Du        
   9377 ****        -0.7500  11.7500  10.2500 Du        
   9378 ****        -0.7500  11.7500  10.5000 Du        
   9379 ****        -0.7500  11.7500  10.7500 Du        
   9380 ****        -0.7500  11.7500  11.0000 Du        
   9381 ****        -0.7500  12.0000   8.2500 Du        
   9382 ****        -0.7500  12.0000   8.5000 Du        
   9383 ****        -0.7500  12.0000   8.7500 Du        
   9384 ****        -0.7500  12.0000   9.0000 Du        
   9385 ****        -0.7500  12.0000   9.2500 Du        
   9386 ****        -0.7500  12.0000   9.5000 Du        
   9387 ****        -0.7500  12.0000   9.7500 Du        
   9388 ****        -0.7500  12.0000  10.0000 Du        
   9389 ****        -0.7500  12.0000  10.2500 Du        
   9390 ****        -0.7500  12.0000  10.5000 Du        
   9391 ****        -0.7500  12.0000  10.7500 Du        
   9392 ****        -0.7500  12.0000  11.0000 Du        
   9393 ****        -0.7500  12.2500   8.2500 Du        
   9394 ****        -0.7500  12.2500   8.5000 Du        
   9395 ****        -0.7500  12.2500   8.7500 Du        
   9396 ****        -0.7500  12.2500   9.0000 Du        
   9397 ****        -0.7500  12.2500   9.2500 Du        
   9398 ****        -0.7500  12.2500   9.5000 Du        
   9399 ****        -0.7500  12.2500   9.7500 Du        
   9400 ****        -0.7500  12.2500  10.0000 Du        
   9401 ****        -0.7500  12.2500  10.2500 Du        
   9402 ****        -0.7500  12.2500  10.5000 Du        
   9403 ****        -0.7500  12.2500  10.7500 Du        
   9404 ****        -0.7500  12.2500  11.0000 Du        
   9405 ****        -0.7500  12.2500  11.2500 Du        
   9406 ****        -0.7500  12.5000   8.5000 Du        
   9407 ****        -0.7500  12.5000   8.7500 Du        
   9408 ****        -0.7500  12.5000   9.0000 Du        
   9409 ****        -0.7500  12.5000   9.2500 Du        
   9410 ****        -0.7500  12.5000   9.5000 Du        
   9411 ****        -0.7500  12.5000   9.7500 Du        
   9412 ****        -0.7500  12.5000  10.0000 Du        
   9413 ****        -0.7500  12.5000  10.2500 Du        
   9414 ****        -0.7500  12.5000  10.5000 Du        
   9415 ****        -0.7500  12.5000  10.7500 Du        
   9416 ****        -0.7500  12.5000  11.0000 Du        
   9417 ****        -0.7500  12.5000  11.2500 Du        
   9418 ****        -0.7500  12.7500   8.5000 Du        
   9419 ****        -0.7500  12.7500   8.7500 Du        
   9420 ****        -0.7500  12.7500   9.0000 Du        
   9421 ****        -0.7500  12.7500   9.2500 Du        
   9422 ****        -0.7500  12.7500   9.5000 Du        
   9423 ****        -0.7500  12.7500   9.7500 Du        
   9424 ****        -0.7500  12.7500  10.0000 Du        
   9425 ****        -0.7500  12.7500  10.2500 Du        
   9426 ****        -0.7500  12.7500  10.5000 Du        
   9427 ****        -0.7500  12.7500  10.7500 Du        
   9428 ****        -0.7500  12.7500  11.0000 Du        
   9429 ****        -0.7500  12.7500  11.2500 Du        
   9430 ****        -0.7500  13.0000   8.7500 Du        
   9431 ****        -0.7500  13.0000   9.0000 Du        
   9432 ****        -0.7500  13.0000   9.2500 Du        
   9433 ****        -0.7500  13.0000   9.5000 Du        
   9434 ****        -0.7500  13.0000   9.7500 Du        
   9435 ****        -0.7500  13.0000  10.0000 Du        
   9436 ****        -0.7500  13.0000  10.2500 Du        
   9437 ****        -0.7500  13.0000  10.5000 Du        
   9438 ****        -0.7500  13.0000  10.7500 Du        
   9439 ****        -0.7500  13.0000  11.0000 Du        
   9440 ****        -0.7500  13.2500   9.0000 Du        
   9441 ****        -0.7500  13.2500   9.2500 Du        
   9442 ****        -0.7500  13.2500   9.5000 Du        
   9443 ****        -0.7500  13.2500   9.7500 Du        
   9444 ****        -0.7500  13.2500  10.0000 Du        
   9445 ****        -0.7500  13.2500  10.2500 Du        
   9446 ****        -0.7500  13.2500  10.5000 Du        
   9447 ****        -0.7500  13.2500  10.7500 Du        
   9448 ****        -0.7500  13.5000   9.5000 Du        
   9449 ****        -0.7500  13.5000   9.7500 Du        
   9450 ****        -0.7500  13.5000  10.0000 Du        
   9451 ****        -0.7500  13.5000  10.2500 Du        
   9452 ****        -0.7500  13.5000  10.5000 Du        
   9453 ****        -0.7500  13.7500   9.7500 Du        
   9454 ****        -0.7500  13.7500  10.0000 Du        
   9455 ****        -0.7500  13.7500  10.2500 Du        
   9456 ****        -0.7500  14.5000  36.7500 Du        
   9457 ****        -0.7500  14.5000  37.0000 Du        
   9458 ****        -0.7500  14.5000  37.7500 Du        
   9459 ****        -0.7500  14.7500  37.5000 Du        
   9460 ****        -0.7500  14.7500  37.7500 Du        
   9461 ****        -0.7500  14.7500  38.0000 Du        
   9462 ****        -0.7500  14.7500  38.2500 Du        
   9463 ****        -0.7500  15.0000  38.0000 Du        
   9464 ****        -0.7500  15.0000  38.2500 Du        
   9465 ****        -0.7500  15.0000  38.5000 Du        
   9466 ****        -0.7500  15.0000  38.7500 Du        
   9467 ****        -0.7500  15.0000  39.0000 Du        
   9468 ****        -0.7500  15.2500  38.2500 Du        
   9469 ****        -0.7500  15.2500  38.7500 Du        
   9470 ****        -0.7500  15.2500  39.0000 Du        
   9471 ****        -0.5000  -4.0000   7.0000 Du        
   9472 ****        -0.5000  -4.0000   7.2500 Du        
   9473 ****        -0.5000  -4.0000   7.5000 Du        
   9474 ****        -0.5000  -4.0000   7.7500 Du        
   9475 ****        -0.5000  -4.0000  12.7500 Du        
   9476 ****        -0.5000  -4.0000  13.0000 Du        
   9477 ****        -0.5000  -4.0000  13.2500 Du        
   9478 ****        -0.5000  -4.0000  13.5000 Du        
   9479 ****        -0.5000  -4.0000  13.7500 Du        
   9480 ****        -0.5000  -4.0000  14.0000 Du        
   9481 ****        -0.5000  -4.0000  14.2500 Du        
   9482 ****        -0.5000  -4.0000  14.5000 Du        
   9483 ****        -0.5000  -4.0000  14.7500 Du        
   9484 ****        -0.5000  -4.0000  15.0000 Du        
   9485 ****        -0.5000  -4.0000  15.2500 Du        
   9486 ****        -0.5000  -3.7500   6.7500 Du        
   9487 ****        -0.5000  -3.7500   7.0000 Du        
   9488 ****        -0.5000  -3.7500   7.2500 Du        
   9489 ****        -0.5000  -3.7500   7.5000 Du        
   9490 ****        -0.5000  -3.7500   7.7500 Du        
   9491 ****        -0.5000  -3.7500   8.0000 Du        
   9492 ****        -0.5000  -3.7500   8.2500 Du        
   9493 ****        -0.5000  -3.7500  13.0000 Du        
   9494 ****        -0.5000  -3.7500  13.2500 Du        
   9495 ****        -0.5000  -3.7500  13.5000 Du        
   9496 ****        -0.5000  -3.7500  13.7500 Du        
   9497 ****        -0.5000  -3.7500  14.0000 Du        
   9498 ****        -0.5000  -3.7500  14.2500 Du        
   9499 ****        -0.5000  -3.5000   6.7500 Du        
   9500 ****        -0.5000  -3.5000   7.0000 Du        
   9501 ****        -0.5000  -3.5000   7.2500 Du        
   9502 ****        -0.5000  -3.5000   7.5000 Du        
   9503 ****        -0.5000  -3.5000   7.7500 Du        
   9504 ****        -0.5000  -3.5000   8.0000 Du        
   9505 ****        -0.5000  -3.5000   8.2500 Du        
   9506 ****        -0.5000  -3.5000   8.5000 Du        
   9507 ****        -0.5000  -3.5000  13.2500 Du        
   9508 ****        -0.5000  -3.5000  13.5000 Du        
   9509 ****        -0.5000  -3.5000  13.7500 Du        
   9510 ****        -0.5000  -3.5000  14.0000 Du        
   9511 ****        -0.5000  -3.5000  14.2500 Du        
   9512 ****        -0.5000  -3.5000  14.5000 Du        
   9513 ****        -0.5000  -3.5000  14.7500 Du        
   9514 ****        -0.5000  -3.5000  15.0000 Du        
   9515 ****        -0.5000  -3.2500   6.2500 Du        
   9516 ****        -0.5000  -3.2500   6.5000 Du        
   9517 ****        -0.5000  -3.2500   6.7500 Du        
   9518 ****        -0.5000  -3.2500   7.0000 Du        
   9519 ****        -0.5000  -3.2500   7.2500 Du        
   9520 ****        -0.5000  -3.2500   7.5000 Du        
   9521 ****        -0.5000  -3.2500   7.7500 Du        
   9522 ****        -0.5000  -3.2500   8.0000 Du        
   9523 ****        -0.5000  -3.2500   8.2500 Du        
   9524 ****        -0.5000  -3.2500   8.5000 Du        
   9525 ****        -0.5000  -3.2500   8.7500 Du        
   9526 ****        -0.5000  -3.2500  14.0000 Du        
   9527 ****        -0.5000  -3.2500  14.2500 Du        
   9528 ****        -0.5000  -3.2500  14.7500 Du        
   9529 ****        -0.5000  -3.0000   2.7500 Du        
   9530 ****        -0.5000  -3.0000   3.0000 Du        
   9531 ****        -0.5000  -3.0000   3.2500 Du        
   9532 ****        -0.5000  -3.0000   6.0000 Du        
   9533 ****        -0.5000  -3.0000   6.2500 Du        
   9534 ****        -0.5000  -3.0000   6.5000 Du        
   9535 ****        -0.5000  -3.0000   6.7500 Du        
   9536 ****        -0.5000  -3.0000   7.0000 Du        
   9537 ****        -0.5000  -3.0000   7.2500 Du        
   9538 ****        -0.5000  -3.0000   7.5000 Du        
   9539 ****        -0.5000  -3.0000   7.7500 Du        
   9540 ****        -0.5000  -3.0000   8.0000 Du        
   9541 ****        -0.5000  -3.0000   8.2500 Du        
   9542 ****        -0.5000  -3.0000   8.5000 Du        
   9543 ****        -0.5000  -3.0000   8.7500 Du        
   9544 ****        -0.5000  -2.7500   3.0000 Du        
   9545 ****        -0.5000  -2.7500   6.5000 Du        
   9546 ****        -0.5000  -2.7500   6.7500 Du        
   9547 ****        -0.5000  -2.7500   7.0000 Du        
   9548 ****        -0.5000  -2.7500   7.2500 Du        
   9549 ****        -0.5000  -2.7500   7.5000 Du        
   9550 ****        -0.5000  -2.7500   7.7500 Du        
   9551 ****        -0.5000  -2.7500   8.0000 Du        
   9552 ****        -0.5000  -2.7500   8.2500 Du        
   9553 ****        -0.5000  -2.7500   8.5000 Du        
   9554 ****        -0.5000   5.7500  19.0000 Du        
   9555 ****        -0.5000   5.7500  19.2500 Du        
   9556 ****        -0.5000   6.0000  18.7500 Du        
   9557 ****        -0.5000   6.0000  19.0000 Du        
   9558 ****        -0.5000   6.0000  19.2500 Du        
   9559 ****        -0.5000   6.0000  19.5000 Du        
   9560 ****        -0.5000   6.0000  19.7500 Du        
   9561 ****        -0.5000   6.2500  18.5000 Du        
   9562 ****        -0.5000   6.2500  18.7500 Du        
   9563 ****        -0.5000   6.2500  19.0000 Du        
   9564 ****        -0.5000   6.2500  19.2500 Du        
   9565 ****        -0.5000   6.2500  19.5000 Du        
   9566 ****        -0.5000   6.2500  19.7500 Du        
   9567 ****        -0.5000   6.2500  20.0000 Du        
   9568 ****        -0.5000   6.5000  18.5000 Du        
   9569 ****        -0.5000   6.5000  18.7500 Du        
   9570 ****        -0.5000   6.5000  19.0000 Du        
   9571 ****        -0.5000   6.5000  19.2500 Du        
   9572 ****        -0.5000   6.5000  19.5000 Du        
   9573 ****        -0.5000   6.5000  19.7500 Du        
   9574 ****        -0.5000   6.5000  20.0000 Du        
   9575 ****        -0.5000   6.7500  18.2500 Du        
   9576 ****        -0.5000   6.7500  18.5000 Du        
   9577 ****        -0.5000   6.7500  18.7500 Du        
   9578 ****        -0.5000   6.7500  19.0000 Du        
   9579 ****        -0.5000   6.7500  19.2500 Du        
   9580 ****        -0.5000   6.7500  19.5000 Du        
   9581 ****        -0.5000   6.7500  19.7500 Du        
   9582 ****        -0.5000   7.0000  18.2500 Du        
   9583 ****        -0.5000   7.0000  18.5000 Du        
   9584 ****        -0.5000   7.0000  18.7500 Du        
   9585 ****        -0.5000   7.0000  19.0000 Du        
   9586 ****        -0.5000   7.2500  18.0000 Du        
   9587 ****        -0.5000   7.2500  18.2500 Du        
   9588 ****        -0.5000   7.2500  18.5000 Du        
   9589 ****        -0.5000  10.7500  10.0000 Du        
   9590 ****        -0.5000  10.7500  10.2500 Du        
   9591 ****        -0.5000  10.7500  10.5000 Du        
   9592 ****        -0.5000  11.0000   9.7500 Du        
   9593 ****        -0.5000  11.0000  10.0000 Du        
   9594 ****        -0.5000  11.0000  10.2500 Du        
   9595 ****        -0.5000  11.0000  10.5000 Du        
   9596 ****        -0.5000  11.2500   9.5000 Du        
   9597 ****        -0.5000  11.2500   9.7500 Du        
   9598 ****        -0.5000  11.2500  10.0000 Du        
   9599 ****        -0.5000  11.2500  10.2500 Du        
   9600 ****        -0.5000  11.2500  10.5000 Du        
   9601 ****        -0.5000  11.2500  10.7500 Du        
   9602 ****        -0.5000  11.2500  42.2500 Du        
   9603 ****        -0.5000  11.5000   9.0000 Du        
   9604 ****        -0.5000  11.5000   9.2500 Du        
   9605 ****        -0.5000  11.5000   9.5000 Du        
   9606 ****        -0.5000  11.5000   9.7500 Du        
   9607 ****        -0.5000  11.5000  10.0000 Du        
   9608 ****        -0.5000  11.5000  10.2500 Du        
   9609 ****        -0.5000  11.5000  10.5000 Du        
   9610 ****        -0.5000  11.5000  10.7500 Du        
   9611 ****        -0.5000  11.5000  42.2500 Du        
   9612 ****        -0.5000  11.7500   8.5000 Du        
   9613 ****        -0.5000  11.7500   8.7500 Du        
   9614 ****        -0.5000  11.7500   9.0000 Du        
   9615 ****        -0.5000  11.7500   9.2500 Du        
   9616 ****        -0.5000  11.7500   9.5000 Du        
   9617 ****        -0.5000  11.7500   9.7500 Du        
   9618 ****        -0.5000  11.7500  10.0000 Du        
   9619 ****        -0.5000  11.7500  10.2500 Du        
   9620 ****        -0.5000  11.7500  10.5000 Du        
   9621 ****        -0.5000  11.7500  10.7500 Du        
   9622 ****        -0.5000  11.7500  11.0000 Du        
   9623 ****        -0.5000  11.7500  42.2500 Du        
   9624 ****        -0.5000  12.0000   8.2500 Du        
   9625 ****        -0.5000  12.0000   8.5000 Du        
   9626 ****        -0.5000  12.0000   8.7500 Du        
   9627 ****        -0.5000  12.0000   9.0000 Du        
   9628 ****        -0.5000  12.0000   9.2500 Du        
   9629 ****        -0.5000  12.0000   9.5000 Du        
   9630 ****        -0.5000  12.0000   9.7500 Du        
   9631 ****        -0.5000  12.0000  10.0000 Du        
   9632 ****        -0.5000  12.0000  10.2500 Du        
   9633 ****        -0.5000  12.0000  10.5000 Du        
   9634 ****        -0.5000  12.0000  10.7500 Du        
   9635 ****        -0.5000  12.0000  11.0000 Du        
   9636 ****        -0.5000  12.2500   8.2500 Du        
   9637 ****        -0.5000  12.2500   8.5000 Du        
   9638 ****        -0.5000  12.2500   8.7500 Du        
   9639 ****        -0.5000  12.2500   9.0000 Du        
   9640 ****        -0.5000  12.2500   9.2500 Du        
   9641 ****        -0.5000  12.2500   9.5000 Du        
   9642 ****        -0.5000  12.2500   9.7500 Du        
   9643 ****        -0.5000  12.2500  10.0000 Du        
   9644 ****        -0.5000  12.2500  10.2500 Du        
   9645 ****        -0.5000  12.2500  10.5000 Du        
   9646 ****        -0.5000  12.2500  10.7500 Du        
   9647 ****        -0.5000  12.2500  11.0000 Du        
   9648 ****        -0.5000  12.2500  11.2500 Du        
   9649 ****        -0.5000  12.5000   8.5000 Du        
   9650 ****        -0.5000  12.5000   8.7500 Du        
   9651 ****        -0.5000  12.5000   9.0000 Du        
   9652 ****        -0.5000  12.5000   9.2500 Du        
   9653 ****        -0.5000  12.5000   9.5000 Du        
   9654 ****        -0.5000  12.5000   9.7500 Du        
   9655 ****        -0.5000  12.5000  10.0000 Du        
   9656 ****        -0.5000  12.5000  10.2500 Du        
   9657 ****        -0.5000  12.5000  10.5000 Du        
   9658 ****        -0.5000  12.5000  10.7500 Du        
   9659 ****        -0.5000  12.5000  11.0000 Du        
   9660 ****        -0.5000  12.5000  11.2500 Du        
   9661 ****        -0.5000  12.7500   8.7500 Du        
   9662 ****        -0.5000  12.7500   9.0000 Du        
   9663 ****        -0.5000  12.7500   9.2500 Du        
   9664 ****        -0.5000  12.7500   9.5000 Du        
   9665 ****        -0.5000  12.7500   9.7500 Du        
   9666 ****        -0.5000  12.7500  10.0000 Du        
   9667 ****        -0.5000  12.7500  10.2500 Du        
   9668 ****        -0.5000  12.7500  10.5000 Du        
   9669 ****        -0.5000  12.7500  10.7500 Du        
   9670 ****        -0.5000  12.7500  11.0000 Du        
   9671 ****        -0.5000  12.7500  11.2500 Du        
   9672 ****        -0.5000  13.0000   9.0000 Du        
   9673 ****        -0.5000  13.0000   9.2500 Du        
   9674 ****        -0.5000  13.0000   9.5000 Du        
   9675 ****        -0.5000  13.0000   9.7500 Du        
   9676 ****        -0.5000  13.0000  10.0000 Du        
   9677 ****        -0.5000  13.0000  10.2500 Du        
   9678 ****        -0.5000  13.0000  10.5000 Du        
   9679 ****        -0.5000  13.0000  10.7500 Du        
   9680 ****        -0.5000  13.0000  11.0000 Du        
   9681 ****        -0.5000  13.0000  11.2500 Du        
   9682 ****        -0.5000  13.2500   2.5000 Du        
   9683 ****        -0.5000  13.2500   9.2500 Du        
   9684 ****        -0.5000  13.2500   9.5000 Du        
   9685 ****        -0.5000  13.2500   9.7500 Du        
   9686 ****        -0.5000  13.2500  10.0000 Du        
   9687 ****        -0.5000  13.2500  10.2500 Du        
   9688 ****        -0.5000  13.2500  10.5000 Du        
   9689 ****        -0.5000  13.2500  10.7500 Du        
   9690 ****        -0.5000  13.5000   2.0000 Du        
   9691 ****        -0.5000  13.5000   9.5000 Du        
   9692 ****        -0.5000  13.5000   9.7500 Du        
   9693 ****        -0.5000  13.5000  10.0000 Du        
   9694 ****        -0.5000  13.5000  10.2500 Du        
   9695 ****        -0.5000  13.5000  10.5000 Du        
   9696 ****        -0.5000  14.2500  37.0000 Du        
   9697 ****        -0.5000  14.5000  36.7500 Du        
   9698 ****        -0.5000  14.5000  37.0000 Du        
   9699 ****        -0.5000  14.5000  37.2500 Du        
   9700 ****        -0.5000  14.5000  37.5000 Du        
   9701 ****        -0.5000  14.5000  37.7500 Du        
   9702 ****        -0.5000  14.5000  38.0000 Du        
   9703 ****        -0.5000  14.5000  38.2500 Du        
   9704 ****        -0.5000  14.7500  36.7500 Du        
   9705 ****        -0.5000  14.7500  37.0000 Du        
   9706 ****        -0.5000  14.7500  37.2500 Du        
   9707 ****        -0.5000  14.7500  37.5000 Du        
   9708 ****        -0.5000  14.7500  37.7500 Du        
   9709 ****        -0.5000  14.7500  38.0000 Du        
   9710 ****        -0.5000  14.7500  38.2500 Du        
   9711 ****        -0.5000  15.0000  37.7500 Du        
   9712 ****        -0.5000  15.0000  38.0000 Du        
   9713 ****        -0.5000  15.0000  38.2500 Du        
   9714 ****        -0.5000  15.2500  38.2500 Du        
   9715 ****        -0.2500  -4.0000   7.0000 Du        
   9716 ****        -0.2500  -4.0000   7.2500 Du        
   9717 ****        -0.2500  -4.0000   7.5000 Du        
   9718 ****        -0.2500  -4.0000   7.7500 Du        
   9719 ****        -0.2500  -4.0000   8.0000 Du        
   9720 ****        -0.2500  -4.0000  13.0000 Du        
   9721 ****        -0.2500  -4.0000  13.2500 Du        
   9722 ****        -0.2500  -4.0000  13.5000 Du        
   9723 ****        -0.2500  -4.0000  13.7500 Du        
   9724 ****        -0.2500  -4.0000  14.0000 Du        
   9725 ****        -0.2500  -4.0000  14.2500 Du        
   9726 ****        -0.2500  -4.0000  14.5000 Du        
   9727 ****        -0.2500  -4.0000  14.7500 Du        
   9728 ****        -0.2500  -4.0000  15.0000 Du        
   9729 ****        -0.2500  -4.0000  15.2500 Du        
   9730 ****        -0.2500  -4.0000  15.5000 Du        
   9731 ****        -0.2500  -4.0000  15.7500 Du        
   9732 ****        -0.2500  -3.7500   6.7500 Du        
   9733 ****        -0.2500  -3.7500   7.0000 Du        
   9734 ****        -0.2500  -3.7500   7.2500 Du        
   9735 ****        -0.2500  -3.7500   7.5000 Du        
   9736 ****        -0.2500  -3.7500   7.7500 Du        
   9737 ****        -0.2500  -3.7500   8.0000 Du        
   9738 ****        -0.2500  -3.7500   8.2500 Du        
   9739 ****        -0.2500  -3.7500  12.7500 Du        
   9740 ****        -0.2500  -3.7500  13.0000 Du        
   9741 ****        -0.2500  -3.7500  13.2500 Du        
   9742 ****        -0.2500  -3.7500  13.5000 Du        
   9743 ****        -0.2500  -3.7500  13.7500 Du        
   9744 ****        -0.2500  -3.7500  14.0000 Du        
   9745 ****        -0.2500  -3.7500  14.2500 Du        
   9746 ****        -0.2500  -3.7500  14.5000 Du        
   9747 ****        -0.2500  -3.7500  14.7500 Du        
   9748 ****        -0.2500  -3.7500  15.0000 Du        
   9749 ****        -0.2500  -3.7500  15.2500 Du        
   9750 ****        -0.2500  -3.7500  15.5000 Du        
   9751 ****        -0.2500  -3.7500  15.7500 Du        
   9752 ****        -0.2500  -3.5000   6.7500 Du        
   9753 ****        -0.2500  -3.5000   7.0000 Du        
   9754 ****        -0.2500  -3.5000   7.2500 Du        
   9755 ****        -0.2500  -3.5000   7.5000 Du        
   9756 ****        -0.2500  -3.5000   7.7500 Du        
   9757 ****        -0.2500  -3.5000   8.0000 Du        
   9758 ****        -0.2500  -3.5000   8.2500 Du        
   9759 ****        -0.2500  -3.5000   8.5000 Du        
   9760 ****        -0.2500  -3.5000   8.7500 Du        
   9761 ****        -0.2500  -3.5000   9.0000 Du        
   9762 ****        -0.2500  -3.5000  13.0000 Du        
   9763 ****        -0.2500  -3.5000  13.2500 Du        
   9764 ****        -0.2500  -3.5000  13.5000 Du        
   9765 ****        -0.2500  -3.5000  13.7500 Du        
   9766 ****        -0.2500  -3.5000  14.0000 Du        
   9767 ****        -0.2500  -3.5000  14.2500 Du        
   9768 ****        -0.2500  -3.5000  14.5000 Du        
   9769 ****        -0.2500  -3.5000  14.7500 Du        
   9770 ****        -0.2500  -3.5000  15.0000 Du        
   9771 ****        -0.2500  -3.5000  15.2500 Du        
   9772 ****        -0.2500  -3.2500   6.2500 Du        
   9773 ****        -0.2500  -3.2500   6.5000 Du        
   9774 ****        -0.2500  -3.2500   6.7500 Du        
   9775 ****        -0.2500  -3.2500   7.0000 Du        
   9776 ****        -0.2500  -3.2500   7.2500 Du        
   9777 ****        -0.2500  -3.2500   7.5000 Du        
   9778 ****        -0.2500  -3.2500   7.7500 Du        
   9779 ****        -0.2500  -3.2500   8.0000 Du        
   9780 ****        -0.2500  -3.2500   8.2500 Du        
   9781 ****        -0.2500  -3.2500   8.5000 Du        
   9782 ****        -0.2500  -3.2500   8.7500 Du        
   9783 ****        -0.2500  -3.2500   9.0000 Du        
   9784 ****        -0.2500  -3.2500   9.2500 Du        
   9785 ****        -0.2500  -3.2500  13.2500 Du        
   9786 ****        -0.2500  -3.2500  13.5000 Du        
   9787 ****        -0.2500  -3.2500  13.7500 Du        
   9788 ****        -0.2500  -3.2500  14.0000 Du        
   9789 ****        -0.2500  -3.2500  14.2500 Du        
   9790 ****        -0.2500  -3.2500  14.7500 Du        
   9791 ****        -0.2500  -3.2500  15.0000 Du        
   9792 ****        -0.2500  -3.2500  15.2500 Du        
   9793 ****        -0.2500  -3.0000   6.0000 Du        
   9794 ****        -0.2500  -3.0000   6.2500 Du        
   9795 ****        -0.2500  -3.0000   6.5000 Du        
   9796 ****        -0.2500  -3.0000   6.7500 Du        
   9797 ****        -0.2500  -3.0000   7.0000 Du        
   9798 ****        -0.2500  -3.0000   7.2500 Du        
   9799 ****        -0.2500  -3.0000   7.5000 Du        
   9800 ****        -0.2500  -3.0000   7.7500 Du        
   9801 ****        -0.2500  -3.0000   8.0000 Du        
   9802 ****        -0.2500  -3.0000   8.2500 Du        
   9803 ****        -0.2500  -3.0000   8.5000 Du        
   9804 ****        -0.2500  -3.0000   8.7500 Du        
   9805 ****        -0.2500  -3.0000   9.0000 Du        
   9806 ****        -0.2500  -3.0000   9.2500 Du        
   9807 ****        -0.2500  -3.0000  14.0000 Du        
   9808 ****        -0.2500  -3.0000  14.2500 Du        
   9809 ****        -0.2500  -2.7500   3.2500 Du        
   9810 ****        -0.2500  -2.7500   6.7500 Du        
   9811 ****        -0.2500  -2.7500   7.0000 Du        
   9812 ****        -0.2500  -2.7500   7.2500 Du        
   9813 ****        -0.2500  -2.7500   7.5000 Du        
   9814 ****        -0.2500  -2.7500   7.7500 Du        
   9815 ****        -0.2500  -2.7500   8.0000 Du        
   9816 ****        -0.2500  -2.7500   8.2500 Du        
   9817 ****        -0.2500  -2.7500   8.5000 Du        
   9818 ****        -0.2500  -2.7500   8.7500 Du        
   9819 ****        -0.2500   2.5000  45.5000 Du        
   9820 ****        -0.2500   2.5000  45.7500 Du        
   9821 ****        -0.2500   2.7500  45.7500 Du        
   9822 ****        -0.2500   5.5000  19.0000 Du        
   9823 ****        -0.2500   5.7500  18.7500 Du        
   9824 ****        -0.2500   5.7500  19.0000 Du        
   9825 ****        -0.2500   5.7500  19.2500 Du        
   9826 ****        -0.2500   5.7500  19.5000 Du        
   9827 ****        -0.2500   5.7500  19.7500 Du        
   9828 ****        -0.2500   5.7500  20.0000 Du        
   9829 ****        -0.2500   6.0000  18.5000 Du        
   9830 ****        -0.2500   6.0000  18.7500 Du        
   9831 ****        -0.2500   6.0000  19.0000 Du        
   9832 ****        -0.2500   6.0000  19.2500 Du        
   9833 ****        -0.2500   6.0000  19.5000 Du        
   9834 ****        -0.2500   6.0000  19.7500 Du        
   9835 ****        -0.2500   6.0000  20.0000 Du        
   9836 ****        -0.2500   6.2500  18.2500 Du        
   9837 ****        -0.2500   6.2500  18.5000 Du        
   9838 ****        -0.2500   6.2500  18.7500 Du        
   9839 ****        -0.2500   6.2500  19.0000 Du        
   9840 ****        -0.2500   6.2500  19.2500 Du        
   9841 ****        -0.2500   6.2500  19.5000 Du        
   9842 ****        -0.2500   6.2500  19.7500 Du        
   9843 ****        -0.2500   6.2500  20.0000 Du        
   9844 ****        -0.2500   6.2500  20.2500 Du        
   9845 ****        -0.2500   6.5000  18.2500 Du        
   9846 ****        -0.2500   6.5000  18.5000 Du        
   9847 ****        -0.2500   6.5000  18.7500 Du        
   9848 ****        -0.2500   6.5000  19.0000 Du        
   9849 ****        -0.2500   6.5000  19.2500 Du        
   9850 ****        -0.2500   6.5000  19.5000 Du        
   9851 ****        -0.2500   6.5000  19.7500 Du        
   9852 ****        -0.2500   6.5000  20.0000 Du        
   9853 ****        -0.2500   6.5000  20.2500 Du        
   9854 ****        -0.2500   6.7500  18.0000 Du        
   9855 ****        -0.2500   6.7500  18.2500 Du        
   9856 ****        -0.2500   6.7500  18.5000 Du        
   9857 ****        -0.2500   6.7500  18.7500 Du        
   9858 ****        -0.2500   6.7500  19.0000 Du        
   9859 ****        -0.2500   6.7500  19.2500 Du        
   9860 ****        -0.2500   6.7500  19.5000 Du        
   9861 ****        -0.2500   6.7500  19.7500 Du        
   9862 ****        -0.2500   6.7500  20.0000 Du        
   9863 ****        -0.2500   6.7500  20.2500 Du        
   9864 ****        -0.2500   7.0000  18.0000 Du        
   9865 ****        -0.2500   7.0000  18.2500 Du        
   9866 ****        -0.2500   7.0000  18.5000 Du        
   9867 ****        -0.2500   7.0000  18.7500 Du        
   9868 ****        -0.2500   7.0000  19.0000 Du        
   9869 ****        -0.2500   7.0000  19.2500 Du        
   9870 ****        -0.2500   7.0000  19.5000 Du        
   9871 ****        -0.2500   7.2500  17.7500 Du        
   9872 ****        -0.2500   7.2500  18.0000 Du        
   9873 ****        -0.2500   7.2500  18.2500 Du        
   9874 ****        -0.2500   7.2500  18.5000 Du        
   9875 ****        -0.2500   7.2500  18.7500 Du        
   9876 ****        -0.2500   7.2500  19.0000 Du        
   9877 ****        -0.2500   7.5000  17.7500 Du        
   9878 ****        -0.2500   7.5000  18.0000 Du        
   9879 ****        -0.2500   7.5000  18.2500 Du        
   9880 ****        -0.2500   7.5000  18.5000 Du        
   9881 ****        -0.2500   7.7500  17.7500 Du        
   9882 ****        -0.2500   7.7500  18.0000 Du        
   9883 ****        -0.2500   7.7500  18.2500 Du        
   9884 ****        -0.2500   8.0000  17.7500 Du        
   9885 ****        -0.2500  10.7500  10.0000 Du        
   9886 ****        -0.2500  10.7500  10.2500 Du        
   9887 ****        -0.2500  10.7500  10.5000 Du        
   9888 ****        -0.2500  11.0000   9.7500 Du        
   9889 ****        -0.2500  11.0000  10.0000 Du        
   9890 ****        -0.2500  11.0000  10.2500 Du        
   9891 ****        -0.2500  11.0000  10.5000 Du        
   9892 ****        -0.2500  11.0000  10.7500 Du        
   9893 ****        -0.2500  11.2500   9.5000 Du        
   9894 ****        -0.2500  11.2500   9.7500 Du        
   9895 ****        -0.2500  11.2500  10.0000 Du        
   9896 ****        -0.2500  11.2500  10.2500 Du        
   9897 ****        -0.2500  11.2500  10.5000 Du        
   9898 ****        -0.2500  11.2500  10.7500 Du        
   9899 ****        -0.2500  11.5000   9.0000 Du        
   9900 ****        -0.2500  11.5000   9.2500 Du        
   9901 ****        -0.2500  11.5000   9.5000 Du        
   9902 ****        -0.2500  11.5000   9.7500 Du        
   9903 ****        -0.2500  11.5000  10.0000 Du        
   9904 ****        -0.2500  11.5000  10.2500 Du        
   9905 ****        -0.2500  11.5000  10.5000 Du        
   9906 ****        -0.2500  11.5000  10.7500 Du        
   9907 ****        -0.2500  11.7500   8.5000 Du        
   9908 ****        -0.2500  11.7500   8.7500 Du        
   9909 ****        -0.2500  11.7500   9.0000 Du        
   9910 ****        -0.2500  11.7500   9.2500 Du        
   9911 ****        -0.2500  11.7500   9.5000 Du        
   9912 ****        -0.2500  11.7500   9.7500 Du        
   9913 ****        -0.2500  11.7500  10.0000 Du        
   9914 ****        -0.2500  11.7500  10.2500 Du        
   9915 ****        -0.2500  11.7500  10.5000 Du        
   9916 ****        -0.2500  11.7500  10.7500 Du        
   9917 ****        -0.2500  11.7500  11.0000 Du        
   9918 ****        -0.2500  12.0000   8.2500 Du        
   9919 ****        -0.2500  12.0000   8.5000 Du        
   9920 ****        -0.2500  12.0000   8.7500 Du        
   9921 ****        -0.2500  12.0000   9.0000 Du        
   9922 ****        -0.2500  12.0000   9.2500 Du        
   9923 ****        -0.2500  12.0000   9.5000 Du        
   9924 ****        -0.2500  12.0000   9.7500 Du        
   9925 ****        -0.2500  12.0000  10.0000 Du        
   9926 ****        -0.2500  12.0000  10.2500 Du        
   9927 ****        -0.2500  12.0000  10.5000 Du        
   9928 ****        -0.2500  12.0000  10.7500 Du        
   9929 ****        -0.2500  12.0000  11.0000 Du        
   9930 ****        -0.2500  12.2500   8.2500 Du        
   9931 ****        -0.2500  12.2500   8.5000 Du        
   9932 ****        -0.2500  12.2500   8.7500 Du        
   9933 ****        -0.2500  12.2500   9.0000 Du        
   9934 ****        -0.2500  12.2500   9.2500 Du        
   9935 ****        -0.2500  12.2500   9.5000 Du        
   9936 ****        -0.2500  12.2500   9.7500 Du        
   9937 ****        -0.2500  12.2500  10.0000 Du        
   9938 ****        -0.2500  12.2500  10.2500 Du        
   9939 ****        -0.2500  12.2500  10.5000 Du        
   9940 ****        -0.2500  12.2500  10.7500 Du        
   9941 ****        -0.2500  12.2500  11.0000 Du        
   9942 ****        -0.2500  12.2500  11.2500 Du        
   9943 ****        -0.2500  12.5000   8.5000 Du        
   9944 ****        -0.2500  12.5000   8.7500 Du        
   9945 ****        -0.2500  12.5000   9.0000 Du        
   9946 ****        -0.2500  12.5000   9.2500 Du        
   9947 ****        -0.2500  12.5000   9.5000 Du        
   9948 ****        -0.2500  12.5000   9.7500 Du        
   9949 ****        -0.2500  12.5000  10.0000 Du        
   9950 ****        -0.2500  12.5000  10.2500 Du        
   9951 ****        -0.2500  12.5000  10.5000 Du        
   9952 ****        -0.2500  12.5000  10.7500 Du        
   9953 ****        -0.2500  12.5000  11.0000 Du        
   9954 ****        -0.2500  12.5000  11.2500 Du        
   9955 ****        -0.2500  12.7500   8.7500 Du        
   9956 ****        -0.2500  12.7500   9.0000 Du        
   9957 ****        -0.2500  12.7500   9.2500 Du        
   9958 ****        -0.2500  12.7500   9.5000 Du        
   9959 ****        -0.2500  12.7500   9.7500 Du        
   9960 ****        -0.2500  12.7500  10.0000 Du        
   9961 ****        -0.2500  12.7500  10.2500 Du        
   9962 ****        -0.2500  12.7500  10.5000 Du        
   9963 ****        -0.2500  12.7500  10.7500 Du        
   9964 ****        -0.2500  12.7500  11.0000 Du        
   9965 ****        -0.2500  12.7500  11.2500 Du        
   9966 ****        -0.2500  13.0000   2.0000 Du        
   9967 ****        -0.2500  13.0000   2.7500 Du        
   9968 ****        -0.2500  13.0000   9.0000 Du        
   9969 ****        -0.2500  13.0000   9.2500 Du        
   9970 ****        -0.2500  13.0000   9.5000 Du        
   9971 ****        -0.2500  13.0000   9.7500 Du        
   9972 ****        -0.2500  13.0000  10.0000 Du        
   9973 ****        -0.2500  13.0000  10.2500 Du        
   9974 ****        -0.2500  13.0000  10.5000 Du        
   9975 ****        -0.2500  13.0000  10.7500 Du        
   9976 ****        -0.2500  13.0000  11.0000 Du        
   9977 ****        -0.2500  13.2500   2.0000 Du        
   9978 ****        -0.2500  13.2500   2.5000 Du        
   9979 ****        -0.2500  13.2500   2.7500 Du        
   9980 ****        -0.2500  13.2500   9.5000 Du        
   9981 ****        -0.2500  13.2500   9.7500 Du        
   9982 ****        -0.2500  13.2500  10.0000 Du        
   9983 ****        -0.2500  13.2500  10.2500 Du        
   9984 ****        -0.2500  13.2500  10.5000 Du        
   9985 ****        -0.2500  13.5000   1.0000 Du        
   9986 ****        -0.2500  13.5000   1.2500 Du        
   9987 ****        -0.2500  13.5000   2.0000 Du        
   9988 ****        -0.2500  13.5000   2.2500 Du        
   9989 ****        -0.2500  13.5000   2.5000 Du        
   9990 ****        -0.2500  13.5000  10.0000 Du        
   9991 ****        -0.2500  14.2500  36.7500 Du        
   9992 ****        -0.2500  14.2500  37.0000 Du        
   9993 ****        -0.2500  14.2500  37.2500 Du        
   9994 ****        -0.2500  14.5000  36.5000 Du        
   9995 ****        -0.2500  14.5000  36.7500 Du        
   9996 ****        -0.2500  14.5000  37.0000 Du        
   9997 ****        -0.2500  14.5000  37.2500 Du        
   9998 ****        -0.2500  14.5000  37.5000 Du        
   9999 ****        -0.2500  14.5000  37.7500 Du        
  10000 ****        -0.2500  14.5000  38.0000 Du        
  10001 ****        -0.2500  14.5000  38.2500 Du        
  10002 ****        -0.2500  14.7500  36.5000 Du        
  10003 ****        -0.2500  14.7500  36.7500 Du        
  10004 ****        -0.2500  14.7500  37.0000 Du        
  10005 ****        -0.2500  14.7500  37.2500 Du        
  10006 ****        -0.2500  14.7500  37.5000 Du        
  10007 ****        -0.2500  14.7500  37.7500 Du        
  10008 ****        -0.2500  14.7500  38.0000 Du        
  10009 ****        -0.2500  14.7500  38.2500 Du        
  10010 ****        -0.2500  15.0000  36.7500 Du        
  10011 ****        -0.2500  15.0000  37.0000 Du        
  10012 ****        -0.2500  15.0000  37.2500 Du        
  10013 ****        -0.2500  15.0000  37.5000 Du        
  10014 ****        -0.2500  15.0000  37.7500 Du        
  10015 ****        -0.2500  15.0000  38.0000 Du        
  10016 ****        -0.2500  15.0000  38.2500 Du        
  10017 ****         0.0000  -4.0000   7.0000 Du        
  10018 ****         0.0000  -4.0000   7.2500 Du        
  10019 ****         0.0000  -4.0000   7.5000 Du        
  10020 ****         0.0000  -4.0000   7.7500 Du        
  10021 ****         0.0000  -4.0000   8.0000 Du        
  10022 ****         0.0000  -4.0000  13.2500 Du        
  10023 ****         0.0000  -4.0000  13.5000 Du        
  10024 ****         0.0000  -4.0000  13.7500 Du        
  10025 ****         0.0000  -4.0000  14.0000 Du        
  10026 ****         0.0000  -4.0000  14.2500 Du        
  10027 ****         0.0000  -4.0000  14.5000 Du        
  10028 ****         0.0000  -4.0000  14.7500 Du        
  10029 ****         0.0000  -4.0000  15.0000 Du        
  10030 ****         0.0000  -4.0000  15.2500 Du        
  10031 ****         0.0000  -4.0000  15.5000 Du        
  10032 ****         0.0000  -4.0000  15.7500 Du        
  10033 ****         0.0000  -4.0000  16.0000 Du        
  10034 ****         0.0000  -3.7500   6.7500 Du        
  10035 ****         0.0000  -3.7500   7.0000 Du        
  10036 ****         0.0000  -3.7500   7.2500 Du        
  10037 ****         0.0000  -3.7500   7.5000 Du        
  10038 ****         0.0000  -3.7500   7.7500 Du        
  10039 ****         0.0000  -3.7500   8.0000 Du        
  10040 ****         0.0000  -3.7500   8.2500 Du        
  10041 ****         0.0000  -3.7500  12.5000 Du        
  10042 ****         0.0000  -3.7500  12.7500 Du        
  10043 ****         0.0000  -3.7500  13.0000 Du        
  10044 ****         0.0000  -3.7500  13.2500 Du        
  10045 ****         0.0000  -3.7500  13.5000 Du        
  10046 ****         0.0000  -3.7500  13.7500 Du        
  10047 ****         0.0000  -3.7500  14.0000 Du        
  10048 ****         0.0000  -3.7500  14.2500 Du        
  10049 ****         0.0000  -3.7500  14.5000 Du        
  10050 ****         0.0000  -3.7500  14.7500 Du        
  10051 ****         0.0000  -3.7500  15.0000 Du        
  10052 ****         0.0000  -3.7500  15.2500 Du        
  10053 ****         0.0000  -3.7500  15.5000 Du        
  10054 ****         0.0000  -3.7500  15.7500 Du        
  10055 ****         0.0000  -3.5000   7.0000 Du        
  10056 ****         0.0000  -3.5000   7.2500 Du        
  10057 ****         0.0000  -3.5000   7.5000 Du        
  10058 ****         0.0000  -3.5000   7.7500 Du        
  10059 ****         0.0000  -3.5000   8.0000 Du        
  10060 ****         0.0000  -3.5000   8.2500 Du        
  10061 ****         0.0000  -3.5000   8.5000 Du        
  10062 ****         0.0000  -3.5000   8.7500 Du        
  10063 ****         0.0000  -3.5000   9.0000 Du        
  10064 ****         0.0000  -3.5000   9.2500 Du        
  10065 ****         0.0000  -3.5000  12.7500 Du        
  10066 ****         0.0000  -3.5000  13.0000 Du        
  10067 ****         0.0000  -3.5000  13.2500 Du        
  10068 ****         0.0000  -3.5000  13.5000 Du        
  10069 ****         0.0000  -3.5000  13.7500 Du        
  10070 ****         0.0000  -3.5000  14.0000 Du        
  10071 ****         0.0000  -3.5000  14.2500 Du        
  10072 ****         0.0000  -3.5000  14.5000 Du        
  10073 ****         0.0000  -3.5000  14.7500 Du        
  10074 ****         0.0000  -3.5000  15.0000 Du        
  10075 ****         0.0000  -3.5000  15.2500 Du        
  10076 ****         0.0000  -3.2500   6.7500 Du        
  10077 ****         0.0000  -3.2500   7.0000 Du        
  10078 ****         0.0000  -3.2500   7.2500 Du        
  10079 ****         0.0000  -3.2500   7.5000 Du        
  10080 ****         0.0000  -3.2500   7.7500 Du        
  10081 ****         0.0000  -3.2500   8.0000 Du        
  10082 ****         0.0000  -3.2500   8.2500 Du        
  10083 ****         0.0000  -3.2500   8.5000 Du        
  10084 ****         0.0000  -3.2500   8.7500 Du        
  10085 ****         0.0000  -3.2500   9.0000 Du        
  10086 ****         0.0000  -3.2500   9.2500 Du        
  10087 ****         0.0000  -3.2500   9.5000 Du        
  10088 ****         0.0000  -3.2500   9.7500 Du        
  10089 ****         0.0000  -3.2500  10.0000 Du        
  10090 ****         0.0000  -3.2500  13.0000 Du        
  10091 ****         0.0000  -3.2500  13.2500 Du        
  10092 ****         0.0000  -3.2500  13.7500 Du        
  10093 ****         0.0000  -3.2500  14.0000 Du        
  10094 ****         0.0000  -3.2500  14.7500 Du        
  10095 ****         0.0000  -3.2500  15.0000 Du        
  10096 ****         0.0000  -3.0000   6.7500 Du        
  10097 ****         0.0000  -3.0000   7.0000 Du        
  10098 ****         0.0000  -3.0000   7.2500 Du        
  10099 ****         0.0000  -3.0000   7.7500 Du        
  10100 ****         0.0000  -3.0000   8.0000 Du        
  10101 ****         0.0000  -3.0000   8.2500 Du        
  10102 ****         0.0000  -3.0000   8.5000 Du        
  10103 ****         0.0000  -3.0000   8.7500 Du        
  10104 ****         0.0000  -3.0000   9.0000 Du        
  10105 ****         0.0000  -3.0000   9.2500 Du        
  10106 ****         0.0000  -3.0000   9.5000 Du        
  10107 ****         0.0000  -3.0000   9.7500 Du        
  10108 ****         0.0000  -3.0000  13.2500 Du        
  10109 ****         0.0000  -3.0000  14.0000 Du        
  10110 ****         0.0000  -2.7500   8.0000 Du        
  10111 ****         0.0000  -2.7500   8.2500 Du        
  10112 ****         0.0000  -2.7500   8.7500 Du        
  10113 ****         0.0000  -2.7500   9.0000 Du        
  10114 ****         0.0000  -2.7500   9.2500 Du        
  10115 ****         0.0000   1.0000  40.0000 Du        
  10116 ****         0.0000   1.0000  40.2500 Du        
  10117 ****         0.0000   1.0000  40.5000 Du        
  10118 ****         0.0000   1.2500  40.2500 Du        
  10119 ****         0.0000   1.2500  40.5000 Du        
  10120 ****         0.0000   2.5000  45.5000 Du        
  10121 ****         0.0000   2.5000  45.7500 Du        
  10122 ****         0.0000   2.7500  45.7500 Du        
  10123 ****         0.0000   3.0000  46.0000 Du        
  10124 ****         0.0000   3.0000  46.2500 Du        
  10125 ****         0.0000   3.2500  46.2500 Du        
  10126 ****         0.0000   5.2500  19.0000 Du        
  10127 ****         0.0000   5.5000  18.5000 Du        
  10128 ****         0.0000   5.5000  18.7500 Du        
  10129 ****         0.0000   5.5000  19.0000 Du        
  10130 ****         0.0000   5.5000  19.2500 Du        
  10131 ****         0.0000   5.5000  19.5000 Du        
  10132 ****         0.0000   5.7500  18.5000 Du        
  10133 ****         0.0000   5.7500  18.7500 Du        
  10134 ****         0.0000   5.7500  19.0000 Du        
  10135 ****         0.0000   5.7500  19.2500 Du        
  10136 ****         0.0000   5.7500  19.5000 Du        
  10137 ****         0.0000   5.7500  19.7500 Du        
  10138 ****         0.0000   5.7500  20.0000 Du        
  10139 ****         0.0000   6.0000  18.2500 Du        
  10140 ****         0.0000   6.0000  18.5000 Du        
  10141 ****         0.0000   6.0000  18.7500 Du        
  10142 ****         0.0000   6.0000  19.0000 Du        
  10143 ****         0.0000   6.0000  19.2500 Du        
  10144 ****         0.0000   6.0000  19.5000 Du        
  10145 ****         0.0000   6.0000  19.7500 Du        
  10146 ****         0.0000   6.0000  20.0000 Du        
  10147 ****         0.0000   6.0000  20.2500 Du        
  10148 ****         0.0000   6.2500  18.2500 Du        
  10149 ****         0.0000   6.2500  18.5000 Du        
  10150 ****         0.0000   6.2500  18.7500 Du        
  10151 ****         0.0000   6.2500  19.0000 Du        
  10152 ****         0.0000   6.2500  19.2500 Du        
  10153 ****         0.0000   6.2500  19.5000 Du        
  10154 ****         0.0000   6.2500  19.7500 Du        
  10155 ****         0.0000   6.2500  20.0000 Du        
  10156 ****         0.0000   6.2500  20.2500 Du        
  10157 ****         0.0000   6.5000  18.0000 Du        
  10158 ****         0.0000   6.5000  18.2500 Du        
  10159 ****         0.0000   6.5000  18.5000 Du        
  10160 ****         0.0000   6.5000  18.7500 Du        
  10161 ****         0.0000   6.5000  19.0000 Du        
  10162 ****         0.0000   6.5000  19.2500 Du        
  10163 ****         0.0000   6.5000  19.5000 Du        
  10164 ****         0.0000   6.5000  19.7500 Du        
  10165 ****         0.0000   6.5000  20.0000 Du        
  10166 ****         0.0000   6.5000  20.2500 Du        
  10167 ****         0.0000   6.5000  20.5000 Du        
  10168 ****         0.0000   6.7500  18.0000 Du        
  10169 ****         0.0000   6.7500  18.2500 Du        
  10170 ****         0.0000   6.7500  18.5000 Du        
  10171 ****         0.0000   6.7500  18.7500 Du        
  10172 ****         0.0000   6.7500  19.0000 Du        
  10173 ****         0.0000   6.7500  19.2500 Du        
  10174 ****         0.0000   6.7500  19.5000 Du        
  10175 ****         0.0000   6.7500  19.7500 Du        
  10176 ****         0.0000   6.7500  20.0000 Du        
  10177 ****         0.0000   6.7500  20.2500 Du        
  10178 ****         0.0000   7.0000  17.7500 Du        
  10179 ****         0.0000   7.0000  18.0000 Du        
  10180 ****         0.0000   7.0000  18.2500 Du        
  10181 ****         0.0000   7.0000  18.5000 Du        
  10182 ****         0.0000   7.0000  18.7500 Du        
  10183 ****         0.0000   7.0000  19.0000 Du        
  10184 ****         0.0000   7.0000  19.2500 Du        
  10185 ****         0.0000   7.0000  19.5000 Du        
  10186 ****         0.0000   7.0000  19.7500 Du        
  10187 ****         0.0000   7.2500  17.7500 Du        
  10188 ****         0.0000   7.2500  18.0000 Du        
  10189 ****         0.0000   7.2500  18.2500 Du        
  10190 ****         0.0000   7.2500  18.5000 Du        
  10191 ****         0.0000   7.2500  18.7500 Du        
  10192 ****         0.0000   7.2500  19.0000 Du        
  10193 ****         0.0000   7.2500  19.2500 Du        
  10194 ****         0.0000   7.5000  17.5000 Du        
  10195 ****         0.0000   7.5000  17.7500 Du        
  10196 ****         0.0000   7.5000  18.0000 Du        
  10197 ****         0.0000   7.5000  18.2500 Du        
  10198 ****         0.0000   7.5000  18.5000 Du        
  10199 ****         0.0000   7.5000  18.7500 Du        
  10200 ****         0.0000   7.7500  17.5000 Du        
  10201 ****         0.0000   7.7500  17.7500 Du        
  10202 ****         0.0000   7.7500  18.0000 Du        
  10203 ****         0.0000   7.7500  18.2500 Du        
  10204 ****         0.0000   8.0000  17.5000 Du        
  10205 ****         0.0000   8.0000  17.7500 Du        
  10206 ****         0.0000   8.0000  18.0000 Du        
  10207 ****         0.0000   8.0000  18.2500 Du        
  10208 ****         0.0000   8.2500  17.5000 Du        
  10209 ****         0.0000   8.2500  17.7500 Du        
  10210 ****         0.0000  11.0000  10.0000 Du        
  10211 ****         0.0000  11.0000  10.2500 Du        
  10212 ****         0.0000  11.0000  10.5000 Du        
  10213 ****         0.0000  11.0000  10.7500 Du        
  10214 ****         0.0000  11.2500   9.7500 Du        
  10215 ****         0.0000  11.2500  10.0000 Du        
  10216 ****         0.0000  11.2500  10.2500 Du        
  10217 ****         0.0000  11.2500  10.5000 Du        
  10218 ****         0.0000  11.2500  10.7500 Du        
  10219 ****         0.0000  11.5000   8.7500 Du        
  10220 ****         0.0000  11.5000   9.0000 Du        
  10221 ****         0.0000  11.5000   9.2500 Du        
  10222 ****         0.0000  11.5000   9.5000 Du        
  10223 ****         0.0000  11.5000   9.7500 Du        
  10224 ****         0.0000  11.5000  10.0000 Du        
  10225 ****         0.0000  11.5000  10.2500 Du        
  10226 ****         0.0000  11.5000  10.5000 Du        
  10227 ****         0.0000  11.5000  10.7500 Du        
  10228 ****         0.0000  11.7500   8.5000 Du        
  10229 ****         0.0000  11.7500   8.7500 Du        
  10230 ****         0.0000  11.7500   9.0000 Du        
  10231 ****         0.0000  11.7500   9.2500 Du        
  10232 ****         0.0000  11.7500   9.5000 Du        
  10233 ****         0.0000  11.7500   9.7500 Du        
  10234 ****         0.0000  11.7500  10.0000 Du        
  10235 ****         0.0000  11.7500  10.2500 Du        
  10236 ****         0.0000  11.7500  10.5000 Du        
  10237 ****         0.0000  11.7500  10.7500 Du        
  10238 ****         0.0000  11.7500  11.0000 Du        
  10239 ****         0.0000  12.0000   8.2500 Du        
  10240 ****         0.0000  12.0000   8.5000 Du        
  10241 ****         0.0000  12.0000   8.7500 Du        
  10242 ****         0.0000  12.0000   9.0000 Du        
  10243 ****         0.0000  12.0000   9.2500 Du        
  10244 ****         0.0000  12.0000   9.5000 Du        
  10245 ****         0.0000  12.0000   9.7500 Du        
  10246 ****         0.0000  12.0000  10.0000 Du        
  10247 ****         0.0000  12.0000  10.2500 Du        
  10248 ****         0.0000  12.0000  10.5000 Du        
  10249 ****         0.0000  12.0000  10.7500 Du        
  10250 ****         0.0000  12.0000  11.0000 Du        
  10251 ****         0.0000  12.2500   8.5000 Du        
  10252 ****         0.0000  12.2500   8.7500 Du        
  10253 ****         0.0000  12.2500   9.0000 Du        
  10254 ****         0.0000  12.2500   9.2500 Du        
  10255 ****         0.0000  12.2500   9.5000 Du        
  10256 ****         0.0000  12.2500   9.7500 Du        
  10257 ****         0.0000  12.2500  10.0000 Du        
  10258 ****         0.0000  12.2500  10.2500 Du        
  10259 ****         0.0000  12.2500  10.5000 Du        
  10260 ****         0.0000  12.2500  10.7500 Du        
  10261 ****         0.0000  12.2500  11.0000 Du        
  10262 ****         0.0000  12.5000   8.5000 Du        
  10263 ****         0.0000  12.5000   8.7500 Du        
  10264 ****         0.0000  12.5000   9.0000 Du        
  10265 ****         0.0000  12.5000   9.2500 Du        
  10266 ****         0.0000  12.5000   9.5000 Du        
  10267 ****         0.0000  12.5000   9.7500 Du        
  10268 ****         0.0000  12.5000  10.0000 Du        
  10269 ****         0.0000  12.5000  10.2500 Du        
  10270 ****         0.0000  12.5000  10.5000 Du        
  10271 ****         0.0000  12.5000  10.7500 Du        
  10272 ****         0.0000  12.5000  11.0000 Du        
  10273 ****         0.0000  12.7500   8.7500 Du        
  10274 ****         0.0000  12.7500   9.0000 Du        
  10275 ****         0.0000  12.7500   9.2500 Du        
  10276 ****         0.0000  12.7500   9.5000 Du        
  10277 ****         0.0000  12.7500   9.7500 Du        
  10278 ****         0.0000  12.7500  10.0000 Du        
  10279 ****         0.0000  12.7500  10.2500 Du        
  10280 ****         0.0000  12.7500  10.5000 Du        
  10281 ****         0.0000  12.7500  10.7500 Du        
  10282 ****         0.0000  12.7500  11.0000 Du        
  10283 ****         0.0000  13.0000   2.0000 Du        
  10284 ****         0.0000  13.0000   2.2500 Du        
  10285 ****         0.0000  13.0000   2.5000 Du        
  10286 ****         0.0000  13.0000   2.7500 Du        
  10287 ****         0.0000  13.0000   9.2500 Du        
  10288 ****         0.0000  13.0000   9.5000 Du        
  10289 ****         0.0000  13.0000   9.7500 Du        
  10290 ****         0.0000  13.0000  10.0000 Du        
  10291 ****         0.0000  13.0000  10.2500 Du        
  10292 ****         0.0000  13.0000  10.5000 Du        
  10293 ****         0.0000  13.2500   0.7500 Du        
  10294 ****         0.0000  13.2500   1.5000 Du        
  10295 ****         0.0000  13.2500   1.7500 Du        
  10296 ****         0.0000  13.2500   2.0000 Du        
  10297 ****         0.0000  13.2500   2.2500 Du        
  10298 ****         0.0000  13.2500   2.5000 Du        
  10299 ****         0.0000  13.2500   2.7500 Du        
  10300 ****         0.0000  13.5000   0.5000 Du        
  10301 ****         0.0000  13.5000   0.7500 Du        
  10302 ****         0.0000  13.5000   1.0000 Du        
  10303 ****         0.0000  13.5000   1.2500 Du        
  10304 ****         0.0000  13.5000   1.5000 Du        
  10305 ****         0.0000  13.5000   1.7500 Du        
  10306 ****         0.0000  13.5000   2.0000 Du        
  10307 ****         0.0000  13.5000   2.2500 Du        
  10308 ****         0.0000  13.5000   2.5000 Du        
  10309 ****         0.0000  13.5000   2.7500 Du        
  10310 ****         0.0000  13.7500   0.5000 Du        
  10311 ****         0.0000  13.7500   0.7500 Du        
  10312 ****         0.0000  13.7500   1.0000 Du        
  10313 ****         0.0000  13.7500   1.2500 Du        
  10314 ****         0.0000  13.7500   2.0000 Du        
  10315 ****         0.0000  14.0000   0.5000 Du        
  10316 ****         0.0000  14.0000  37.0000 Du        
  10317 ****         0.0000  14.0000  37.2500 Du        
  10318 ****         0.0000  14.2500  36.7500 Du        
  10319 ****         0.0000  14.2500  37.0000 Du        
  10320 ****         0.0000  14.2500  37.2500 Du        
  10321 ****         0.0000  14.2500  37.5000 Du        
  10322 ****         0.0000  14.5000  36.5000 Du        
  10323 ****         0.0000  14.5000  36.7500 Du        
  10324 ****         0.0000  14.5000  37.0000 Du        
  10325 ****         0.0000  14.5000  37.2500 Du        
  10326 ****         0.0000  14.5000  37.5000 Du        
  10327 ****         0.0000  14.5000  37.7500 Du        
  10328 ****         0.0000  14.5000  38.0000 Du        
  10329 ****         0.0000  14.5000  38.2500 Du        
  10330 ****         0.0000  14.7500  36.2500 Du        
  10331 ****         0.0000  14.7500  36.5000 Du        
  10332 ****         0.0000  14.7500  36.7500 Du        
  10333 ****         0.0000  14.7500  37.0000 Du        
  10334 ****         0.0000  14.7500  37.2500 Du        
  10335 ****         0.0000  14.7500  37.5000 Du        
  10336 ****         0.0000  14.7500  37.7500 Du        
  10337 ****         0.0000  14.7500  38.0000 Du        
  10338 ****         0.0000  14.7500  38.2500 Du        
  10339 ****         0.0000  14.7500  38.7500 Du        
  10340 ****         0.0000  15.0000  36.2500 Du        
  10341 ****         0.0000  15.0000  36.5000 Du        
  10342 ****         0.0000  15.0000  36.7500 Du        
  10343 ****         0.0000  15.0000  37.0000 Du        
  10344 ****         0.0000  15.0000  37.2500 Du        
  10345 ****         0.0000  15.0000  37.5000 Du        
  10346 ****         0.0000  15.0000  37.7500 Du        
  10347 ****         0.0000  15.0000  38.0000 Du        
  10348 ****         0.0000  15.0000  38.2500 Du        
  10349 ****         0.0000  15.2500  36.7500 Du        
  10350 ****         0.0000  15.2500  37.0000 Du        
  10351 ****         0.0000  15.2500  37.2500 Du        
  10352 ****         0.2500  -4.0000   7.2500 Du        
  10353 ****         0.2500  -4.0000   7.5000 Du        
  10354 ****         0.2500  -4.0000   7.7500 Du        
  10355 ****         0.2500  -4.0000   8.0000 Du        
  10356 ****         0.2500  -4.0000  13.7500 Du        
  10357 ****         0.2500  -4.0000  14.0000 Du        
  10358 ****         0.2500  -4.0000  14.2500 Du        
  10359 ****         0.2500  -4.0000  14.5000 Du        
  10360 ****         0.2500  -4.0000  14.7500 Du        
  10361 ****         0.2500  -4.0000  15.0000 Du        
  10362 ****         0.2500  -4.0000  15.2500 Du        
  10363 ****         0.2500  -4.0000  15.5000 Du        
  10364 ****         0.2500  -4.0000  15.7500 Du        
  10365 ****         0.2500  -4.0000  16.0000 Du        
  10366 ****         0.2500  -3.7500   7.0000 Du        
  10367 ****         0.2500  -3.7500   7.2500 Du        
  10368 ****         0.2500  -3.7500   7.5000 Du        
  10369 ****         0.2500  -3.7500   7.7500 Du        
  10370 ****         0.2500  -3.7500   8.0000 Du        
  10371 ****         0.2500  -3.7500   8.2500 Du        
  10372 ****         0.2500  -3.7500  13.0000 Du        
  10373 ****         0.2500  -3.7500  13.2500 Du        
  10374 ****         0.2500  -3.7500  13.5000 Du        
  10375 ****         0.2500  -3.7500  13.7500 Du        
  10376 ****         0.2500  -3.7500  14.0000 Du        
  10377 ****         0.2500  -3.7500  14.2500 Du        
  10378 ****         0.2500  -3.7500  14.5000 Du        
  10379 ****         0.2500  -3.7500  14.7500 Du        
  10380 ****         0.2500  -3.7500  15.0000 Du        
  10381 ****         0.2500  -3.7500  15.2500 Du        
  10382 ****         0.2500  -3.7500  15.5000 Du        
  10383 ****         0.2500  -3.7500  15.7500 Du        
  10384 ****         0.2500  -3.7500  16.0000 Du        
  10385 ****         0.2500  -3.5000   7.0000 Du        
  10386 ****         0.2500  -3.5000   7.2500 Du        
  10387 ****         0.2500  -3.5000   7.5000 Du        
  10388 ****         0.2500  -3.5000   7.7500 Du        
  10389 ****         0.2500  -3.5000   8.0000 Du        
  10390 ****         0.2500  -3.5000   8.5000 Du        
  10391 ****         0.2500  -3.5000   8.7500 Du        
  10392 ****         0.2500  -3.5000   9.0000 Du        
  10393 ****         0.2500  -3.5000   9.7500 Du        
  10394 ****         0.2500  -3.5000  10.0000 Du        
  10395 ****         0.2500  -3.5000  10.2500 Du        
  10396 ****         0.2500  -3.5000  10.5000 Du        
  10397 ****         0.2500  -3.5000  14.5000 Du        
  10398 ****         0.2500  -3.2500   7.2500 Du        
  10399 ****         0.2500  -3.2500   7.5000 Du        
  10400 ****         0.2500  -3.2500   7.7500 Du        
  10401 ****         0.2500  -3.2500   8.0000 Du        
  10402 ****         0.2500  -3.2500   8.2500 Du        
  10403 ****         0.2500  -3.2500   8.5000 Du        
  10404 ****         0.2500  -3.2500   8.7500 Du        
  10405 ****         0.2500  -3.2500   9.0000 Du        
  10406 ****         0.2500  -3.2500   9.2500 Du        
  10407 ****         0.2500  -3.2500   9.5000 Du        
  10408 ****         0.2500  -3.2500   9.7500 Du        
  10409 ****         0.2500  -3.2500  10.0000 Du        
  10410 ****         0.2500  -3.2500  10.2500 Du        
  10411 ****         0.2500  -3.2500  10.5000 Du        
  10412 ****         0.2500  -3.2500  13.0000 Du        
  10413 ****         0.2500  -3.0000   8.0000 Du        
  10414 ****         0.2500  -3.0000   8.5000 Du        
  10415 ****         0.2500  -3.0000   8.7500 Du        
  10416 ****         0.2500  -3.0000   9.0000 Du        
  10417 ****         0.2500  -3.0000   9.2500 Du        
  10418 ****         0.2500  -3.0000   9.5000 Du        
  10419 ****         0.2500  -3.0000   9.7500 Du        
  10420 ****         0.2500  -3.0000  10.0000 Du        
  10421 ****         0.2500  -3.0000  10.2500 Du        
  10422 ****         0.2500  -2.7500   8.7500 Du        
  10423 ****         0.2500  -2.7500   9.0000 Du        
  10424 ****         0.2500   1.0000  40.2500 Du        
  10425 ****         0.2500   1.0000  40.5000 Du        
  10426 ****         0.2500   1.0000  40.7500 Du        
  10427 ****         0.2500   1.2500  40.2500 Du        
  10428 ****         0.2500   1.2500  40.5000 Du        
  10429 ****         0.2500   1.2500  40.7500 Du        
  10430 ****         0.2500   2.5000  45.7500 Du        
  10431 ****         0.2500   2.7500  45.2500 Du        
  10432 ****         0.2500   2.7500  45.5000 Du        
  10433 ****         0.2500   2.7500  45.7500 Du        
  10434 ****         0.2500   3.0000  45.5000 Du        
  10435 ****         0.2500   3.0000  45.7500 Du        
  10436 ****         0.2500   3.0000  46.0000 Du        
  10437 ****         0.2500   3.0000  46.2500 Du        
  10438 ****         0.2500   3.2500  46.0000 Du        
  10439 ****         0.2500   3.2500  46.2500 Du        
  10440 ****         0.2500   5.5000  18.5000 Du        
  10441 ****         0.2500   5.5000  18.7500 Du        
  10442 ****         0.2500   5.5000  19.0000 Du        
  10443 ****         0.2500   5.5000  19.2500 Du        
  10444 ****         0.2500   5.7500  18.2500 Du        
  10445 ****         0.2500   5.7500  18.5000 Du        
  10446 ****         0.2500   5.7500  18.7500 Du        
  10447 ****         0.2500   5.7500  19.0000 Du        
  10448 ****         0.2500   5.7500  19.2500 Du        
  10449 ****         0.2500   5.7500  19.7500 Du        
  10450 ****         0.2500   6.0000  18.2500 Du        
  10451 ****         0.2500   6.0000  18.5000 Du        
  10452 ****         0.2500   6.0000  18.7500 Du        
  10453 ****         0.2500   6.0000  19.0000 Du        
  10454 ****         0.2500   6.0000  19.2500 Du        
  10455 ****         0.2500   6.0000  19.5000 Du        
  10456 ****         0.2500   6.0000  19.7500 Du        
  10457 ****         0.2500   6.0000  20.0000 Du        
  10458 ****         0.2500   6.0000  20.2500 Du        
  10459 ****         0.2500   6.2500  18.0000 Du        
  10460 ****         0.2500   6.2500  18.2500 Du        
  10461 ****         0.2500   6.2500  18.5000 Du        
  10462 ****         0.2500   6.2500  18.7500 Du        
  10463 ****         0.2500   6.2500  19.0000 Du        
  10464 ****         0.2500   6.2500  19.2500 Du        
  10465 ****         0.2500   6.2500  19.5000 Du        
  10466 ****         0.2500   6.2500  19.7500 Du        
  10467 ****         0.2500   6.2500  20.0000 Du        
  10468 ****         0.2500   6.2500  20.2500 Du        
  10469 ****         0.2500   6.5000  18.0000 Du        
  10470 ****         0.2500   6.5000  18.2500 Du        
  10471 ****         0.2500   6.5000  18.5000 Du        
  10472 ****         0.2500   6.5000  18.7500 Du        
  10473 ****         0.2500   6.5000  19.0000 Du        
  10474 ****         0.2500   6.5000  19.2500 Du        
  10475 ****         0.2500   6.5000  19.5000 Du        
  10476 ****         0.2500   6.5000  19.7500 Du        
  10477 ****         0.2500   6.5000  20.0000 Du        
  10478 ****         0.2500   6.5000  20.2500 Du        
  10479 ****         0.2500   6.7500  17.7500 Du        
  10480 ****         0.2500   6.7500  18.0000 Du        
  10481 ****         0.2500   6.7500  18.2500 Du        
  10482 ****         0.2500   6.7500  18.5000 Du        
  10483 ****         0.2500   6.7500  18.7500 Du        
  10484 ****         0.2500   6.7500  19.0000 Du        
  10485 ****         0.2500   6.7500  19.2500 Du        
  10486 ****         0.2500   6.7500  19.5000 Du        
  10487 ****         0.2500   6.7500  19.7500 Du        
  10488 ****         0.2500   6.7500  20.0000 Du        
  10489 ****         0.2500   6.7500  20.2500 Du        
  10490 ****         0.2500   7.0000  17.7500 Du        
  10491 ****         0.2500   7.0000  18.0000 Du        
  10492 ****         0.2500   7.0000  18.2500 Du        
  10493 ****         0.2500   7.0000  18.5000 Du        
  10494 ****         0.2500   7.0000  18.7500 Du        
  10495 ****         0.2500   7.0000  19.0000 Du        
  10496 ****         0.2500   7.0000  19.2500 Du        
  10497 ****         0.2500   7.0000  19.5000 Du        
  10498 ****         0.2500   7.2500  17.7500 Du        
  10499 ****         0.2500   7.2500  18.0000 Du        
  10500 ****         0.2500   7.2500  18.2500 Du        
  10501 ****         0.2500   7.2500  18.5000 Du        
  10502 ****         0.2500   7.2500  18.7500 Du        
  10503 ****         0.2500   7.2500  19.0000 Du        
  10504 ****         0.2500   7.5000  17.5000 Du        
  10505 ****         0.2500   7.5000  17.7500 Du        
  10506 ****         0.2500   7.5000  18.0000 Du        
  10507 ****         0.2500   7.5000  18.2500 Du        
  10508 ****         0.2500   7.5000  18.5000 Du        
  10509 ****         0.2500   7.5000  18.7500 Du        
  10510 ****         0.2500   7.5000  22.7500 Du        
  10511 ****         0.2500   7.5000  23.0000 Du        
  10512 ****         0.2500   7.7500  17.5000 Du        
  10513 ****         0.2500   7.7500  17.7500 Du        
  10514 ****         0.2500   7.7500  18.0000 Du        
  10515 ****         0.2500   7.7500  18.2500 Du        
  10516 ****         0.2500   7.7500  18.5000 Du        
  10517 ****         0.2500   8.0000  17.5000 Du        
  10518 ****         0.2500   8.0000  17.7500 Du        
  10519 ****         0.2500   8.0000  18.0000 Du        
  10520 ****         0.2500   8.0000  18.2500 Du        
  10521 ****         0.2500   8.2500  17.5000 Du        
  10522 ****         0.2500   8.2500  17.7500 Du        
  10523 ****         0.2500   8.2500  18.0000 Du        
  10524 ****         0.2500   8.5000  17.5000 Du        
  10525 ****         0.2500  11.0000  10.5000 Du        
  10526 ****         0.2500  11.0000  10.7500 Du        
  10527 ****         0.2500  11.2500  10.0000 Du        
  10528 ****         0.2500  11.2500  10.2500 Du        
  10529 ****         0.2500  11.2500  10.5000 Du        
  10530 ****         0.2500  11.2500  10.7500 Du        
  10531 ****         0.2500  11.5000   9.0000 Du        
  10532 ****         0.2500  11.5000   9.2500 Du        
  10533 ****         0.2500  11.5000   9.5000 Du        
  10534 ****         0.2500  11.5000   9.7500 Du        
  10535 ****         0.2500  11.5000  10.0000 Du        
  10536 ****         0.2500  11.5000  10.2500 Du        
  10537 ****         0.2500  11.5000  10.5000 Du        
  10538 ****         0.2500  11.5000  10.7500 Du        
  10539 ****         0.2500  11.7500   8.5000 Du        
  10540 ****         0.2500  11.7500   8.7500 Du        
  10541 ****         0.2500  11.7500   9.0000 Du        
  10542 ****         0.2500  11.7500   9.2500 Du        
  10543 ****         0.2500  11.7500   9.5000 Du        
  10544 ****         0.2500  11.7500   9.7500 Du        
  10545 ****         0.2500  11.7500  10.0000 Du        
  10546 ****         0.2500  11.7500  10.2500 Du        
  10547 ****         0.2500  11.7500  10.5000 Du        
  10548 ****         0.2500  11.7500  10.7500 Du        
  10549 ****         0.2500  12.0000   8.5000 Du        
  10550 ****         0.2500  12.0000   8.7500 Du        
  10551 ****         0.2500  12.0000   9.0000 Du        
  10552 ****         0.2500  12.0000   9.2500 Du        
  10553 ****         0.2500  12.0000   9.5000 Du        
  10554 ****         0.2500  12.0000   9.7500 Du        
  10555 ****         0.2500  12.0000  10.0000 Du        
  10556 ****         0.2500  12.0000  10.2500 Du        
  10557 ****         0.2500  12.0000  10.5000 Du        
  10558 ****         0.2500  12.0000  10.7500 Du        
  10559 ****         0.2500  12.2500   8.5000 Du        
  10560 ****         0.2500  12.2500   8.7500 Du        
  10561 ****         0.2500  12.2500   9.0000 Du        
  10562 ****         0.2500  12.2500   9.2500 Du        
  10563 ****         0.2500  12.2500   9.5000 Du        
  10564 ****         0.2500  12.2500   9.7500 Du        
  10565 ****         0.2500  12.2500  10.0000 Du        
  10566 ****         0.2500  12.2500  10.2500 Du        
  10567 ****         0.2500  12.2500  10.5000 Du        
  10568 ****         0.2500  12.2500  10.7500 Du        
  10569 ****         0.2500  12.5000   8.5000 Du        
  10570 ****         0.2500  12.5000   8.7500 Du        
  10571 ****         0.2500  12.5000   9.0000 Du        
  10572 ****         0.2500  12.5000   9.2500 Du        
  10573 ****         0.2500  12.5000   9.5000 Du        
  10574 ****         0.2500  12.5000   9.7500 Du        
  10575 ****         0.2500  12.5000  10.0000 Du        
  10576 ****         0.2500  12.5000  10.2500 Du        
  10577 ****         0.2500  12.5000  10.5000 Du        
  10578 ****         0.2500  12.5000  10.7500 Du        
  10579 ****         0.2500  12.7500   9.0000 Du        
  10580 ****         0.2500  12.7500   9.2500 Du        
  10581 ****         0.2500  12.7500   9.5000 Du        
  10582 ****         0.2500  12.7500   9.7500 Du        
  10583 ****         0.2500  12.7500  10.0000 Du        
  10584 ****         0.2500  12.7500  10.2500 Du        
  10585 ****         0.2500  13.0000   2.0000 Du        
  10586 ****         0.2500  13.0000   3.0000 Du        
  10587 ****         0.2500  13.0000   9.5000 Du        
  10588 ****         0.2500  13.2500   0.7500 Du        
  10589 ****         0.2500  13.2500   1.0000 Du        
  10590 ****         0.2500  13.2500   1.7500 Du        
  10591 ****         0.2500  13.2500   2.0000 Du        
  10592 ****         0.2500  13.2500   2.2500 Du        
  10593 ****         0.2500  13.2500   2.5000 Du        
  10594 ****         0.2500  13.2500   2.7500 Du        
  10595 ****         0.2500  13.5000   0.7500 Du        
  10596 ****         0.2500  13.5000   1.0000 Du        
  10597 ****         0.2500  13.5000   1.2500 Du        
  10598 ****         0.2500  13.5000   1.5000 Du        
  10599 ****         0.2500  13.5000   1.7500 Du        
  10600 ****         0.2500  13.5000   2.0000 Du        
  10601 ****         0.2500  13.5000   2.2500 Du        
  10602 ****         0.2500  13.5000   2.5000 Du        
  10603 ****         0.2500  13.5000   2.7500 Du        
  10604 ****         0.2500  13.5000   3.0000 Du        
  10605 ****         0.2500  13.7500   0.2500 Du        
  10606 ****         0.2500  13.7500   0.5000 Du        
  10607 ****         0.2500  13.7500   0.7500 Du        
  10608 ****         0.2500  13.7500   1.0000 Du        
  10609 ****         0.2500  13.7500   1.2500 Du        
  10610 ****         0.2500  13.7500   1.7500 Du        
  10611 ****         0.2500  13.7500   2.0000 Du        
  10612 ****         0.2500  13.7500   2.2500 Du        
  10613 ****         0.2500  14.0000  -0.2500 Du        
  10614 ****         0.2500  14.0000   0.0000 Du        
  10615 ****         0.2500  14.0000   0.2500 Du        
  10616 ****         0.2500  14.0000   0.5000 Du        
  10617 ****         0.2500  14.0000   0.7500 Du        
  10618 ****         0.2500  14.0000   1.0000 Du        
  10619 ****         0.2500  14.0000  36.7500 Du        
  10620 ****         0.2500  14.0000  37.0000 Du        
  10621 ****         0.2500  14.0000  37.2500 Du        
  10622 ****         0.2500  14.0000  37.5000 Du        
  10623 ****         0.2500  14.2500  -0.2500 Du        
  10624 ****         0.2500  14.2500   0.0000 Du        
  10625 ****         0.2500  14.2500   0.5000 Du        
  10626 ****         0.2500  14.2500  36.5000 Du        
  10627 ****         0.2500  14.2500  36.7500 Du        
  10628 ****         0.2500  14.2500  37.0000 Du        
  10629 ****         0.2500  14.2500  37.2500 Du        
  10630 ****         0.2500  14.2500  37.5000 Du        
  10631 ****         0.2500  14.2500  37.7500 Du        
  10632 ****         0.2500  14.5000  36.2500 Du        
  10633 ****         0.2500  14.5000  36.5000 Du        
  10634 ****         0.2500  14.5000  36.7500 Du        
  10635 ****         0.2500  14.5000  37.0000 Du        
  10636 ****         0.2500  14.5000  37.2500 Du        
  10637 ****         0.2500  14.5000  37.5000 Du        
  10638 ****         0.2500  14.5000  37.7500 Du        
  10639 ****         0.2500  14.5000  38.0000 Du        
  10640 ****         0.2500  14.5000  38.2500 Du        
  10641 ****         0.2500  14.7500  36.0000 Du        
  10642 ****         0.2500  14.7500  36.2500 Du        
  10643 ****         0.2500  14.7500  36.5000 Du        
  10644 ****         0.2500  14.7500  36.7500 Du        
  10645 ****         0.2500  14.7500  37.0000 Du        
  10646 ****         0.2500  14.7500  37.2500 Du        
  10647 ****         0.2500  14.7500  37.5000 Du        
  10648 ****         0.2500  14.7500  37.7500 Du        
  10649 ****         0.2500  14.7500  38.0000 Du        
  10650 ****         0.2500  14.7500  38.2500 Du        
  10651 ****         0.2500  14.7500  38.5000 Du        
  10652 ****         0.2500  14.7500  38.7500 Du        
  10653 ****         0.2500  15.0000  36.0000 Du        
  10654 ****         0.2500  15.0000  36.2500 Du        
  10655 ****         0.2500  15.0000  36.5000 Du        
  10656 ****         0.2500  15.0000  36.7500 Du        
  10657 ****         0.2500  15.0000  37.0000 Du        
  10658 ****         0.2500  15.0000  37.2500 Du        
  10659 ****         0.2500  15.0000  37.5000 Du        
  10660 ****         0.2500  15.0000  37.7500 Du        
  10661 ****         0.2500  15.0000  38.0000 Du        
  10662 ****         0.2500  15.0000  38.2500 Du        
  10663 ****         0.2500  15.2500  36.0000 Du        
  10664 ****         0.2500  15.2500  36.2500 Du        
  10665 ****         0.2500  15.2500  36.5000 Du        
  10666 ****         0.2500  15.2500  36.7500 Du        
  10667 ****         0.2500  15.2500  37.0000 Du        
  10668 ****         0.2500  15.2500  37.2500 Du        
  10669 ****         0.2500  15.5000  35.7500 Du        
  10670 ****         0.2500  15.5000  36.0000 Du        
  10671 ****         0.2500  15.5000  36.2500 Du        
  10672 ****         0.5000  -4.0000   7.2500 Du        
  10673 ****         0.5000  -4.0000   7.5000 Du        
  10674 ****         0.5000  -4.0000  14.2500 Du        
  10675 ****         0.5000  -4.0000  14.5000 Du        
  10676 ****         0.5000  -4.0000  14.7500 Du        
  10677 ****         0.5000  -4.0000  15.0000 Du        
  10678 ****         0.5000  -4.0000  15.2500 Du        
  10679 ****         0.5000  -4.0000  15.5000 Du        
  10680 ****         0.5000  -4.0000  15.7500 Du        
  10681 ****         0.5000  -3.7500   7.2500 Du        
  10682 ****         0.5000  -3.7500   7.5000 Du        
  10683 ****         0.5000  -3.7500   7.7500 Du        
  10684 ****         0.5000  -3.7500   8.0000 Du        
  10685 ****         0.5000  -3.7500  14.2500 Du        
  10686 ****         0.5000  -3.7500  14.5000 Du        
  10687 ****         0.5000  -3.7500  14.7500 Du        
  10688 ****         0.5000  -3.7500  15.0000 Du        
  10689 ****         0.5000  -3.7500  15.2500 Du        
  10690 ****         0.5000  -3.5000   7.7500 Du        
  10691 ****         0.5000  -3.5000   8.0000 Du        
  10692 ****         0.5000  -3.5000   8.2500 Du        
  10693 ****         0.5000  -3.2500   8.0000 Du        
  10694 ****         0.5000  -3.2500   8.2500 Du        
  10695 ****         0.5000  -3.2500   9.0000 Du        
  10696 ****         0.5000  -3.2500   9.2500 Du        
  10697 ****         0.5000  -3.2500  10.0000 Du        
  10698 ****         0.5000  -3.2500  10.2500 Du        
  10699 ****         0.5000  -3.0000   9.0000 Du        
  10700 ****         0.5000  -3.0000  10.0000 Du        
  10701 ****         0.5000  -3.0000  10.2500 Du        
  10702 ****         0.5000   1.0000  40.5000 Du        
  10703 ****         0.5000   1.0000  40.7500 Du        
  10704 ****         0.5000   1.2500  40.5000 Du        
  10705 ****         0.5000   1.2500  40.7500 Du        
  10706 ****         0.5000   1.2500  41.0000 Du        
  10707 ****         0.5000   1.5000  40.7500 Du        
  10708 ****         0.5000   1.5000  41.0000 Du        
  10709 ****         0.5000   2.2500  42.2500 Du        
  10710 ****         0.5000   2.5000  42.7500 Du        
  10711 ****         0.5000   2.5000  45.5000 Du        
  10712 ****         0.5000   2.5000  45.7500 Du        
  10713 ****         0.5000   2.5000  46.0000 Du        
  10714 ****         0.5000   2.5000  46.2500 Du        
  10715 ****         0.5000   2.7500  44.7500 Du        
  10716 ****         0.5000   2.7500  45.0000 Du        
  10717 ****         0.5000   2.7500  45.2500 Du        
  10718 ****         0.5000   2.7500  45.5000 Du        
  10719 ****         0.5000   2.7500  45.7500 Du        
  10720 ****         0.5000   2.7500  46.0000 Du        
  10721 ****         0.5000   2.7500  46.2500 Du        
  10722 ****         0.5000   3.0000  45.0000 Du        
  10723 ****         0.5000   3.0000  45.2500 Du        
  10724 ****         0.5000   3.0000  45.5000 Du        
  10725 ****         0.5000   3.0000  45.7500 Du        
  10726 ****         0.5000   3.0000  46.0000 Du        
  10727 ****         0.5000   3.0000  46.2500 Du        
  10728 ****         0.5000   3.2500  45.7500 Du        
  10729 ****         0.5000   3.2500  46.0000 Du        
  10730 ****         0.5000   3.2500  46.2500 Du        
  10731 ****         0.5000   3.5000  46.2500 Du        
  10732 ****         0.5000   6.5000  18.0000 Du        
  10733 ****         0.5000   6.5000  18.2500 Du        
  10734 ****         0.5000   6.5000  18.7500 Du        
  10735 ****         0.5000   6.7500  17.7500 Du        
  10736 ****         0.5000   6.7500  18.0000 Du        
  10737 ****         0.5000   6.7500  18.2500 Du        
  10738 ****         0.5000   6.7500  18.5000 Du        
  10739 ****         0.5000   6.7500  18.7500 Du        
  10740 ****         0.5000   6.7500  19.0000 Du        
  10741 ****         0.5000   7.0000  17.7500 Du        
  10742 ****         0.5000   7.0000  18.0000 Du        
  10743 ****         0.5000   7.0000  18.2500 Du        
  10744 ****         0.5000   7.0000  18.5000 Du        
  10745 ****         0.5000   7.0000  18.7500 Du        
  10746 ****         0.5000   7.0000  19.0000 Du        
  10747 ****         0.5000   7.2500  17.5000 Du        
  10748 ****         0.5000   7.2500  17.7500 Du        
  10749 ****         0.5000   7.2500  18.0000 Du        
  10750 ****         0.5000   7.2500  18.2500 Du        
  10751 ****         0.5000   7.2500  18.5000 Du        
  10752 ****         0.5000   7.2500  18.7500 Du        
  10753 ****         0.5000   7.5000  17.5000 Du        
  10754 ****         0.5000   7.5000  17.7500 Du        
  10755 ****         0.5000   7.5000  18.0000 Du        
  10756 ****         0.5000   7.5000  18.2500 Du        
  10757 ****         0.5000   7.7500  17.5000 Du        
  10758 ****         0.5000   7.7500  17.7500 Du        
  10759 ****         0.5000   7.7500  18.0000 Du        
  10760 ****         0.5000   7.7500  18.2500 Du        
  10761 ****         0.5000   8.0000  17.2500 Du        
  10762 ****         0.5000   8.0000  17.5000 Du        
  10763 ****         0.5000   8.0000  17.7500 Du        
  10764 ****         0.5000   8.0000  18.0000 Du        
  10765 ****         0.5000   8.2500  17.5000 Du        
  10766 ****         0.5000   8.2500  17.7500 Du        
  10767 ****         0.5000   8.5000  27.2500 Du        
  10768 ****         0.5000   8.5000  27.5000 Du        
  10769 ****         0.5000   8.5000  27.7500 Du        
  10770 ****         0.5000   8.5000  28.0000 Du        
  10771 ****         0.5000   8.5000  28.2500 Du        
  10772 ****         0.5000   8.5000  28.5000 Du        
  10773 ****         0.5000   8.5000  28.7500 Du        
  10774 ****         0.5000   8.5000  29.0000 Du        
  10775 ****         0.5000   8.5000  29.2500 Du        
  10776 ****         0.5000   8.7500  27.0000 Du        
  10777 ****         0.5000   8.7500  27.2500 Du        
  10778 ****         0.5000   8.7500  27.5000 Du        
  10779 ****         0.5000   8.7500  27.7500 Du        
  10780 ****         0.5000   8.7500  28.0000 Du        
  10781 ****         0.5000   8.7500  28.2500 Du        
  10782 ****         0.5000   8.7500  28.5000 Du        
  10783 ****         0.5000   8.7500  28.7500 Du        
  10784 ****         0.5000   8.7500  29.0000 Du        
  10785 ****         0.5000   8.7500  29.2500 Du        
  10786 ****         0.5000   9.0000  27.0000 Du        
  10787 ****         0.5000   9.0000  27.2500 Du        
  10788 ****         0.5000   9.0000  27.5000 Du        
  10789 ****         0.5000   9.0000  27.7500 Du        
  10790 ****         0.5000   9.0000  28.0000 Du        
  10791 ****         0.5000   9.0000  28.2500 Du        
  10792 ****         0.5000  11.5000   9.2500 Du        
  10793 ****         0.5000  11.5000   9.5000 Du        
  10794 ****         0.5000  11.5000   9.7500 Du        
  10795 ****         0.5000  11.5000  10.0000 Du        
  10796 ****         0.5000  11.5000  10.2500 Du        
  10797 ****         0.5000  11.5000  10.5000 Du        
  10798 ****         0.5000  11.7500   9.0000 Du        
  10799 ****         0.5000  11.7500   9.2500 Du        
  10800 ****         0.5000  11.7500   9.5000 Du        
  10801 ****         0.5000  11.7500   9.7500 Du        
  10802 ****         0.5000  11.7500  10.0000 Du        
  10803 ****         0.5000  11.7500  10.2500 Du        
  10804 ****         0.5000  11.7500  10.5000 Du        
  10805 ****         0.5000  12.0000   8.5000 Du        
  10806 ****         0.5000  12.0000   8.7500 Du        
  10807 ****         0.5000  12.0000   9.0000 Du        
  10808 ****         0.5000  12.0000   9.2500 Du        
  10809 ****         0.5000  12.0000   9.5000 Du        
  10810 ****         0.5000  12.0000   9.7500 Du        
  10811 ****         0.5000  12.0000  10.0000 Du        
  10812 ****         0.5000  12.0000  10.2500 Du        
  10813 ****         0.5000  12.0000  10.5000 Du        
  10814 ****         0.5000  12.2500   8.5000 Du        
  10815 ****         0.5000  12.2500   8.7500 Du        
  10816 ****         0.5000  12.2500   9.0000 Du        
  10817 ****         0.5000  12.2500   9.2500 Du        
  10818 ****         0.5000  12.2500   9.5000 Du        
  10819 ****         0.5000  12.2500   9.7500 Du        
  10820 ****         0.5000  12.2500  10.0000 Du        
  10821 ****         0.5000  12.2500  10.2500 Du        
  10822 ****         0.5000  12.5000   8.7500 Du        
  10823 ****         0.5000  12.5000   9.0000 Du        
  10824 ****         0.5000  12.5000   9.2500 Du        
  10825 ****         0.5000  12.5000   9.5000 Du        
  10826 ****         0.5000  12.5000   9.7500 Du        
  10827 ****         0.5000  12.5000  10.0000 Du        
  10828 ****         0.5000  12.7500   3.7500 Du        
  10829 ****         0.5000  12.7500   4.0000 Du        
  10830 ****         0.5000  12.7500   9.0000 Du        
  10831 ****         0.5000  12.7500   9.2500 Du        
  10832 ****         0.5000  12.7500   9.5000 Du        
  10833 ****         0.5000  13.0000   0.7500 Du        
  10834 ****         0.5000  13.0000   1.0000 Du        
  10835 ****         0.5000  13.0000   3.5000 Du        
  10836 ****         0.5000  13.0000   3.7500 Du        
  10837 ****         0.5000  13.2500   0.5000 Du        
  10838 ****         0.5000  13.2500   0.7500 Du        
  10839 ****         0.5000  13.2500   1.0000 Du        
  10840 ****         0.5000  13.2500   1.2500 Du        
  10841 ****         0.5000  13.2500   1.5000 Du        
  10842 ****         0.5000  13.2500   3.0000 Du        
  10843 ****         0.5000  13.2500   3.5000 Du        
  10844 ****         0.5000  13.5000   0.2500 Du        
  10845 ****         0.5000  13.5000   0.5000 Du        
  10846 ****         0.5000  13.5000   0.7500 Du        
  10847 ****         0.5000  13.5000   1.0000 Du        
  10848 ****         0.5000  13.5000   1.2500 Du        
  10849 ****         0.5000  13.5000   1.5000 Du        
  10850 ****         0.5000  13.5000   1.7500 Du        
  10851 ****         0.5000  13.5000   2.0000 Du        
  10852 ****         0.5000  13.5000   2.2500 Du        
  10853 ****         0.5000  13.5000   2.7500 Du        
  10854 ****         0.5000  13.5000   3.0000 Du        
  10855 ****         0.5000  13.7500   0.0000 Du        
  10856 ****         0.5000  13.7500   0.2500 Du        
  10857 ****         0.5000  13.7500   0.5000 Du        
  10858 ****         0.5000  13.7500   0.7500 Du        
  10859 ****         0.5000  13.7500   1.0000 Du        
  10860 ****         0.5000  13.7500   1.2500 Du        
  10861 ****         0.5000  13.7500   1.5000 Du        
  10862 ****         0.5000  13.7500   1.7500 Du        
  10863 ****         0.5000  13.7500   2.0000 Du        
  10864 ****         0.5000  13.7500   2.2500 Du        
  10865 ****         0.5000  13.7500   2.5000 Du        
  10866 ****         0.5000  13.7500   2.7500 Du        
  10867 ****         0.5000  13.7500  37.0000 Du        
  10868 ****         0.5000  13.7500  37.2500 Du        
  10869 ****         0.5000  14.0000  -0.2500 Du        
  10870 ****         0.5000  14.0000   0.0000 Du        
  10871 ****         0.5000  14.0000   0.2500 Du        
  10872 ****         0.5000  14.0000   0.5000 Du        
  10873 ****         0.5000  14.0000   0.7500 Du        
  10874 ****         0.5000  14.0000   1.0000 Du        
  10875 ****         0.5000  14.0000   1.2500 Du        
  10876 ****         0.5000  14.0000  36.7500 Du        
  10877 ****         0.5000  14.0000  37.0000 Du        
  10878 ****         0.5000  14.0000  37.2500 Du        
  10879 ****         0.5000  14.2500  -0.2500 Du        
  10880 ****         0.5000  14.2500   0.0000 Du        
  10881 ****         0.5000  14.2500   0.2500 Du        
  10882 ****         0.5000  14.2500   0.5000 Du        
  10883 ****         0.5000  14.2500   0.7500 Du        
  10884 ****         0.5000  14.2500  36.5000 Du        
  10885 ****         0.5000  14.2500  36.7500 Du        
  10886 ****         0.5000  14.2500  37.0000 Du        
  10887 ****         0.5000  14.2500  37.2500 Du        
  10888 ****         0.5000  14.2500  37.5000 Du        
  10889 ****         0.5000  14.2500  37.7500 Du        
  10890 ****         0.5000  14.2500  38.0000 Du        
  10891 ****         0.5000  14.5000  -0.7500 Du        
  10892 ****         0.5000  14.5000  -0.5000 Du        
  10893 ****         0.5000  14.5000  -0.2500 Du        
  10894 ****         0.5000  14.5000   0.0000 Du        
  10895 ****         0.5000  14.5000   0.2500 Du        
  10896 ****         0.5000  14.5000   0.5000 Du        
  10897 ****         0.5000  14.5000  36.2500 Du        
  10898 ****         0.5000  14.5000  36.5000 Du        
  10899 ****         0.5000  14.5000  36.7500 Du        
  10900 ****         0.5000  14.5000  37.0000 Du        
  10901 ****         0.5000  14.5000  37.2500 Du        
  10902 ****         0.5000  14.5000  37.5000 Du        
  10903 ****         0.5000  14.5000  37.7500 Du        
  10904 ****         0.5000  14.5000  38.0000 Du        
  10905 ****         0.5000  14.5000  38.2500 Du        
  10906 ****         0.5000  14.5000  38.5000 Du        
  10907 ****         0.5000  14.5000  38.7500 Du        
  10908 ****         0.5000  14.7500  -0.5000 Du        
  10909 ****         0.5000  14.7500  -0.2500 Du        
  10910 ****         0.5000  14.7500   0.0000 Du        
  10911 ****         0.5000  14.7500  36.0000 Du        
  10912 ****         0.5000  14.7500  36.2500 Du        
  10913 ****         0.5000  14.7500  36.5000 Du        
  10914 ****         0.5000  14.7500  36.7500 Du        
  10915 ****         0.5000  14.7500  37.0000 Du        
  10916 ****         0.5000  14.7500  37.2500 Du        
  10917 ****         0.5000  14.7500  37.5000 Du        
  10918 ****         0.5000  14.7500  37.7500 Du        
  10919 ****         0.5000  14.7500  38.0000 Du        
  10920 ****         0.5000  14.7500  38.2500 Du        
  10921 ****         0.5000  15.0000  -1.0000 Du        
  10922 ****         0.5000  15.0000  -0.7500 Du        
  10923 ****         0.5000  15.0000  -0.5000 Du        
  10924 ****         0.5000  15.0000  -0.2500 Du        
  10925 ****         0.5000  15.0000  35.7500 Du        
  10926 ****         0.5000  15.0000  36.0000 Du        
  10927 ****         0.5000  15.0000  36.2500 Du        
  10928 ****         0.5000  15.0000  36.5000 Du        
  10929 ****         0.5000  15.0000  36.7500 Du        
  10930 ****         0.5000  15.0000  37.0000 Du        
  10931 ****         0.5000  15.0000  37.2500 Du        
  10932 ****         0.5000  15.0000  37.5000 Du        
  10933 ****         0.5000  15.0000  37.7500 Du        
  10934 ****         0.5000  15.2500  -1.2500 Du        
  10935 ****         0.5000  15.2500  -1.0000 Du        
  10936 ****         0.5000  15.2500  -0.7500 Du        
  10937 ****         0.5000  15.2500  -0.5000 Du        
  10938 ****         0.5000  15.2500  35.7500 Du        
  10939 ****         0.5000  15.2500  36.0000 Du        
  10940 ****         0.5000  15.2500  36.2500 Du        
  10941 ****         0.5000  15.2500  36.5000 Du        
  10942 ****         0.5000  15.2500  36.7500 Du        
  10943 ****         0.5000  15.2500  37.0000 Du        
  10944 ****         0.5000  15.2500  37.2500 Du        
  10945 ****         0.5000  15.5000  -1.2500 Du        
  10946 ****         0.5000  15.5000  -1.0000 Du        
  10947 ****         0.5000  15.5000  -0.7500 Du        
  10948 ****         0.5000  15.5000  35.5000 Du        
  10949 ****         0.5000  15.5000  35.7500 Du        
  10950 ****         0.5000  15.5000  36.0000 Du        
  10951 ****         0.5000  15.5000  36.2500 Du        
  10952 ****         0.5000  15.5000  36.5000 Du        
  10953 ****         0.5000  15.7500  -1.2500 Du        
  10954 ****         0.5000  15.7500  -1.0000 Du        
  10955 ****         0.5000  15.7500  35.5000 Du        
  10956 ****         0.5000  15.7500  35.7500 Du        
  10957 ****         0.5000  16.0000  -1.5000 Du        
  10958 ****         0.5000  16.0000  -1.2500 Du        
  10959 ****         0.5000  16.0000  -1.0000 Du        
  10960 ****         0.5000  16.2500  -1.5000 Du        
  10961 ****         0.5000  16.2500  -1.2500 Du        
  10962 ****         0.7500  -4.0000   7.2500 Du        
  10963 ****         0.7500  -4.0000   7.5000 Du        
  10964 ****         0.7500  -4.0000   7.7500 Du        
  10965 ****         0.7500  -4.0000  14.7500 Du        
  10966 ****         0.7500  -4.0000  15.0000 Du        
  10967 ****         0.7500  -4.0000  15.2500 Du        
  10968 ****         0.7500  -4.0000  15.5000 Du        
  10969 ****         0.7500  -4.0000  15.7500 Du        
  10970 ****         0.7500  -3.7500   7.5000 Du        
  10971 ****         0.7500  -3.7500   7.7500 Du        
  10972 ****         0.7500  -3.7500   8.0000 Du        
  10973 ****         0.7500  -3.7500   8.2500 Du        
  10974 ****         0.7500  -3.7500  15.0000 Du        
  10975 ****         0.7500  -3.7500  15.2500 Du        
  10976 ****         0.7500  -3.5000   8.0000 Du        
  10977 ****         0.7500  -3.5000   8.2500 Du        
  10978 ****         0.7500  -3.2500   8.0000 Du        
  10979 ****         0.7500  -3.2500   9.0000 Du        
  10980 ****         0.7500  -3.2500   9.2500 Du        
  10981 ****         0.7500  -3.2500  10.0000 Du        
  10982 ****         0.7500  -3.2500  10.2500 Du        
  10983 ****         0.7500  -3.2500  10.5000 Du        
  10984 ****         0.7500  -3.2500  10.7500 Du        
  10985 ****         0.7500  -3.2500  11.0000 Du        
  10986 ****         0.7500  -3.0000  10.0000 Du        
  10987 ****         0.7500  -3.0000  10.2500 Du        
  10988 ****         0.7500   1.0000  40.5000 Du        
  10989 ****         0.7500   1.0000  40.7500 Du        
  10990 ****         0.7500   1.2500  40.7500 Du        
  10991 ****         0.7500   2.5000  45.5000 Du        
  10992 ****         0.7500   2.5000  45.7500 Du        
  10993 ****         0.7500   2.5000  46.0000 Du        
  10994 ****         0.7500   2.5000  46.2500 Du        
  10995 ****         0.7500   2.7500  43.0000 Du        
  10996 ****         0.7500   2.7500  43.2500 Du        
  10997 ****         0.7500   2.7500  43.5000 Du        
  10998 ****         0.7500   2.7500  43.7500 Du        
  10999 ****         0.7500   2.7500  44.0000 Du        
  11000 ****         0.7500   2.7500  44.2500 Du        
  11001 ****         0.7500   2.7500  44.5000 Du        
  11002 ****         0.7500   2.7500  44.7500 Du        
  11003 ****         0.7500   2.7500  45.0000 Du        
  11004 ****         0.7500   2.7500  45.2500 Du        
  11005 ****         0.7500   2.7500  45.5000 Du        
  11006 ****         0.7500   2.7500  45.7500 Du        
  11007 ****         0.7500   2.7500  46.0000 Du        
  11008 ****         0.7500   2.7500  46.2500 Du        
  11009 ****         0.7500   3.0000  44.0000 Du        
  11010 ****         0.7500   3.0000  44.2500 Du        
  11011 ****         0.7500   3.0000  44.5000 Du        
  11012 ****         0.7500   3.0000  44.7500 Du        
  11013 ****         0.7500   3.0000  45.0000 Du        
  11014 ****         0.7500   3.0000  45.2500 Du        
  11015 ****         0.7500   3.0000  45.5000 Du        
  11016 ****         0.7500   3.0000  45.7500 Du        
  11017 ****         0.7500   3.0000  46.0000 Du        
  11018 ****         0.7500   3.0000  46.2500 Du        
  11019 ****         0.7500   3.2500  45.2500 Du        
  11020 ****         0.7500   3.2500  45.5000 Du        
  11021 ****         0.7500   3.2500  45.7500 Du        
  11022 ****         0.7500   3.2500  46.0000 Du        
  11023 ****         0.7500   3.2500  46.2500 Du        
  11024 ****         0.7500   3.5000  46.0000 Du        
  11025 ****         0.7500   3.5000  46.2500 Du        
  11026 ****         0.7500   6.7500  18.0000 Du        
  11027 ****         0.7500   6.7500  18.2500 Du        
  11028 ****         0.7500   7.0000  17.7500 Du        
  11029 ****         0.7500   7.0000  18.0000 Du        
  11030 ****         0.7500   7.0000  18.2500 Du        
  11031 ****         0.7500   7.2500  17.5000 Du        
  11032 ****         0.7500   7.2500  17.7500 Du        
  11033 ****         0.7500   7.2500  18.0000 Du        
  11034 ****         0.7500   7.2500  18.2500 Du        
  11035 ****         0.7500   7.5000  17.5000 Du        
  11036 ****         0.7500   7.5000  17.7500 Du        
  11037 ****         0.7500   7.5000  18.0000 Du        
  11038 ****         0.7500   7.5000  18.2500 Du        
  11039 ****         0.7500   7.7500  17.2500 Du        
  11040 ****         0.7500   7.7500  17.5000 Du        
  11041 ****         0.7500   7.7500  17.7500 Du        
  11042 ****         0.7500   7.7500  18.0000 Du        
  11043 ****         0.7500   7.7500  18.2500 Du        
  11044 ****         0.7500   8.0000  17.2500 Du        
  11045 ****         0.7500   8.0000  17.5000 Du        
  11046 ****         0.7500   8.0000  17.7500 Du        
  11047 ****         0.7500   8.0000  18.0000 Du        
  11048 ****         0.7500   8.2500  17.2500 Du        
  11049 ****         0.7500   8.2500  17.5000 Du        
  11050 ****         0.7500   8.2500  17.7500 Du        
  11051 ****         0.7500   8.2500  18.0000 Du        
  11052 ****         0.7500   8.2500  27.2500 Du        
  11053 ****         0.7500   8.2500  28.0000 Du        
  11054 ****         0.7500   8.5000  17.5000 Du        
  11055 ****         0.7500   8.5000  26.0000 Du        
  11056 ****         0.7500   8.5000  26.2500 Du        
  11057 ****         0.7500   8.5000  26.5000 Du        
  11058 ****         0.7500   8.5000  26.7500 Du        
  11059 ****         0.7500   8.5000  27.0000 Du        
  11060 ****         0.7500   8.5000  27.2500 Du        
  11061 ****         0.7500   8.5000  27.5000 Du        
  11062 ****         0.7500   8.5000  27.7500 Du        
  11063 ****         0.7500   8.5000  28.0000 Du        
  11064 ****         0.7500   8.5000  28.2500 Du        
  11065 ****         0.7500   8.5000  28.5000 Du        
  11066 ****         0.7500   8.5000  28.7500 Du        
  11067 ****         0.7500   8.5000  29.0000 Du        
  11068 ****         0.7500   8.5000  29.2500 Du        
  11069 ****         0.7500   8.7500  25.7500 Du        
  11070 ****         0.7500   8.7500  26.0000 Du        
  11071 ****         0.7500   8.7500  26.2500 Du        
  11072 ****         0.7500   8.7500  26.5000 Du        
  11073 ****         0.7500   8.7500  26.7500 Du        
  11074 ****         0.7500   8.7500  27.0000 Du        
  11075 ****         0.7500   8.7500  27.2500 Du        
  11076 ****         0.7500   8.7500  27.5000 Du        
  11077 ****         0.7500   8.7500  27.7500 Du        
  11078 ****         0.7500   8.7500  28.0000 Du        
  11079 ****         0.7500   8.7500  28.2500 Du        
  11080 ****         0.7500   8.7500  28.5000 Du        
  11081 ****         0.7500   8.7500  28.7500 Du        
  11082 ****         0.7500   8.7500  29.0000 Du        
  11083 ****         0.7500   9.0000  25.7500 Du        
  11084 ****         0.7500   9.0000  26.0000 Du        
  11085 ****         0.7500   9.0000  26.2500 Du        
  11086 ****         0.7500   9.0000  26.5000 Du        
  11087 ****         0.7500   9.0000  26.7500 Du        
  11088 ****         0.7500   9.0000  27.0000 Du        
  11089 ****         0.7500   9.0000  27.2500 Du        
  11090 ****         0.7500   9.0000  27.5000 Du        
  11091 ****         0.7500   9.0000  27.7500 Du        
  11092 ****         0.7500   9.0000  28.0000 Du        
  11093 ****         0.7500   9.0000  28.2500 Du        
  11094 ****         0.7500   9.2500  26.2500 Du        
  11095 ****         0.7500   9.2500  26.5000 Du        
  11096 ****         0.7500   9.2500  26.7500 Du        
  11097 ****         0.7500   9.2500  27.0000 Du        
  11098 ****         0.7500   9.2500  27.2500 Du        
  11099 ****         0.7500   9.2500  27.5000 Du        
  11100 ****         0.7500   9.2500  27.7500 Du        
  11101 ****         0.7500  11.5000   9.5000 Du        
  11102 ****         0.7500  11.5000   9.7500 Du        
  11103 ****         0.7500  11.5000  10.0000 Du        
  11104 ****         0.7500  11.5000  10.2500 Du        
  11105 ****         0.7500  11.5000  10.5000 Du        
  11106 ****         0.7500  11.7500   9.0000 Du        
  11107 ****         0.7500  11.7500   9.2500 Du        
  11108 ****         0.7500  11.7500   9.5000 Du        
  11109 ****         0.7500  11.7500   9.7500 Du        
  11110 ****         0.7500  11.7500  10.0000 Du        
  11111 ****         0.7500  11.7500  10.2500 Du        
  11112 ****         0.7500  12.0000   8.5000 Du        
  11113 ****         0.7500  12.0000   8.7500 Du        
  11114 ****         0.7500  12.0000   9.0000 Du        
  11115 ****         0.7500  12.0000   9.2500 Du        
  11116 ****         0.7500  12.0000   9.5000 Du        
  11117 ****         0.7500  12.0000   9.7500 Du        
  11118 ****         0.7500  12.0000  10.0000 Du        
  11119 ****         0.7500  12.0000  10.2500 Du        
  11120 ****         0.7500  12.2500   8.5000 Du        
  11121 ****         0.7500  12.2500   8.7500 Du        
  11122 ****         0.7500  12.2500   9.0000 Du        
  11123 ****         0.7500  12.2500   9.2500 Du        
  11124 ****         0.7500  12.2500   9.5000 Du        
  11125 ****         0.7500  12.2500   9.7500 Du        
  11126 ****         0.7500  12.5000   4.0000 Du        
  11127 ****         0.7500  12.5000   4.2500 Du        
  11128 ****         0.7500  12.5000   4.5000 Du        
  11129 ****         0.7500  12.5000   4.7500 Du        
  11130 ****         0.7500  12.5000   5.0000 Du        
  11131 ****         0.7500  12.5000   5.2500 Du        
  11132 ****         0.7500  12.5000   5.5000 Du        
  11133 ****         0.7500  12.5000   8.7500 Du        
  11134 ****         0.7500  12.5000   9.0000 Du        
  11135 ****         0.7500  12.5000   9.2500 Du        
  11136 ****         0.7500  12.5000   9.5000 Du        
  11137 ****         0.7500  12.7500   3.7500 Du        
  11138 ****         0.7500  12.7500   4.0000 Du        
  11139 ****         0.7500  12.7500   4.2500 Du        
  11140 ****         0.7500  12.7500   4.5000 Du        
  11141 ****         0.7500  12.7500   4.7500 Du        
  11142 ****         0.7500  13.0000   1.0000 Du        
  11143 ****         0.7500  13.0000   3.7500 Du        
  11144 ****         0.7500  13.0000   4.0000 Du        
  11145 ****         0.7500  13.0000   4.2500 Du        
  11146 ****         0.7500  13.2500   0.5000 Du        
  11147 ****         0.7500  13.2500   0.7500 Du        
  11148 ****         0.7500  13.2500   1.0000 Du        
  11149 ****         0.7500  13.2500   1.2500 Du        
  11150 ****         0.7500  13.2500   3.7500 Du        
  11151 ****         0.7500  13.5000   0.2500 Du        
  11152 ****         0.7500  13.5000   0.5000 Du        
  11153 ****         0.7500  13.5000   0.7500 Du        
  11154 ****         0.7500  13.5000   1.0000 Du        
  11155 ****         0.7500  13.5000   1.2500 Du        
  11156 ****         0.7500  13.5000   1.5000 Du        
  11157 ****         0.7500  13.7500   0.2500 Du        
  11158 ****         0.7500  13.7500   0.5000 Du        
  11159 ****         0.7500  13.7500   0.7500 Du        
  11160 ****         0.7500  13.7500   1.0000 Du        
  11161 ****         0.7500  13.7500   1.2500 Du        
  11162 ****         0.7500  13.7500   1.5000 Du        
  11163 ****         0.7500  13.7500   1.7500 Du        
  11164 ****         0.7500  13.7500  36.7500 Du        
  11165 ****         0.7500  13.7500  37.0000 Du        
  11166 ****         0.7500  13.7500  37.2500 Du        
  11167 ****         0.7500  13.7500  38.0000 Du        
  11168 ****         0.7500  14.0000   0.0000 Du        
  11169 ****         0.7500  14.0000   0.2500 Du        
  11170 ****         0.7500  14.0000   0.5000 Du        
  11171 ****         0.7500  14.0000   0.7500 Du        
  11172 ****         0.7500  14.0000   1.0000 Du        
  11173 ****         0.7500  14.0000   1.2500 Du        
  11174 ****         0.7500  14.0000   1.5000 Du        
  11175 ****         0.7500  14.0000  36.5000 Du        
  11176 ****         0.7500  14.0000  36.7500 Du        
  11177 ****         0.7500  14.0000  37.0000 Du        
  11178 ****         0.7500  14.0000  37.2500 Du        
  11179 ****         0.7500  14.0000  37.5000 Du        
  11180 ****         0.7500  14.0000  37.7500 Du        
  11181 ****         0.7500  14.2500  -0.2500 Du        
  11182 ****         0.7500  14.2500   0.0000 Du        
  11183 ****         0.7500  14.2500   0.2500 Du        
  11184 ****         0.7500  14.2500   0.5000 Du        
  11185 ****         0.7500  14.2500   0.7500 Du        
  11186 ****         0.7500  14.2500   1.0000 Du        
  11187 ****         0.7500  14.2500  36.2500 Du        
  11188 ****         0.7500  14.2500  36.5000 Du        
  11189 ****         0.7500  14.2500  36.7500 Du        
  11190 ****         0.7500  14.2500  37.0000 Du        
  11191 ****         0.7500  14.2500  37.2500 Du        
  11192 ****         0.7500  14.2500  37.5000 Du        
  11193 ****         0.7500  14.2500  37.7500 Du        
  11194 ****         0.7500  14.2500  38.0000 Du        
  11195 ****         0.7500  14.2500  38.2500 Du        
  11196 ****         0.7500  14.5000  -0.5000 Du        
  11197 ****         0.7500  14.5000  -0.2500 Du        
  11198 ****         0.7500  14.5000   0.0000 Du        
  11199 ****         0.7500  14.5000   0.2500 Du        
  11200 ****         0.7500  14.5000   0.5000 Du        
  11201 ****         0.7500  14.5000   0.7500 Du        
  11202 ****         0.7500  14.5000  36.0000 Du        
  11203 ****         0.7500  14.5000  36.2500 Du        
  11204 ****         0.7500  14.5000  36.5000 Du        
  11205 ****         0.7500  14.5000  36.7500 Du        
  11206 ****         0.7500  14.5000  37.0000 Du        
  11207 ****         0.7500  14.5000  37.2500 Du        
  11208 ****         0.7500  14.5000  37.5000 Du        
  11209 ****         0.7500  14.5000  37.7500 Du        
  11210 ****         0.7500  14.5000  38.0000 Du        
  11211 ****         0.7500  14.5000  38.2500 Du        
  11212 ****         0.7500  14.5000  38.5000 Du        
  11213 ****         0.7500  14.5000  38.7500 Du        
  11214 ****         0.7500  14.7500  -0.7500 Du        
  11215 ****         0.7500  14.7500  -0.5000 Du        
  11216 ****         0.7500  14.7500  -0.2500 Du        
  11217 ****         0.7500  14.7500   0.0000 Du        
  11218 ****         0.7500  14.7500   0.2500 Du        
  11219 ****         0.7500  14.7500  35.7500 Du        
  11220 ****         0.7500  14.7500  36.0000 Du        
  11221 ****         0.7500  14.7500  36.2500 Du        
  11222 ****         0.7500  14.7500  36.5000 Du        
  11223 ****         0.7500  14.7500  36.7500 Du        
  11224 ****         0.7500  14.7500  37.0000 Du        
  11225 ****         0.7500  14.7500  37.2500 Du        
  11226 ****         0.7500  14.7500  37.5000 Du        
  11227 ****         0.7500  14.7500  37.7500 Du        
  11228 ****         0.7500  14.7500  38.0000 Du        
  11229 ****         0.7500  14.7500  38.2500 Du        
  11230 ****         0.7500  14.7500  38.5000 Du        
  11231 ****         0.7500  15.0000  -1.0000 Du        
  11232 ****         0.7500  15.0000  -0.7500 Du        
  11233 ****         0.7500  15.0000  -0.5000 Du        
  11234 ****         0.7500  15.0000  -0.2500 Du        
  11235 ****         0.7500  15.0000   0.0000 Du        
  11236 ****         0.7500  15.0000  35.7500 Du        
  11237 ****         0.7500  15.0000  36.0000 Du        
  11238 ****         0.7500  15.0000  36.2500 Du        
  11239 ****         0.7500  15.0000  36.5000 Du        
  11240 ****         0.7500  15.0000  36.7500 Du        
  11241 ****         0.7500  15.0000  37.0000 Du        
  11242 ****         0.7500  15.0000  37.2500 Du        
  11243 ****         0.7500  15.0000  37.5000 Du        
  11244 ****         0.7500  15.0000  37.7500 Du        
  11245 ****         0.7500  15.0000  38.0000 Du        
  11246 ****         0.7500  15.2500  -1.5000 Du        
  11247 ****         0.7500  15.2500  -1.2500 Du        
  11248 ****         0.7500  15.2500  -1.0000 Du        
  11249 ****         0.7500  15.2500  -0.7500 Du        
  11250 ****         0.7500  15.2500  -0.5000 Du        
  11251 ****         0.7500  15.2500  -0.2500 Du        
  11252 ****         0.7500  15.2500  35.5000 Du        
  11253 ****         0.7500  15.2500  35.7500 Du        
  11254 ****         0.7500  15.2500  36.0000 Du        
  11255 ****         0.7500  15.2500  36.2500 Du        
  11256 ****         0.7500  15.2500  36.5000 Du        
  11257 ****         0.7500  15.2500  36.7500 Du        
  11258 ****         0.7500  15.2500  37.0000 Du        
  11259 ****         0.7500  15.2500  37.2500 Du        
  11260 ****         0.7500  15.5000  -1.5000 Du        
  11261 ****         0.7500  15.5000  -1.2500 Du        
  11262 ****         0.7500  15.5000  -1.0000 Du        
  11263 ****         0.7500  15.5000  -0.7500 Du        
  11264 ****         0.7500  15.5000  -0.5000 Du        
  11265 ****         0.7500  15.5000  35.2500 Du        
  11266 ****         0.7500  15.5000  35.5000 Du        
  11267 ****         0.7500  15.5000  35.7500 Du        
  11268 ****         0.7500  15.5000  36.0000 Du        
  11269 ****         0.7500  15.5000  36.2500 Du        
  11270 ****         0.7500  15.5000  36.5000 Du        
  11271 ****         0.7500  15.7500  -1.5000 Du        
  11272 ****         0.7500  15.7500  -1.2500 Du        
  11273 ****         0.7500  15.7500  -1.0000 Du        
  11274 ****         0.7500  15.7500  -0.7500 Du        
  11275 ****         0.7500  15.7500  35.5000 Du        
  11276 ****         0.7500  15.7500  35.7500 Du        
  11277 ****         0.7500  15.7500  36.0000 Du        
  11278 ****         0.7500  16.0000  -1.5000 Du        
  11279 ****         0.7500  16.0000  -1.2500 Du        
  11280 ****         0.7500  16.0000  -1.0000 Du        
  11281 ****         0.7500  16.0000  -0.7500 Du        
  11282 ****         0.7500  16.2500  -1.5000 Du        
  11283 ****         0.7500  16.2500  -1.2500 Du        
  11284 ****         0.7500  16.2500  -1.0000 Du        
  11285 ****         0.7500  16.5000  -1.7500 Du        
  11286 ****         0.7500  16.5000  -1.5000 Du        
  11287 ****         0.7500  16.5000  -1.2500 Du        
  11288 ****         0.7500  16.5000  -1.0000 Du        
  11289 ****         0.7500  16.7500  -1.7500 Du        
  11290 ****         0.7500  16.7500  -1.5000 Du        
  11291 ****         0.7500  16.7500  -1.2500 Du        
  11292 ****         0.7500  16.7500  -1.0000 Du        
  11293 ****         0.7500  17.0000  -1.5000 Du        
  11294 ****         0.7500  17.0000  -1.2500 Du        
  11295 ****         0.7500  17.0000  -1.0000 Du        
  11296 ****         0.7500  17.2500  -1.5000 Du        
  11297 ****         0.7500  17.2500  -1.2500 Du        
  11298 ****         0.7500  17.5000  -1.2500 Du        
  11299 ****         0.7500  17.7500  -1.5000 Du        
  11300 ****         0.7500  17.7500  -1.2500 Du        
  11301 ****         0.7500  18.0000  -1.5000 Du        
  11302 ****         0.7500  18.0000  -1.2500 Du        
  11303 ****         0.7500  18.2500  -1.5000 Du        
  11304 ****         1.0000  -4.0000   7.2500 Du        
  11305 ****         1.0000  -4.0000   7.5000 Du        
  11306 ****         1.0000  -4.0000   7.7500 Du        
  11307 ****         1.0000  -4.0000   8.0000 Du        
  11308 ****         1.0000  -4.0000  14.7500 Du        
  11309 ****         1.0000  -4.0000  15.0000 Du        
  11310 ****         1.0000  -4.0000  15.2500 Du        
  11311 ****         1.0000  -4.0000  15.5000 Du        
  11312 ****         1.0000  -4.0000  15.7500 Du        
  11313 ****         1.0000  -4.0000  16.0000 Du        
  11314 ****         1.0000  -3.7500   7.7500 Du        
  11315 ****         1.0000  -3.7500   8.0000 Du        
  11316 ****         1.0000  -3.7500   8.2500 Du        
  11317 ****         1.0000  -3.7500  15.0000 Du        
  11318 ****         1.0000  -3.7500  15.2500 Du        
  11319 ****         1.0000  -3.2500  10.5000 Du        
  11320 ****         1.0000  -3.2500  10.7500 Du        
  11321 ****         1.0000   2.5000  45.5000 Du        
  11322 ****         1.0000   2.5000  45.7500 Du        
  11323 ****         1.0000   2.5000  46.0000 Du        
  11324 ****         1.0000   2.5000  46.2500 Du        
  11325 ****         1.0000   2.7500  43.0000 Du        
  11326 ****         1.0000   2.7500  43.2500 Du        
  11327 ****         1.0000   2.7500  43.5000 Du        
  11328 ****         1.0000   2.7500  43.7500 Du        
  11329 ****         1.0000   2.7500  44.0000 Du        
  11330 ****         1.0000   2.7500  44.2500 Du        
  11331 ****         1.0000   2.7500  44.5000 Du        
  11332 ****         1.0000   2.7500  44.7500 Du        
  11333 ****         1.0000   2.7500  45.0000 Du        
  11334 ****         1.0000   2.7500  45.2500 Du        
  11335 ****         1.0000   2.7500  45.5000 Du        
  11336 ****         1.0000   2.7500  45.7500 Du        
  11337 ****         1.0000   2.7500  46.0000 Du        
  11338 ****         1.0000   2.7500  46.2500 Du        
  11339 ****         1.0000   3.0000  43.5000 Du        
  11340 ****         1.0000   3.0000  43.7500 Du        
  11341 ****         1.0000   3.0000  44.0000 Du        
  11342 ****         1.0000   3.0000  44.2500 Du        
  11343 ****         1.0000   3.0000  44.5000 Du        
  11344 ****         1.0000   3.0000  44.7500 Du        
  11345 ****         1.0000   3.0000  45.0000 Du        
  11346 ****         1.0000   3.0000  45.2500 Du        
  11347 ****         1.0000   3.0000  45.5000 Du        
  11348 ****         1.0000   3.0000  45.7500 Du        
  11349 ****         1.0000   3.0000  46.0000 Du        
  11350 ****         1.0000   3.0000  46.2500 Du        
  11351 ****         1.0000   3.2500  44.5000 Du        
  11352 ****         1.0000   3.2500  44.7500 Du        
  11353 ****         1.0000   3.2500  45.0000 Du        
  11354 ****         1.0000   3.2500  45.2500 Du        
  11355 ****         1.0000   3.2500  45.5000 Du        
  11356 ****         1.0000   3.2500  45.7500 Du        
  11357 ****         1.0000   3.2500  46.0000 Du        
  11358 ****         1.0000   3.2500  46.2500 Du        
  11359 ****         1.0000   3.5000  45.7500 Du        
  11360 ****         1.0000   3.5000  46.0000 Du        
  11361 ****         1.0000   3.5000  46.2500 Du        
  11362 ****         1.0000   7.5000  17.2500 Du        
  11363 ****         1.0000   7.5000  17.5000 Du        
  11364 ****         1.0000   7.5000  17.7500 Du        
  11365 ****         1.0000   7.5000  18.0000 Du        
  11366 ****         1.0000   7.7500  17.0000 Du        
  11367 ****         1.0000   7.7500  17.2500 Du        
  11368 ****         1.0000   7.7500  17.5000 Du        
  11369 ****         1.0000   7.7500  17.7500 Du        
  11370 ****         1.0000   7.7500  18.0000 Du        
  11371 ****         1.0000   7.7500  18.2500 Du        
  11372 ****         1.0000   8.0000  17.0000 Du        
  11373 ****         1.0000   8.0000  17.2500 Du        
  11374 ****         1.0000   8.0000  17.5000 Du        
  11375 ****         1.0000   8.0000  17.7500 Du        
  11376 ****         1.0000   8.0000  18.0000 Du        
  11377 ****         1.0000   8.2500  17.2500 Du        
  11378 ****         1.0000   8.2500  17.5000 Du        
  11379 ****         1.0000   8.2500  17.7500 Du        
  11380 ****         1.0000   8.2500  26.0000 Du        
  11381 ****         1.0000   8.5000  17.2500 Du        
  11382 ****         1.0000   8.5000  17.5000 Du        
  11383 ****         1.0000   8.5000  24.7500 Du        
  11384 ****         1.0000   8.5000  25.0000 Du        
  11385 ****         1.0000   8.5000  25.2500 Du        
  11386 ****         1.0000   8.5000  25.5000 Du        
  11387 ****         1.0000   8.5000  25.7500 Du        
  11388 ****         1.0000   8.5000  26.0000 Du        
  11389 ****         1.0000   8.5000  26.2500 Du        
  11390 ****         1.0000   8.5000  26.5000 Du        
  11391 ****         1.0000   8.5000  26.7500 Du        
  11392 ****         1.0000   8.5000  27.0000 Du        
  11393 ****         1.0000   8.5000  27.2500 Du        
  11394 ****         1.0000   8.5000  27.5000 Du        
  11395 ****         1.0000   8.5000  27.7500 Du        
  11396 ****         1.0000   8.5000  28.0000 Du        
  11397 ****         1.0000   8.5000  28.2500 Du        
  11398 ****         1.0000   8.5000  28.5000 Du        
  11399 ****         1.0000   8.5000  28.7500 Du        
  11400 ****         1.0000   8.5000  29.0000 Du        
  11401 ****         1.0000   8.5000  29.2500 Du        
  11402 ****         1.0000   8.7500  24.7500 Du        
  11403 ****         1.0000   8.7500  25.0000 Du        
  11404 ****         1.0000   8.7500  25.2500 Du        
  11405 ****         1.0000   8.7500  25.5000 Du        
  11406 ****         1.0000   8.7500  25.7500 Du        
  11407 ****         1.0000   8.7500  26.0000 Du        
  11408 ****         1.0000   8.7500  26.2500 Du        
  11409 ****         1.0000   8.7500  26.5000 Du        
  11410 ****         1.0000   8.7500  26.7500 Du        
  11411 ****         1.0000   8.7500  27.0000 Du        
  11412 ****         1.0000   8.7500  27.2500 Du        
  11413 ****         1.0000   8.7500  27.5000 Du        
  11414 ****         1.0000   8.7500  27.7500 Du        
  11415 ****         1.0000   8.7500  28.0000 Du        
  11416 ****         1.0000   8.7500  28.2500 Du        
  11417 ****         1.0000   8.7500  28.5000 Du        
  11418 ****         1.0000   8.7500  28.7500 Du        
  11419 ****         1.0000   8.7500  29.0000 Du        
  11420 ****         1.0000   9.0000  23.5000 Du        
  11421 ****         1.0000   9.0000  23.7500 Du        
  11422 ****         1.0000   9.0000  24.0000 Du        
  11423 ****         1.0000   9.0000  24.5000 Du        
  11424 ****         1.0000   9.0000  24.7500 Du        
  11425 ****         1.0000   9.0000  25.0000 Du        
  11426 ****         1.0000   9.0000  25.2500 Du        
  11427 ****         1.0000   9.0000  25.5000 Du        
  11428 ****         1.0000   9.0000  25.7500 Du        
  11429 ****         1.0000   9.0000  26.0000 Du        
  11430 ****         1.0000   9.0000  26.2500 Du        
  11431 ****         1.0000   9.0000  26.5000 Du        
  11432 ****         1.0000   9.0000  26.7500 Du        
  11433 ****         1.0000   9.0000  27.0000 Du        
  11434 ****         1.0000   9.0000  27.2500 Du        
  11435 ****         1.0000   9.0000  27.5000 Du        
  11436 ****         1.0000   9.0000  27.7500 Du        
  11437 ****         1.0000   9.0000  28.0000 Du        
  11438 ****         1.0000   9.0000  28.2500 Du        
  11439 ****         1.0000   9.2500  23.5000 Du        
  11440 ****         1.0000   9.2500  23.7500 Du        
  11441 ****         1.0000   9.2500  24.0000 Du        
  11442 ****         1.0000   9.2500  24.7500 Du        
  11443 ****         1.0000   9.2500  25.0000 Du        
  11444 ****         1.0000   9.2500  25.2500 Du        
  11445 ****         1.0000   9.2500  25.5000 Du        
  11446 ****         1.0000   9.2500  25.7500 Du        
  11447 ****         1.0000   9.2500  26.0000 Du        
  11448 ****         1.0000   9.2500  26.2500 Du        
  11449 ****         1.0000   9.2500  26.5000 Du        
  11450 ****         1.0000   9.2500  26.7500 Du        
  11451 ****         1.0000   9.2500  27.0000 Du        
  11452 ****         1.0000   9.2500  27.2500 Du        
  11453 ****         1.0000   9.2500  27.5000 Du        
  11454 ****         1.0000   9.2500  27.7500 Du        
  11455 ****         1.0000   9.2500  28.0000 Du        
  11456 ****         1.0000   9.5000  26.7500 Du        
  11457 ****         1.0000   9.5000  27.0000 Du        
  11458 ****         1.0000   9.5000  27.2500 Du        
  11459 ****         1.0000   9.5000  27.5000 Du        
  11460 ****         1.0000  11.5000   9.7500 Du        
  11461 ****         1.0000  11.5000  10.2500 Du        
  11462 ****         1.0000  11.7500   9.0000 Du        
  11463 ****         1.0000  11.7500   9.2500 Du        
  11464 ****         1.0000  11.7500   9.5000 Du        
  11465 ****         1.0000  11.7500   9.7500 Du        
  11466 ****         1.0000  11.7500  10.0000 Du        
  11467 ****         1.0000  12.0000   8.5000 Du        
  11468 ****         1.0000  12.0000   8.7500 Du        
  11469 ****         1.0000  12.0000   9.0000 Du        
  11470 ****         1.0000  12.0000   9.2500 Du        
  11471 ****         1.0000  12.0000   9.5000 Du        
  11472 ****         1.0000  12.0000   9.7500 Du        
  11473 ****         1.0000  12.2500   5.0000 Du        
  11474 ****         1.0000  12.2500   5.2500 Du        
  11475 ****         1.0000  12.2500   5.7500 Du        
  11476 ****         1.0000  12.2500   6.0000 Du        
  11477 ****         1.0000  12.2500   6.2500 Du        
  11478 ****         1.0000  12.2500   6.5000 Du        
  11479 ****         1.0000  12.2500   6.7500 Du        
  11480 ****         1.0000  12.2500   7.0000 Du        
  11481 ****         1.0000  12.2500   8.5000 Du        
  11482 ****         1.0000  12.2500   8.7500 Du        
  11483 ****         1.0000  12.2500   9.0000 Du        
  11484 ****         1.0000  12.2500   9.2500 Du        
  11485 ****         1.0000  12.5000   4.2500 Du        
  11486 ****         1.0000  12.5000   4.5000 Du        
  11487 ****         1.0000  12.5000   4.7500 Du        
  11488 ****         1.0000  12.5000   5.0000 Du        
  11489 ****         1.0000  12.5000   5.2500 Du        
  11490 ****         1.0000  12.5000   5.5000 Du        
  11491 ****         1.0000  12.5000   5.7500 Du        
  11492 ****         1.0000  12.5000   6.0000 Du        
  11493 ****         1.0000  12.5000   6.2500 Du        
  11494 ****         1.0000  12.5000   8.7500 Du        
  11495 ****         1.0000  12.5000   9.0000 Du        
  11496 ****         1.0000  12.7500   4.0000 Du        
  11497 ****         1.0000  12.7500   4.2500 Du        
  11498 ****         1.0000  12.7500   4.5000 Du        
  11499 ****         1.0000  12.7500   4.7500 Du        
  11500 ****         1.0000  12.7500   5.0000 Du        
  11501 ****         1.0000  12.7500   5.2500 Du        
  11502 ****         1.0000  12.7500   5.5000 Du        
  11503 ****         1.0000  12.7500   6.0000 Du        
  11504 ****         1.0000  13.0000   4.2500 Du        
  11505 ****         1.0000  13.0000   4.5000 Du        
  11506 ****         1.0000  13.0000   4.7500 Du        
  11507 ****         1.0000  13.0000   5.0000 Du        
  11508 ****         1.0000  13.2500   4.2500 Du        
  11509 ****         1.0000  13.2500   4.5000 Du        
  11510 ****         1.0000  13.5000   0.5000 Du        
  11511 ****         1.0000  13.5000   0.7500 Du        
  11512 ****         1.0000  13.5000   1.0000 Du        
  11513 ****         1.0000  13.7500   0.2500 Du        
  11514 ****         1.0000  13.7500   0.5000 Du        
  11515 ****         1.0000  13.7500   0.7500 Du        
  11516 ****         1.0000  13.7500   1.0000 Du        
  11517 ****         1.0000  13.7500  36.5000 Du        
  11518 ****         1.0000  13.7500  36.7500 Du        
  11519 ****         1.0000  13.7500  37.0000 Du        
  11520 ****         1.0000  13.7500  37.2500 Du        
  11521 ****         1.0000  13.7500  37.5000 Du        
  11522 ****         1.0000  13.7500  37.7500 Du        
  11523 ****         1.0000  13.7500  38.0000 Du        
  11524 ****         1.0000  14.0000   0.0000 Du        
  11525 ****         1.0000  14.0000   0.2500 Du        
  11526 ****         1.0000  14.0000   0.5000 Du        
  11527 ****         1.0000  14.0000   0.7500 Du        
  11528 ****         1.0000  14.0000   1.0000 Du        
  11529 ****         1.0000  14.0000  36.2500 Du        
  11530 ****         1.0000  14.0000  36.5000 Du        
  11531 ****         1.0000  14.0000  36.7500 Du        
  11532 ****         1.0000  14.0000  37.0000 Du        
  11533 ****         1.0000  14.0000  37.2500 Du        
  11534 ****         1.0000  14.0000  37.5000 Du        
  11535 ****         1.0000  14.0000  37.7500 Du        
  11536 ****         1.0000  14.0000  38.0000 Du        
  11537 ****         1.0000  14.0000  38.2500 Du        
  11538 ****         1.0000  14.2500   0.0000 Du        
  11539 ****         1.0000  14.2500   0.2500 Du        
  11540 ****         1.0000  14.2500   0.5000 Du        
  11541 ****         1.0000  14.2500   0.7500 Du        
  11542 ****         1.0000  14.2500   1.0000 Du        
  11543 ****         1.0000  14.2500  36.0000 Du        
  11544 ****         1.0000  14.2500  36.2500 Du        
  11545 ****         1.0000  14.2500  36.5000 Du        
  11546 ****         1.0000  14.2500  36.7500 Du        
  11547 ****         1.0000  14.2500  37.0000 Du        
  11548 ****         1.0000  14.2500  37.2500 Du        
  11549 ****         1.0000  14.2500  37.5000 Du        
  11550 ****         1.0000  14.2500  37.7500 Du        
  11551 ****         1.0000  14.2500  38.0000 Du        
  11552 ****         1.0000  14.2500  38.2500 Du        
  11553 ****         1.0000  14.5000  -0.2500 Du        
  11554 ****         1.0000  14.5000   0.0000 Du        
  11555 ****         1.0000  14.5000   0.2500 Du        
  11556 ****         1.0000  14.5000   0.5000 Du        
  11557 ****         1.0000  14.5000  36.0000 Du        
  11558 ****         1.0000  14.5000  36.2500 Du        
  11559 ****         1.0000  14.5000  36.5000 Du        
  11560 ****         1.0000  14.5000  36.7500 Du        
  11561 ****         1.0000  14.5000  37.0000 Du        
  11562 ****         1.0000  14.5000  37.2500 Du        
  11563 ****         1.0000  14.5000  37.5000 Du        
  11564 ****         1.0000  14.5000  37.7500 Du        
  11565 ****         1.0000  14.5000  38.0000 Du        
  11566 ****         1.0000  14.5000  38.2500 Du        
  11567 ****         1.0000  14.5000  38.5000 Du        
  11568 ****         1.0000  14.5000  38.7500 Du        
  11569 ****         1.0000  14.7500  -0.5000 Du        
  11570 ****         1.0000  14.7500  -0.2500 Du        
  11571 ****         1.0000  14.7500   0.0000 Du        
  11572 ****         1.0000  14.7500   0.2500 Du        
  11573 ****         1.0000  14.7500  35.7500 Du        
  11574 ****         1.0000  14.7500  36.0000 Du        
  11575 ****         1.0000  14.7500  36.2500 Du        
  11576 ****         1.0000  14.7500  36.5000 Du        
  11577 ****         1.0000  14.7500  36.7500 Du        
  11578 ****         1.0000  14.7500  37.0000 Du        
  11579 ****         1.0000  14.7500  37.2500 Du        
  11580 ****         1.0000  14.7500  37.5000 Du        
  11581 ****         1.0000  14.7500  37.7500 Du        
  11582 ****         1.0000  14.7500  38.0000 Du        
  11583 ****         1.0000  14.7500  38.2500 Du        
  11584 ****         1.0000  14.7500  38.5000 Du        
  11585 ****         1.0000  15.0000  -1.0000 Du        
  11586 ****         1.0000  15.0000  -0.7500 Du        
  11587 ****         1.0000  15.0000  -0.5000 Du        
  11588 ****         1.0000  15.0000  -0.2500 Du        
  11589 ****         1.0000  15.0000   0.0000 Du        
  11590 ****         1.0000  15.0000  35.7500 Du        
  11591 ****         1.0000  15.0000  36.0000 Du        
  11592 ****         1.0000  15.0000  36.2500 Du        
  11593 ****         1.0000  15.0000  36.5000 Du        
  11594 ****         1.0000  15.0000  36.7500 Du        
  11595 ****         1.0000  15.0000  37.0000 Du        
  11596 ****         1.0000  15.0000  37.2500 Du        
  11597 ****         1.0000  15.0000  37.5000 Du        
  11598 ****         1.0000  15.0000  37.7500 Du        
  11599 ****         1.0000  15.2500  -1.2500 Du        
  11600 ****         1.0000  15.2500  -1.0000 Du        
  11601 ****         1.0000  15.2500  -0.7500 Du        
  11602 ****         1.0000  15.2500  -0.5000 Du        
  11603 ****         1.0000  15.2500  -0.2500 Du        
  11604 ****         1.0000  15.2500  35.5000 Du        
  11605 ****         1.0000  15.2500  35.7500 Du        
  11606 ****         1.0000  15.2500  36.0000 Du        
  11607 ****         1.0000  15.2500  36.2500 Du        
  11608 ****         1.0000  15.2500  36.5000 Du        
  11609 ****         1.0000  15.2500  36.7500 Du        
  11610 ****         1.0000  15.2500  37.0000 Du        
  11611 ****         1.0000  15.5000  -1.7500 Du        
  11612 ****         1.0000  15.5000  -1.5000 Du        
  11613 ****         1.0000  15.5000  -1.2500 Du        
  11614 ****         1.0000  15.5000  -1.0000 Du        
  11615 ****         1.0000  15.5000  -0.7500 Du        
  11616 ****         1.0000  15.5000  -0.5000 Du        
  11617 ****         1.0000  15.5000  35.5000 Du        
  11618 ****         1.0000  15.5000  35.7500 Du        
  11619 ****         1.0000  15.5000  36.0000 Du        
  11620 ****         1.0000  15.5000  36.2500 Du        
  11621 ****         1.0000  15.5000  36.5000 Du        
  11622 ****         1.0000  15.7500  -2.0000 Du        
  11623 ****         1.0000  15.7500  -1.7500 Du        
  11624 ****         1.0000  15.7500  -1.5000 Du        
  11625 ****         1.0000  15.7500  -1.2500 Du        
  11626 ****         1.0000  15.7500  -1.0000 Du        
  11627 ****         1.0000  15.7500  -0.7500 Du        
  11628 ****         1.0000  15.7500  -0.5000 Du        
  11629 ****         1.0000  15.7500  35.5000 Du        
  11630 ****         1.0000  15.7500  35.7500 Du        
  11631 ****         1.0000  15.7500  36.0000 Du        
  11632 ****         1.0000  16.0000  -2.0000 Du        
  11633 ****         1.0000  16.0000  -1.7500 Du        
  11634 ****         1.0000  16.0000  -1.5000 Du        
  11635 ****         1.0000  16.0000  -1.2500 Du        
  11636 ****         1.0000  16.0000  -1.0000 Du        
  11637 ****         1.0000  16.0000  -0.7500 Du        
  11638 ****         1.0000  16.0000  -0.5000 Du        
  11639 ****         1.0000  16.2500  -2.0000 Du        
  11640 ****         1.0000  16.2500  -1.7500 Du        
  11641 ****         1.0000  16.2500  -1.5000 Du        
  11642 ****         1.0000  16.2500  -1.2500 Du        
  11643 ****         1.0000  16.2500  -1.0000 Du        
  11644 ****         1.0000  16.2500  -0.7500 Du        
  11645 ****         1.0000  16.5000  -1.7500 Du        
  11646 ****         1.0000  16.5000  -1.5000 Du        
  11647 ****         1.0000  16.5000  -1.2500 Du        
  11648 ****         1.0000  16.5000  -1.0000 Du        
  11649 ****         1.0000  16.5000  -0.7500 Du        
  11650 ****         1.0000  16.7500  -1.7500 Du        
  11651 ****         1.0000  16.7500  -1.5000 Du        
  11652 ****         1.0000  16.7500  -1.2500 Du        
  11653 ****         1.0000  16.7500  -1.0000 Du        
  11654 ****         1.0000  16.7500  -0.7500 Du        
  11655 ****         1.0000  17.0000  -1.7500 Du        
  11656 ****         1.0000  17.0000  -1.5000 Du        
  11657 ****         1.0000  17.0000  -1.2500 Du        
  11658 ****         1.0000  17.0000  -1.0000 Du        
  11659 ****         1.0000  17.2500  -1.5000 Du        
  11660 ****         1.0000  17.2500  -1.2500 Du        
  11661 ****         1.0000  17.2500  -1.0000 Du        
  11662 ****         1.0000  17.5000  -1.5000 Du        
  11663 ****         1.0000  17.5000  -1.2500 Du        
  11664 ****         1.0000  17.5000  -1.0000 Du        
  11665 ****         1.0000  17.7500  -1.7500 Du        
  11666 ****         1.0000  17.7500  -1.5000 Du        
  11667 ****         1.0000  17.7500  -1.2500 Du        
  11668 ****         1.0000  17.7500  -1.0000 Du        
  11669 ****         1.0000  18.0000  -1.7500 Du        
  11670 ****         1.0000  18.0000  -1.5000 Du        
  11671 ****         1.0000  18.0000  -1.2500 Du        
  11672 ****         1.0000  18.0000  -1.0000 Du        
  11673 ****         1.0000  18.2500  -1.7500 Du        
  11674 ****         1.0000  18.2500  -1.5000 Du        
  11675 ****         1.0000  18.2500  -1.2500 Du        
  11676 ****         1.0000  18.5000  -1.7500 Du        
  11677 ****         1.0000  18.5000  -1.5000 Du        
  11678 ****         1.0000  18.5000  -1.2500 Du        
  11679 ****         1.0000  18.7500  -2.0000 Du        
  11680 ****         1.0000  18.7500  -1.7500 Du        
  11681 ****         1.0000  18.7500  -1.5000 Du        
  11682 ****         1.0000  19.0000  -2.0000 Du        
  11683 ****         1.2500  -4.0000   7.7500 Du        
  11684 ****         1.2500  -4.0000   8.0000 Du        
  11685 ****         1.2500  -4.0000   8.2500 Du        
  11686 ****         1.2500  -4.0000  15.0000 Du        
  11687 ****         1.2500  -4.0000  15.2500 Du        
  11688 ****         1.2500  -4.0000  15.5000 Du        
  11689 ****         1.2500  -4.0000  15.7500 Du        
  11690 ****         1.2500  -4.0000  16.0000 Du        
  11691 ****         1.2500  -3.7500   7.7500 Du        
  11692 ****         1.2500  -3.7500   8.0000 Du        
  11693 ****         1.2500  -3.7500   8.2500 Du        
  11694 ****         1.2500  -3.7500   8.5000 Du        
  11695 ****         1.2500  -3.7500   8.7500 Du        
  11696 ****         1.2500  -3.7500  15.2500 Du        
  11697 ****         1.2500   2.5000  45.7500 Du        
  11698 ****         1.2500   2.5000  46.0000 Du        
  11699 ****         1.2500   2.5000  46.2500 Du        
  11700 ****         1.2500   2.7500  43.7500 Du        
  11701 ****         1.2500   2.7500  44.0000 Du        
  11702 ****         1.2500   2.7500  44.2500 Du        
  11703 ****         1.2500   2.7500  44.5000 Du        
  11704 ****         1.2500   2.7500  44.7500 Du        
  11705 ****         1.2500   2.7500  45.0000 Du        
  11706 ****         1.2500   2.7500  45.2500 Du        
  11707 ****         1.2500   2.7500  45.5000 Du        
  11708 ****         1.2500   2.7500  45.7500 Du        
  11709 ****         1.2500   2.7500  46.0000 Du        
  11710 ****         1.2500   2.7500  46.2500 Du        
  11711 ****         1.2500   3.0000  43.5000 Du        
  11712 ****         1.2500   3.0000  43.7500 Du        
  11713 ****         1.2500   3.0000  44.0000 Du        
  11714 ****         1.2500   3.0000  44.2500 Du        
  11715 ****         1.2500   3.0000  44.5000 Du        
  11716 ****         1.2500   3.0000  44.7500 Du        
  11717 ****         1.2500   3.0000  45.0000 Du        
  11718 ****         1.2500   3.0000  45.2500 Du        
  11719 ****         1.2500   3.0000  45.5000 Du        
  11720 ****         1.2500   3.0000  45.7500 Du        
  11721 ****         1.2500   3.0000  46.0000 Du        
  11722 ****         1.2500   3.0000  46.2500 Du        
  11723 ****         1.2500   3.2500  44.0000 Du        
  11724 ****         1.2500   3.2500  44.2500 Du        
  11725 ****         1.2500   3.2500  44.5000 Du        
  11726 ****         1.2500   3.2500  44.7500 Du        
  11727 ****         1.2500   3.2500  45.0000 Du        
  11728 ****         1.2500   3.2500  45.2500 Du        
  11729 ****         1.2500   3.2500  45.5000 Du        
  11730 ****         1.2500   3.2500  45.7500 Du        
  11731 ****         1.2500   3.2500  46.0000 Du        
  11732 ****         1.2500   3.2500  46.2500 Du        
  11733 ****         1.2500   3.5000  45.0000 Du        
  11734 ****         1.2500   3.5000  45.5000 Du        
  11735 ****         1.2500   3.5000  45.7500 Du        
  11736 ****         1.2500   3.5000  46.0000 Du        
  11737 ****         1.2500   3.5000  46.2500 Du        
  11738 ****         1.2500   7.5000  17.5000 Du        
  11739 ****         1.2500   7.7500  17.2500 Du        
  11740 ****         1.2500   7.7500  17.5000 Du        
  11741 ****         1.2500   7.7500  17.7500 Du        
  11742 ****         1.2500   8.0000  17.0000 Du        
  11743 ****         1.2500   8.0000  17.2500 Du        
  11744 ****         1.2500   8.0000  17.5000 Du        
  11745 ****         1.2500   8.0000  17.7500 Du        
  11746 ****         1.2500   8.0000  18.0000 Du        
  11747 ****         1.2500   8.2500  17.0000 Du        
  11748 ****         1.2500   8.2500  17.2500 Du        
  11749 ****         1.2500   8.2500  17.5000 Du        
  11750 ****         1.2500   8.2500  17.7500 Du        
  11751 ****         1.2500   8.5000  17.2500 Du        
  11752 ****         1.2500   8.5000  17.5000 Du        
  11753 ****         1.2500   8.5000  24.5000 Du        
  11754 ****         1.2500   8.5000  24.7500 Du        
  11755 ****         1.2500   8.5000  25.0000 Du        
  11756 ****         1.2500   8.5000  25.2500 Du        
  11757 ****         1.2500   8.5000  25.5000 Du        
  11758 ****         1.2500   8.5000  25.7500 Du        
  11759 ****         1.2500   8.5000  26.0000 Du        
  11760 ****         1.2500   8.5000  26.2500 Du        
  11761 ****         1.2500   8.5000  26.5000 Du        
  11762 ****         1.2500   8.5000  26.7500 Du        
  11763 ****         1.2500   8.5000  27.0000 Du        
  11764 ****         1.2500   8.5000  27.2500 Du        
  11765 ****         1.2500   8.5000  27.5000 Du        
  11766 ****         1.2500   8.5000  27.7500 Du        
  11767 ****         1.2500   8.5000  28.0000 Du        
  11768 ****         1.2500   8.5000  28.2500 Du        
  11769 ****         1.2500   8.5000  28.5000 Du        
  11770 ****         1.2500   8.5000  28.7500 Du        
  11771 ****         1.2500   8.7500  23.7500 Du        
  11772 ****         1.2500   8.7500  24.0000 Du        
  11773 ****         1.2500   8.7500  24.2500 Du        
  11774 ****         1.2500   8.7500  24.5000 Du        
  11775 ****         1.2500   8.7500  24.7500 Du        
  11776 ****         1.2500   8.7500  25.0000 Du        
  11777 ****         1.2500   8.7500  25.2500 Du        
  11778 ****         1.2500   8.7500  25.5000 Du        
  11779 ****         1.2500   8.7500  25.7500 Du        
  11780 ****         1.2500   8.7500  26.0000 Du        
  11781 ****         1.2500   8.7500  26.2500 Du        
  11782 ****         1.2500   8.7500  26.5000 Du        
  11783 ****         1.2500   8.7500  26.7500 Du        
  11784 ****         1.2500   8.7500  27.0000 Du        
  11785 ****         1.2500   8.7500  27.2500 Du        
  11786 ****         1.2500   8.7500  27.5000 Du        
  11787 ****         1.2500   8.7500  27.7500 Du        
  11788 ****         1.2500   8.7500  28.0000 Du        
  11789 ****         1.2500   8.7500  28.2500 Du        
  11790 ****         1.2500   8.7500  28.5000 Du        
  11791 ****         1.2500   8.7500  28.7500 Du        
  11792 ****         1.2500   9.0000  23.5000 Du        
  11793 ****         1.2500   9.0000  23.7500 Du        
  11794 ****         1.2500   9.0000  24.0000 Du        
  11795 ****         1.2500   9.0000  24.2500 Du        
  11796 ****         1.2500   9.0000  24.5000 Du        
  11797 ****         1.2500   9.0000  24.7500 Du        
  11798 ****         1.2500   9.0000  25.0000 Du        
  11799 ****         1.2500   9.0000  25.2500 Du        
  11800 ****         1.2500   9.0000  25.5000 Du        
  11801 ****         1.2500   9.0000  25.7500 Du        
  11802 ****         1.2500   9.0000  26.0000 Du        
  11803 ****         1.2500   9.0000  26.2500 Du        
  11804 ****         1.2500   9.0000  26.5000 Du        
  11805 ****         1.2500   9.0000  26.7500 Du        
  11806 ****         1.2500   9.0000  27.0000 Du        
  11807 ****         1.2500   9.0000  27.2500 Du        
  11808 ****         1.2500   9.0000  27.5000 Du        
  11809 ****         1.2500   9.0000  27.7500 Du        
  11810 ****         1.2500   9.0000  28.0000 Du        
  11811 ****         1.2500   9.0000  28.2500 Du        
  11812 ****         1.2500   9.2500  23.5000 Du        
  11813 ****         1.2500   9.2500  23.7500 Du        
  11814 ****         1.2500   9.2500  24.0000 Du        
  11815 ****         1.2500   9.2500  24.2500 Du        
  11816 ****         1.2500   9.2500  24.5000 Du        
  11817 ****         1.2500   9.2500  24.7500 Du        
  11818 ****         1.2500   9.2500  25.0000 Du        
  11819 ****         1.2500   9.2500  25.2500 Du        
  11820 ****         1.2500   9.2500  25.5000 Du        
  11821 ****         1.2500   9.2500  25.7500 Du        
  11822 ****         1.2500   9.2500  26.0000 Du        
  11823 ****         1.2500   9.2500  26.2500 Du        
  11824 ****         1.2500   9.2500  26.5000 Du        
  11825 ****         1.2500   9.2500  26.7500 Du        
  11826 ****         1.2500   9.2500  27.0000 Du        
  11827 ****         1.2500   9.2500  27.2500 Du        
  11828 ****         1.2500   9.2500  27.5000 Du        
  11829 ****         1.2500   9.2500  27.7500 Du        
  11830 ****         1.2500   9.2500  28.0000 Du        
  11831 ****         1.2500   9.5000  24.0000 Du        
  11832 ****         1.2500   9.5000  24.2500 Du        
  11833 ****         1.2500   9.5000  24.7500 Du        
  11834 ****         1.2500   9.5000  26.5000 Du        
  11835 ****         1.2500   9.5000  26.7500 Du        
  11836 ****         1.2500   9.5000  27.0000 Du        
  11837 ****         1.2500   9.5000  27.2500 Du        
  11838 ****         1.2500   9.5000  27.5000 Du        
  11839 ****         1.2500  12.0000   5.2500 Du        
  11840 ****         1.2500  12.0000   8.7500 Du        
  11841 ****         1.2500  12.0000   9.0000 Du        
  11842 ****         1.2500  12.2500   5.0000 Du        
  11843 ****         1.2500  12.2500   5.2500 Du        
  11844 ****         1.2500  12.2500   5.5000 Du        
  11845 ****         1.2500  12.2500   5.7500 Du        
  11846 ****         1.2500  12.2500   6.0000 Du        
  11847 ****         1.2500  12.2500   6.2500 Du        
  11848 ****         1.2500  12.2500   6.5000 Du        
  11849 ****         1.2500  12.2500   6.7500 Du        
  11850 ****         1.2500  12.2500   7.0000 Du        
  11851 ****         1.2500  12.2500   7.2500 Du        
  11852 ****         1.2500  12.2500   8.7500 Du        
  11853 ****         1.2500  12.2500   9.0000 Du        
  11854 ****         1.2500  12.5000   4.5000 Du        
  11855 ****         1.2500  12.5000   4.7500 Du        
  11856 ****         1.2500  12.5000   5.0000 Du        
  11857 ****         1.2500  12.5000   5.2500 Du        
  11858 ****         1.2500  12.5000   5.5000 Du        
  11859 ****         1.2500  12.5000   5.7500 Du        
  11860 ****         1.2500  12.5000   6.0000 Du        
  11861 ****         1.2500  12.5000   6.2500 Du        
  11862 ****         1.2500  12.5000   6.5000 Du        
  11863 ****         1.2500  12.5000   6.7500 Du        
  11864 ****         1.2500  12.7500   4.5000 Du        
  11865 ****         1.2500  12.7500   4.7500 Du        
  11866 ****         1.2500  12.7500   5.0000 Du        
  11867 ****         1.2500  12.7500   5.2500 Du        
  11868 ****         1.2500  12.7500   5.5000 Du        
  11869 ****         1.2500  12.7500   5.7500 Du        
  11870 ****         1.2500  12.7500   6.0000 Du        
  11871 ****         1.2500  12.7500   6.2500 Du        
  11872 ****         1.2500  13.0000   4.5000 Du        
  11873 ****         1.2500  13.0000   4.7500 Du        
  11874 ****         1.2500  13.0000   5.0000 Du        
  11875 ****         1.2500  13.0000   5.2500 Du        
  11876 ****         1.2500  13.0000   5.5000 Du        
  11877 ****         1.2500  13.0000   5.7500 Du        
  11878 ****         1.2500  13.2500   4.5000 Du        
  11879 ****         1.2500  13.2500   4.7500 Du        
  11880 ****         1.2500  13.2500   5.0000 Du        
  11881 ****         1.2500  13.5000  36.5000 Du        
  11882 ****         1.2500  13.5000  36.7500 Du        
  11883 ****         1.2500  13.5000  37.0000 Du        
  11884 ****         1.2500  13.5000  37.2500 Du        
  11885 ****         1.2500  13.5000  37.5000 Du        
  11886 ****         1.2500  13.7500  36.2500 Du        
  11887 ****         1.2500  13.7500  36.5000 Du        
  11888 ****         1.2500  13.7500  36.7500 Du        
  11889 ****         1.2500  13.7500  37.0000 Du        
  11890 ****         1.2500  13.7500  37.2500 Du        
  11891 ****         1.2500  13.7500  37.5000 Du        
  11892 ****         1.2500  13.7500  37.7500 Du        
  11893 ****         1.2500  13.7500  38.0000 Du        
  11894 ****         1.2500  14.0000   0.5000 Du        
  11895 ****         1.2500  14.0000  36.0000 Du        
  11896 ****         1.2500  14.0000  36.2500 Du        
  11897 ****         1.2500  14.0000  36.5000 Du        
  11898 ****         1.2500  14.0000  36.7500 Du        
  11899 ****         1.2500  14.0000  37.0000 Du        
  11900 ****         1.2500  14.0000  37.2500 Du        
  11901 ****         1.2500  14.0000  37.5000 Du        
  11902 ****         1.2500  14.0000  37.7500 Du        
  11903 ****         1.2500  14.0000  38.0000 Du        
  11904 ****         1.2500  14.0000  38.2500 Du        
  11905 ****         1.2500  14.2500   0.2500 Du        
  11906 ****         1.2500  14.2500   0.5000 Du        
  11907 ****         1.2500  14.2500   0.7500 Du        
  11908 ****         1.2500  14.2500  36.0000 Du        
  11909 ****         1.2500  14.2500  36.2500 Du        
  11910 ****         1.2500  14.2500  36.5000 Du        
  11911 ****         1.2500  14.2500  36.7500 Du        
  11912 ****         1.2500  14.2500  37.0000 Du        
  11913 ****         1.2500  14.2500  37.2500 Du        
  11914 ****         1.2500  14.2500  37.5000 Du        
  11915 ****         1.2500  14.2500  37.7500 Du        
  11916 ****         1.2500  14.2500  38.0000 Du        
  11917 ****         1.2500  14.2500  38.2500 Du        
  11918 ****         1.2500  14.5000   0.0000 Du        
  11919 ****         1.2500  14.5000   0.2500 Du        
  11920 ****         1.2500  14.5000  35.7500 Du        
  11921 ****         1.2500  14.5000  36.0000 Du        
  11922 ****         1.2500  14.5000  36.2500 Du        
  11923 ****         1.2500  14.5000  36.5000 Du        
  11924 ****         1.2500  14.5000  36.7500 Du        
  11925 ****         1.2500  14.5000  37.0000 Du        
  11926 ****         1.2500  14.5000  37.2500 Du        
  11927 ****         1.2500  14.5000  37.5000 Du        
  11928 ****         1.2500  14.5000  37.7500 Du        
  11929 ****         1.2500  14.5000  38.0000 Du        
  11930 ****         1.2500  14.5000  38.2500 Du        
  11931 ****         1.2500  14.5000  38.5000 Du        
  11932 ****         1.2500  14.5000  38.7500 Du        
  11933 ****         1.2500  14.7500   0.0000 Du        
  11934 ****         1.2500  14.7500   0.2500 Du        
  11935 ****         1.2500  14.7500  35.7500 Du        
  11936 ****         1.2500  14.7500  36.0000 Du        
  11937 ****         1.2500  14.7500  36.2500 Du        
  11938 ****         1.2500  14.7500  36.5000 Du        
  11939 ****         1.2500  14.7500  36.7500 Du        
  11940 ****         1.2500  14.7500  37.0000 Du        
  11941 ****         1.2500  14.7500  37.2500 Du        
  11942 ****         1.2500  14.7500  37.5000 Du        
  11943 ****         1.2500  14.7500  37.7500 Du        
  11944 ****         1.2500  14.7500  38.0000 Du        
  11945 ****         1.2500  14.7500  38.2500 Du        
  11946 ****         1.2500  15.0000  -0.5000 Du        
  11947 ****         1.2500  15.0000  -0.2500 Du        
  11948 ****         1.2500  15.0000   0.0000 Du        
  11949 ****         1.2500  15.0000  35.7500 Du        
  11950 ****         1.2500  15.0000  36.0000 Du        
  11951 ****         1.2500  15.0000  36.2500 Du        
  11952 ****         1.2500  15.0000  36.5000 Du        
  11953 ****         1.2500  15.0000  36.7500 Du        
  11954 ****         1.2500  15.0000  37.0000 Du        
  11955 ****         1.2500  15.0000  37.2500 Du        
  11956 ****         1.2500  15.0000  37.5000 Du        
  11957 ****         1.2500  15.2500  -1.0000 Du        
  11958 ****         1.2500  15.2500  -0.7500 Du        
  11959 ****         1.2500  15.2500  -0.5000 Du        
  11960 ****         1.2500  15.2500  -0.2500 Du        
  11961 ****         1.2500  15.2500   0.0000 Du        
  11962 ****         1.2500  15.2500  35.7500 Du        
  11963 ****         1.2500  15.2500  36.0000 Du        
  11964 ****         1.2500  15.2500  36.2500 Du        
  11965 ****         1.2500  15.2500  36.5000 Du        
  11966 ****         1.2500  15.2500  36.7500 Du        
  11967 ****         1.2500  15.5000  -1.2500 Du        
  11968 ****         1.2500  15.5000  -1.0000 Du        
  11969 ****         1.2500  15.5000  -0.7500 Du        
  11970 ****         1.2500  15.5000  -0.5000 Du        
  11971 ****         1.2500  15.5000  -0.2500 Du        
  11972 ****         1.2500  15.5000  35.7500 Du        
  11973 ****         1.2500  15.5000  36.0000 Du        
  11974 ****         1.2500  15.5000  36.2500 Du        
  11975 ****         1.2500  15.7500  -2.0000 Du        
  11976 ****         1.2500  15.7500  -1.7500 Du        
  11977 ****         1.2500  15.7500  -1.5000 Du        
  11978 ****         1.2500  15.7500  -1.2500 Du        
  11979 ****         1.2500  15.7500  -1.0000 Du        
  11980 ****         1.2500  15.7500  -0.7500 Du        
  11981 ****         1.2500  15.7500  -0.5000 Du        
  11982 ****         1.2500  16.0000  -2.2500 Du        
  11983 ****         1.2500  16.0000  -2.0000 Du        
  11984 ****         1.2500  16.0000  -1.7500 Du        
  11985 ****         1.2500  16.0000  -1.5000 Du        
  11986 ****         1.2500  16.0000  -1.2500 Du        
  11987 ****         1.2500  16.0000  -1.0000 Du        
  11988 ****         1.2500  16.0000  -0.7500 Du        
  11989 ****         1.2500  16.0000  -0.5000 Du        
  11990 ****         1.2500  16.2500  -2.2500 Du        
  11991 ****         1.2500  16.2500  -2.0000 Du        
  11992 ****         1.2500  16.2500  -1.7500 Du        
  11993 ****         1.2500  16.2500  -1.5000 Du        
  11994 ****         1.2500  16.2500  -1.2500 Du        
  11995 ****         1.2500  16.2500  -1.0000 Du        
  11996 ****         1.2500  16.2500  -0.7500 Du        
  11997 ****         1.2500  16.2500  -0.5000 Du        
  11998 ****         1.2500  16.5000  -1.7500 Du        
  11999 ****         1.2500  16.5000  -1.5000 Du        
  12000 ****         1.2500  16.5000  -1.2500 Du        
  12001 ****         1.2500  16.5000  -1.0000 Du        
  12002 ****         1.2500  16.5000  -0.7500 Du        
  12003 ****         1.2500  16.7500  -1.7500 Du        
  12004 ****         1.2500  16.7500  -1.5000 Du        
  12005 ****         1.2500  16.7500  -1.2500 Du        
  12006 ****         1.2500  16.7500  -1.0000 Du        
  12007 ****         1.2500  16.7500  -0.7500 Du        
  12008 ****         1.2500  17.0000  -1.7500 Du        
  12009 ****         1.2500  17.0000  -1.5000 Du        
  12010 ****         1.2500  17.0000  -1.2500 Du        
  12011 ****         1.2500  17.0000  -1.0000 Du        
  12012 ****         1.2500  17.0000  -0.7500 Du        
  12013 ****         1.2500  17.2500  -1.7500 Du        
  12014 ****         1.2500  17.2500  -1.5000 Du        
  12015 ****         1.2500  17.2500  -1.2500 Du        
  12016 ****         1.2500  17.2500  -1.0000 Du        
  12017 ****         1.2500  17.2500  -0.7500 Du        
  12018 ****         1.2500  17.5000  -1.7500 Du        
  12019 ****         1.2500  17.5000  -1.5000 Du        
  12020 ****         1.2500  17.5000  -1.2500 Du        
  12021 ****         1.2500  17.5000  -1.0000 Du        
  12022 ****         1.2500  17.5000  -0.7500 Du        
  12023 ****         1.2500  17.7500  -1.7500 Du        
  12024 ****         1.2500  17.7500  -1.5000 Du        
  12025 ****         1.2500  17.7500  -1.2500 Du        
  12026 ****         1.2500  17.7500  -1.0000 Du        
  12027 ****         1.2500  17.7500  -0.7500 Du        
  12028 ****         1.2500  18.0000  -1.7500 Du        
  12029 ****         1.2500  18.0000  -1.5000 Du        
  12030 ****         1.2500  18.0000  -1.2500 Du        
  12031 ****         1.2500  18.0000  -1.0000 Du        
  12032 ****         1.2500  18.2500  -1.7500 Du        
  12033 ****         1.2500  18.2500  -1.5000 Du        
  12034 ****         1.2500  18.2500  -1.2500 Du        
  12035 ****         1.2500  18.2500  -1.0000 Du        
  12036 ****         1.2500  18.5000  -2.0000 Du        
  12037 ****         1.2500  18.5000  -1.7500 Du        
  12038 ****         1.2500  18.5000  -1.5000 Du        
  12039 ****         1.2500  18.5000  -1.2500 Du        
  12040 ****         1.2500  18.7500  -2.0000 Du        
  12041 ****         1.2500  18.7500  -1.7500 Du        
  12042 ****         1.2500  18.7500  -1.5000 Du        
  12043 ****         1.2500  19.0000  -2.2500 Du        
  12044 ****         1.2500  19.0000  -2.0000 Du        
  12045 ****         1.2500  19.0000  -1.7500 Du        
  12046 ****         1.2500  19.0000  -1.5000 Du        
  12047 ****         1.2500  19.2500  -2.2500 Du        
  12048 ****         1.2500  19.2500  -2.0000 Du        
  12049 ****         1.2500  19.2500  -1.7500 Du        
  12050 ****         1.2500  19.5000  -2.2500 Du        
  12051 ****         1.2500  19.5000  -2.0000 Du        
  12052 ****         1.2500  19.7500  -2.2500 Du        
  12053 ****         1.2500  19.7500  -2.0000 Du        
  12054 ****         1.5000   2.5000  45.7500 Du        
  12055 ****         1.5000   2.5000  46.0000 Du        
  12056 ****         1.5000   2.5000  46.2500 Du        
  12057 ****         1.5000   2.7500  44.0000 Du        
  12058 ****         1.5000   2.7500  44.2500 Du        
  12059 ****         1.5000   2.7500  44.5000 Du        
  12060 ****         1.5000   2.7500  44.7500 Du        
  12061 ****         1.5000   2.7500  45.0000 Du        
  12062 ****         1.5000   2.7500  45.2500 Du        
  12063 ****         1.5000   2.7500  45.5000 Du        
  12064 ****         1.5000   2.7500  45.7500 Du        
  12065 ****         1.5000   2.7500  46.0000 Du        
  12066 ****         1.5000   2.7500  46.2500 Du        
  12067 ****         1.5000   3.0000  43.5000 Du        
  12068 ****         1.5000   3.0000  43.7500 Du        
  12069 ****         1.5000   3.0000  44.0000 Du        
  12070 ****         1.5000   3.0000  44.2500 Du        
  12071 ****         1.5000   3.0000  44.5000 Du        
  12072 ****         1.5000   3.0000  44.7500 Du        
  12073 ****         1.5000   3.0000  45.0000 Du        
  12074 ****         1.5000   3.0000  45.2500 Du        
  12075 ****         1.5000   3.0000  45.5000 Du        
  12076 ****         1.5000   3.0000  45.7500 Du        
  12077 ****         1.5000   3.0000  46.0000 Du        
  12078 ****         1.5000   3.0000  46.2500 Du        
  12079 ****         1.5000   3.2500  43.7500 Du        
  12080 ****         1.5000   3.2500  44.0000 Du        
  12081 ****         1.5000   3.2500  44.2500 Du        
  12082 ****         1.5000   3.2500  44.5000 Du        
  12083 ****         1.5000   3.2500  44.7500 Du        
  12084 ****         1.5000   3.2500  45.0000 Du        
  12085 ****         1.5000   3.2500  45.2500 Du        
  12086 ****         1.5000   3.2500  45.5000 Du        
  12087 ****         1.5000   3.2500  45.7500 Du        
  12088 ****         1.5000   3.2500  46.0000 Du        
  12089 ****         1.5000   3.2500  46.2500 Du        
  12090 ****         1.5000   3.5000  44.0000 Du        
  12091 ****         1.5000   3.5000  44.2500 Du        
  12092 ****         1.5000   3.5000  44.5000 Du        
  12093 ****         1.5000   3.5000  44.7500 Du        
  12094 ****         1.5000   3.5000  45.0000 Du        
  12095 ****         1.5000   3.5000  45.2500 Du        
  12096 ****         1.5000   3.5000  45.5000 Du        
  12097 ****         1.5000   3.5000  45.7500 Du        
  12098 ****         1.5000   3.5000  46.0000 Du        
  12099 ****         1.5000   3.5000  46.2500 Du        
  12100 ****         1.5000   3.7500  46.0000 Du        
  12101 ****         1.5000   3.7500  46.2500 Du        
  12102 ****         1.5000   8.5000  25.7500 Du        
  12103 ****         1.5000   8.5000  26.0000 Du        
  12104 ****         1.5000   8.5000  26.2500 Du        
  12105 ****         1.5000   8.5000  26.5000 Du        
  12106 ****         1.5000   8.5000  26.7500 Du        
  12107 ****         1.5000   8.5000  27.0000 Du        
  12108 ****         1.5000   8.5000  27.2500 Du        
  12109 ****         1.5000   8.5000  27.5000 Du        
  12110 ****         1.5000   8.5000  27.7500 Du        
  12111 ****         1.5000   8.5000  28.0000 Du        
  12112 ****         1.5000   8.5000  28.2500 Du        
  12113 ****         1.5000   8.5000  28.5000 Du        
  12114 ****         1.5000   8.5000  28.7500 Du        
  12115 ****         1.5000   8.7500  24.7500 Du        
  12116 ****         1.5000   8.7500  25.0000 Du        
  12117 ****         1.5000   8.7500  25.2500 Du        
  12118 ****         1.5000   8.7500  25.5000 Du        
  12119 ****         1.5000   8.7500  25.7500 Du        
  12120 ****         1.5000   8.7500  26.0000 Du        
  12121 ****         1.5000   8.7500  26.2500 Du        
  12122 ****         1.5000   8.7500  26.5000 Du        
  12123 ****         1.5000   8.7500  26.7500 Du        
  12124 ****         1.5000   8.7500  27.0000 Du        
  12125 ****         1.5000   8.7500  27.2500 Du        
  12126 ****         1.5000   8.7500  27.5000 Du        
  12127 ****         1.5000   8.7500  27.7500 Du        
  12128 ****         1.5000   8.7500  28.0000 Du        
  12129 ****         1.5000   8.7500  28.2500 Du        
  12130 ****         1.5000   8.7500  28.5000 Du        
  12131 ****         1.5000   8.7500  28.7500 Du        
  12132 ****         1.5000   9.0000  24.5000 Du        
  12133 ****         1.5000   9.0000  24.7500 Du        
  12134 ****         1.5000   9.0000  25.0000 Du        
  12135 ****         1.5000   9.0000  25.2500 Du        
  12136 ****         1.5000   9.0000  25.5000 Du        
  12137 ****         1.5000   9.0000  25.7500 Du        
  12138 ****         1.5000   9.0000  26.0000 Du        
  12139 ****         1.5000   9.0000  26.2500 Du        
  12140 ****         1.5000   9.0000  26.5000 Du        
  12141 ****         1.5000   9.0000  26.7500 Du        
  12142 ****         1.5000   9.0000  27.0000 Du        
  12143 ****         1.5000   9.0000  27.2500 Du        
  12144 ****         1.5000   9.0000  27.5000 Du        
  12145 ****         1.5000   9.0000  27.7500 Du        
  12146 ****         1.5000   9.0000  28.0000 Du        
  12147 ****         1.5000   9.0000  28.2500 Du        
  12148 ****         1.5000   9.2500  24.5000 Du        
  12149 ****         1.5000   9.2500  24.7500 Du        
  12150 ****         1.5000   9.2500  25.0000 Du        
  12151 ****         1.5000   9.2500  25.2500 Du        
  12152 ****         1.5000   9.2500  25.5000 Du        
  12153 ****         1.5000   9.2500  25.7500 Du        
  12154 ****         1.5000   9.2500  26.0000 Du        
  12155 ****         1.5000   9.2500  26.2500 Du        
  12156 ****         1.5000   9.2500  26.5000 Du        
  12157 ****         1.5000   9.2500  26.7500 Du        
  12158 ****         1.5000   9.2500  27.0000 Du        
  12159 ****         1.5000   9.2500  27.2500 Du        
  12160 ****         1.5000   9.2500  27.5000 Du        
  12161 ****         1.5000   9.2500  27.7500 Du        
  12162 ****         1.5000   9.2500  28.0000 Du        
  12163 ****         1.5000   9.5000  24.2500 Du        
  12164 ****         1.5000   9.5000  25.7500 Du        
  12165 ****         1.5000   9.5000  26.0000 Du        
  12166 ****         1.5000   9.5000  26.2500 Du        
  12167 ****         1.5000   9.5000  26.5000 Du        
  12168 ****         1.5000   9.5000  26.7500 Du        
  12169 ****         1.5000   9.5000  27.0000 Du        
  12170 ****         1.5000   9.5000  27.2500 Du        
  12171 ****         1.5000   9.5000  27.5000 Du        
  12172 ****         1.5000   9.5000  27.7500 Du        
  12173 ****         1.5000  12.0000   5.2500 Du        
  12174 ****         1.5000  12.2500   5.0000 Du        
  12175 ****         1.5000  12.2500   5.2500 Du        
  12176 ****         1.5000  12.5000   4.7500 Du        
  12177 ****         1.5000  12.5000   5.0000 Du        
  12178 ****         1.5000  12.5000   5.2500 Du        
  12179 ****         1.5000  12.5000   5.5000 Du        
  12180 ****         1.5000  12.5000   5.7500 Du        
  12181 ****         1.5000  12.5000   6.0000 Du        
  12182 ****         1.5000  12.5000   6.2500 Du        
  12183 ****         1.5000  12.5000   6.5000 Du        
  12184 ****         1.5000  12.5000   6.7500 Du        
  12185 ****         1.5000  12.5000   7.0000 Du        
  12186 ****         1.5000  12.5000   7.2500 Du        
  12187 ****         1.5000  12.7500   4.7500 Du        
  12188 ****         1.5000  12.7500   5.0000 Du        
  12189 ****         1.5000  12.7500   5.2500 Du        
  12190 ****         1.5000  12.7500   5.5000 Du        
  12191 ****         1.5000  12.7500   5.7500 Du        
  12192 ****         1.5000  12.7500   6.0000 Du        
  12193 ****         1.5000  12.7500   6.2500 Du        
  12194 ****         1.5000  12.7500   6.5000 Du        
  12195 ****         1.5000  13.0000   4.7500 Du        
  12196 ****         1.5000  13.0000   5.0000 Du        
  12197 ****         1.5000  13.0000   5.2500 Du        
  12198 ****         1.5000  13.0000   5.5000 Du        
  12199 ****         1.5000  13.0000   5.7500 Du        
  12200 ****         1.5000  13.0000   6.0000 Du        
  12201 ****         1.5000  13.2500   5.0000 Du        
  12202 ****         1.5000  13.2500   5.2500 Du        
  12203 ****         1.5000  13.2500   5.5000 Du        
  12204 ****         1.5000  13.2500  37.2500 Du        
  12205 ****         1.5000  13.5000   5.0000 Du        
  12206 ****         1.5000  13.5000  36.0000 Du        
  12207 ****         1.5000  13.5000  36.2500 Du        
  12208 ****         1.5000  13.5000  36.5000 Du        
  12209 ****         1.5000  13.5000  36.7500 Du        
  12210 ****         1.5000  13.5000  37.0000 Du        
  12211 ****         1.5000  13.5000  37.2500 Du        
  12212 ****         1.5000  13.5000  37.5000 Du        
  12213 ****         1.5000  13.5000  37.7500 Du        
  12214 ****         1.5000  13.5000  38.0000 Du        
  12215 ****         1.5000  13.7500  36.0000 Du        
  12216 ****         1.5000  13.7500  36.2500 Du        
  12217 ****         1.5000  13.7500  36.5000 Du        
  12218 ****         1.5000  13.7500  36.7500 Du        
  12219 ****         1.5000  13.7500  37.0000 Du        
  12220 ****         1.5000  13.7500  37.2500 Du        
  12221 ****         1.5000  13.7500  37.5000 Du        
  12222 ****         1.5000  13.7500  37.7500 Du        
  12223 ****         1.5000  13.7500  38.0000 Du        
  12224 ****         1.5000  13.7500  38.2500 Du        
  12225 ****         1.5000  14.0000  36.0000 Du        
  12226 ****         1.5000  14.0000  36.2500 Du        
  12227 ****         1.5000  14.0000  36.5000 Du        
  12228 ****         1.5000  14.0000  36.7500 Du        
  12229 ****         1.5000  14.0000  37.0000 Du        
  12230 ****         1.5000  14.0000  37.2500 Du        
  12231 ****         1.5000  14.0000  37.5000 Du        
  12232 ****         1.5000  14.0000  37.7500 Du        
  12233 ****         1.5000  14.0000  38.0000 Du        
  12234 ****         1.5000  14.0000  38.2500 Du        
  12235 ****         1.5000  14.2500  35.7500 Du        
  12236 ****         1.5000  14.2500  36.0000 Du        
  12237 ****         1.5000  14.2500  36.2500 Du        
  12238 ****         1.5000  14.2500  36.5000 Du        
  12239 ****         1.5000  14.2500  36.7500 Du        
  12240 ****         1.5000  14.2500  37.0000 Du        
  12241 ****         1.5000  14.2500  37.2500 Du        
  12242 ****         1.5000  14.2500  37.5000 Du        
  12243 ****         1.5000  14.2500  37.7500 Du        
  12244 ****         1.5000  14.2500  38.0000 Du        
  12245 ****         1.5000  14.2500  38.2500 Du        
  12246 ****         1.5000  14.5000  35.7500 Du        
  12247 ****         1.5000  14.5000  36.0000 Du        
  12248 ****         1.5000  14.5000  36.2500 Du        
  12249 ****         1.5000  14.5000  36.5000 Du        
  12250 ****         1.5000  14.5000  36.7500 Du        
  12251 ****         1.5000  14.5000  37.0000 Du        
  12252 ****         1.5000  14.5000  37.2500 Du        
  12253 ****         1.5000  14.5000  37.5000 Du        
  12254 ****         1.5000  14.5000  37.7500 Du        
  12255 ****         1.5000  14.5000  38.0000 Du        
  12256 ****         1.5000  14.5000  38.2500 Du        
  12257 ****         1.5000  14.5000  38.5000 Du        
  12258 ****         1.5000  14.5000  38.7500 Du        
  12259 ****         1.5000  14.7500  35.7500 Du        
  12260 ****         1.5000  14.7500  36.0000 Du        
  12261 ****         1.5000  14.7500  36.2500 Du        
  12262 ****         1.5000  14.7500  36.5000 Du        
  12263 ****         1.5000  14.7500  36.7500 Du        
  12264 ****         1.5000  14.7500  37.0000 Du        
  12265 ****         1.5000  14.7500  37.2500 Du        
  12266 ****         1.5000  14.7500  37.5000 Du        
  12267 ****         1.5000  14.7500  37.7500 Du        
  12268 ****         1.5000  14.7500  38.0000 Du        
  12269 ****         1.5000  14.7500  38.2500 Du        
  12270 ****         1.5000  15.0000   0.0000 Du        
  12271 ****         1.5000  15.0000  35.7500 Du        
  12272 ****         1.5000  15.0000  36.0000 Du        
  12273 ****         1.5000  15.0000  36.2500 Du        
  12274 ****         1.5000  15.0000  36.5000 Du        
  12275 ****         1.5000  15.0000  36.7500 Du        
  12276 ****         1.5000  15.0000  37.0000 Du        
  12277 ****         1.5000  15.0000  37.2500 Du        
  12278 ****         1.5000  15.2500  -0.5000 Du        
  12279 ****         1.5000  15.2500  -0.2500 Du        
  12280 ****         1.5000  15.2500  36.0000 Du        
  12281 ****         1.5000  15.2500  36.2500 Du        
  12282 ****         1.5000  15.2500  36.5000 Du        
  12283 ****         1.5000  15.5000  -1.0000 Du        
  12284 ****         1.5000  15.5000  -0.7500 Du        
  12285 ****         1.5000  15.5000  -0.5000 Du        
  12286 ****         1.5000  15.5000  -0.2500 Du        
  12287 ****         1.5000  15.7500  -2.0000 Du        
  12288 ****         1.5000  15.7500  -1.7500 Du        
  12289 ****         1.5000  15.7500  -1.5000 Du        
  12290 ****         1.5000  15.7500  -1.2500 Du        
  12291 ****         1.5000  15.7500  -1.0000 Du        
  12292 ****         1.5000  15.7500  -0.7500 Du        
  12293 ****         1.5000  15.7500  -0.5000 Du        
  12294 ****         1.5000  15.7500  -0.2500 Du        
  12295 ****         1.5000  16.0000  -2.2500 Du        
  12296 ****         1.5000  16.0000  -2.0000 Du        
  12297 ****         1.5000  16.0000  -1.7500 Du        
  12298 ****         1.5000  16.0000  -1.5000 Du        
  12299 ****         1.5000  16.0000  -1.2500 Du        
  12300 ****         1.5000  16.0000  -1.0000 Du        
  12301 ****         1.5000  16.0000  -0.7500 Du        
  12302 ****         1.5000  16.0000  -0.5000 Du        
  12303 ****         1.5000  16.2500  -2.5000 Du        
  12304 ****         1.5000  16.2500  -2.2500 Du        
  12305 ****         1.5000  16.2500  -2.0000 Du        
  12306 ****         1.5000  16.2500  -1.7500 Du        
  12307 ****         1.5000  16.2500  -1.5000 Du        
  12308 ****         1.5000  16.2500  -1.2500 Du        
  12309 ****         1.5000  16.2500  -1.0000 Du        
  12310 ****         1.5000  16.2500  -0.7500 Du        
  12311 ****         1.5000  16.2500  -0.5000 Du        
  12312 ****         1.5000  16.5000  -2.5000 Du        
  12313 ****         1.5000  16.5000  -2.2500 Du        
  12314 ****         1.5000  16.5000  -2.0000 Du        
  12315 ****         1.5000  16.5000  -1.7500 Du        
  12316 ****         1.5000  16.5000  -1.5000 Du        
  12317 ****         1.5000  16.5000  -1.2500 Du        
  12318 ****         1.5000  16.5000  -1.0000 Du        
  12319 ****         1.5000  16.5000  -0.7500 Du        
  12320 ****         1.5000  16.5000  -0.5000 Du        
  12321 ****         1.5000  16.7500  -2.5000 Du        
  12322 ****         1.5000  16.7500  -2.2500 Du        
  12323 ****         1.5000  16.7500  -2.0000 Du        
  12324 ****         1.5000  16.7500  -1.7500 Du        
  12325 ****         1.5000  16.7500  -1.5000 Du        
  12326 ****         1.5000  16.7500  -1.2500 Du        
  12327 ****         1.5000  16.7500  -1.0000 Du        
  12328 ****         1.5000  16.7500  -0.7500 Du        
  12329 ****         1.5000  16.7500  -0.5000 Du        
  12330 ****         1.5000  17.0000  -2.2500 Du        
  12331 ****         1.5000  17.0000  -2.0000 Du        
  12332 ****         1.5000  17.0000  -1.7500 Du        
  12333 ****         1.5000  17.0000  -1.5000 Du        
  12334 ****         1.5000  17.0000  -1.2500 Du        
  12335 ****         1.5000  17.0000  -1.0000 Du        
  12336 ****         1.5000  17.0000  -0.7500 Du        
  12337 ****         1.5000  17.2500  -2.2500 Du        
  12338 ****         1.5000  17.2500  -2.0000 Du        
  12339 ****         1.5000  17.2500  -1.7500 Du        
  12340 ****         1.5000  17.2500  -1.5000 Du        
  12341 ****         1.5000  17.2500  -1.2500 Du        
  12342 ****         1.5000  17.2500  -1.0000 Du        
  12343 ****         1.5000  17.2500  -0.7500 Du        
  12344 ****         1.5000  17.5000  -2.0000 Du        
  12345 ****         1.5000  17.5000  -1.7500 Du        
  12346 ****         1.5000  17.5000  -1.5000 Du        
  12347 ****         1.5000  17.5000  -1.2500 Du        
  12348 ****         1.5000  17.5000  -1.0000 Du        
  12349 ****         1.5000  17.5000  -0.7500 Du        
  12350 ****         1.5000  17.7500  -2.0000 Du        
  12351 ****         1.5000  17.7500  -1.7500 Du        
  12352 ****         1.5000  17.7500  -1.5000 Du        
  12353 ****         1.5000  17.7500  -1.2500 Du        
  12354 ****         1.5000  17.7500  -1.0000 Du        
  12355 ****         1.5000  17.7500  -0.7500 Du        
  12356 ****         1.5000  18.0000  -2.2500 Du        
  12357 ****         1.5000  18.0000  -2.0000 Du        
  12358 ****         1.5000  18.0000  -1.7500 Du        
  12359 ****         1.5000  18.0000  -1.5000 Du        
  12360 ****         1.5000  18.0000  -1.2500 Du        
  12361 ****         1.5000  18.0000  -1.0000 Du        
  12362 ****         1.5000  18.0000  -0.7500 Du        
  12363 ****         1.5000  18.2500  -2.2500 Du        
  12364 ****         1.5000  18.2500  -2.0000 Du        
  12365 ****         1.5000  18.2500  -1.7500 Du        
  12366 ****         1.5000  18.2500  -1.5000 Du        
  12367 ****         1.5000  18.2500  -1.2500 Du        
  12368 ****         1.5000  18.2500  -1.0000 Du        
  12369 ****         1.5000  18.5000  -2.0000 Du        
  12370 ****         1.5000  18.5000  -1.7500 Du        
  12371 ****         1.5000  18.5000  -1.5000 Du        
  12372 ****         1.5000  18.5000  -1.2500 Du        
  12373 ****         1.5000  18.5000  -1.0000 Du        
  12374 ****         1.5000  18.7500  -2.2500 Du        
  12375 ****         1.5000  18.7500  -2.0000 Du        
  12376 ****         1.5000  18.7500  -1.7500 Du        
  12377 ****         1.5000  18.7500  -1.5000 Du        
  12378 ****         1.5000  18.7500  -1.2500 Du        
  12379 ****         1.5000  19.0000  -2.5000 Du        
  12380 ****         1.5000  19.0000  -2.2500 Du        
  12381 ****         1.5000  19.0000  -2.0000 Du        
  12382 ****         1.5000  19.0000  -1.7500 Du        
  12383 ****         1.5000  19.0000  -1.5000 Du        
  12384 ****         1.5000  19.2500  -2.5000 Du        
  12385 ****         1.5000  19.2500  -2.2500 Du        
  12386 ****         1.5000  19.2500  -2.0000 Du        
  12387 ****         1.5000  19.2500  -1.7500 Du        
  12388 ****         1.5000  19.2500  -1.5000 Du        
  12389 ****         1.5000  19.5000  -2.5000 Du        
  12390 ****         1.5000  19.5000  -2.2500 Du        
  12391 ****         1.5000  19.5000  -2.0000 Du        
  12392 ****         1.5000  19.5000  -1.7500 Du        
  12393 ****         1.5000  19.7500  -2.5000 Du        
  12394 ****         1.5000  19.7500  -2.2500 Du        
  12395 ****         1.5000  19.7500  -2.0000 Du        
  12396 ****         1.5000  20.0000  -2.5000 Du        
  12397 ****         1.5000  20.0000  -2.2500 Du        
  12398 ****         1.5000  20.0000  -2.0000 Du        
  12399 ****         1.5000  20.2500  -2.5000 Du        
  12400 ****         1.5000  20.2500  -2.2500 Du        
  12401 ****         1.5000  20.5000  -2.5000 Du        
  12402 ****         1.7500  -4.0000   8.5000 Du        
  12403 ****         1.7500  -4.0000   8.7500 Du        
  12404 ****         1.7500  -3.7500   8.7500 Du        
  12405 ****         1.7500   2.5000  45.7500 Du        
  12406 ****         1.7500   2.5000  46.0000 Du        
  12407 ****         1.7500   2.5000  46.2500 Du        
  12408 ****         1.7500   2.7500  44.5000 Du        
  12409 ****         1.7500   2.7500  44.7500 Du        
  12410 ****         1.7500   2.7500  45.0000 Du        
  12411 ****         1.7500   2.7500  45.2500 Du        
  12412 ****         1.7500   2.7500  45.5000 Du        
  12413 ****         1.7500   2.7500  45.7500 Du        
  12414 ****         1.7500   2.7500  46.0000 Du        
  12415 ****         1.7500   2.7500  46.2500 Du        
  12416 ****         1.7500   3.0000  43.5000 Du        
  12417 ****         1.7500   3.0000  43.7500 Du        
  12418 ****         1.7500   3.0000  44.0000 Du        
  12419 ****         1.7500   3.0000  44.2500 Du        
  12420 ****         1.7500   3.0000  44.5000 Du        
  12421 ****         1.7500   3.0000  44.7500 Du        
  12422 ****         1.7500   3.0000  45.0000 Du        
  12423 ****         1.7500   3.0000  45.2500 Du        
  12424 ****         1.7500   3.0000  45.5000 Du        
  12425 ****         1.7500   3.0000  45.7500 Du        
  12426 ****         1.7500   3.0000  46.0000 Du        
  12427 ****         1.7500   3.0000  46.2500 Du        
  12428 ****         1.7500   3.2500  43.5000 Du        
  12429 ****         1.7500   3.2500  43.7500 Du        
  12430 ****         1.7500   3.2500  44.0000 Du        
  12431 ****         1.7500   3.2500  44.2500 Du        
  12432 ****         1.7500   3.2500  44.5000 Du        
  12433 ****         1.7500   3.2500  44.7500 Du        
  12434 ****         1.7500   3.2500  45.0000 Du        
  12435 ****         1.7500   3.2500  45.2500 Du        
  12436 ****         1.7500   3.2500  45.5000 Du        
  12437 ****         1.7500   3.2500  45.7500 Du        
  12438 ****         1.7500   3.2500  46.0000 Du        
  12439 ****         1.7500   3.2500  46.2500 Du        
  12440 ****         1.7500   3.5000  43.7500 Du        
  12441 ****         1.7500   3.5000  44.0000 Du        
  12442 ****         1.7500   3.5000  44.2500 Du        
  12443 ****         1.7500   3.5000  44.5000 Du        
  12444 ****         1.7500   3.5000  44.7500 Du        
  12445 ****         1.7500   3.5000  45.0000 Du        
  12446 ****         1.7500   3.5000  45.2500 Du        
  12447 ****         1.7500   3.5000  45.5000 Du        
  12448 ****         1.7500   3.5000  45.7500 Du        
  12449 ****         1.7500   3.5000  46.0000 Du        
  12450 ****         1.7500   3.5000  46.2500 Du        
  12451 ****         1.7500   3.7500  44.5000 Du        
  12452 ****         1.7500   3.7500  44.7500 Du        
  12453 ****         1.7500   3.7500  45.0000 Du        
  12454 ****         1.7500   3.7500  45.2500 Du        
  12455 ****         1.7500   3.7500  45.5000 Du        
  12456 ****         1.7500   3.7500  45.7500 Du        
  12457 ****         1.7500   3.7500  46.0000 Du        
  12458 ****         1.7500   3.7500  46.2500 Du        
  12459 ****         1.7500   8.5000  25.7500 Du        
  12460 ****         1.7500   8.5000  26.0000 Du        
  12461 ****         1.7500   8.5000  26.5000 Du        
  12462 ****         1.7500   8.5000  26.7500 Du        
  12463 ****         1.7500   8.5000  27.0000 Du        
  12464 ****         1.7500   8.5000  27.2500 Du        
  12465 ****         1.7500   8.5000  27.5000 Du        
  12466 ****         1.7500   8.5000  27.7500 Du        
  12467 ****         1.7500   8.5000  28.0000 Du        
  12468 ****         1.7500   8.5000  28.2500 Du        
  12469 ****         1.7500   8.5000  28.5000 Du        
  12470 ****         1.7500   8.7500  24.7500 Du        
  12471 ****         1.7500   8.7500  25.0000 Du        
  12472 ****         1.7500   8.7500  25.2500 Du        
  12473 ****         1.7500   8.7500  25.5000 Du        
  12474 ****         1.7500   8.7500  25.7500 Du        
  12475 ****         1.7500   8.7500  26.0000 Du        
  12476 ****         1.7500   8.7500  26.2500 Du        
  12477 ****         1.7500   8.7500  26.5000 Du        
  12478 ****         1.7500   8.7500  26.7500 Du        
  12479 ****         1.7500   8.7500  27.0000 Du        
  12480 ****         1.7500   8.7500  27.2500 Du        
  12481 ****         1.7500   8.7500  27.5000 Du        
  12482 ****         1.7500   8.7500  27.7500 Du        
  12483 ****         1.7500   8.7500  28.0000 Du        
  12484 ****         1.7500   8.7500  28.2500 Du        
  12485 ****         1.7500   8.7500  28.5000 Du        
  12486 ****         1.7500   8.7500  28.7500 Du        
  12487 ****         1.7500   9.0000  24.5000 Du        
  12488 ****         1.7500   9.0000  24.7500 Du        
  12489 ****         1.7500   9.0000  25.0000 Du        
  12490 ****         1.7500   9.0000  25.2500 Du        
  12491 ****         1.7500   9.0000  25.5000 Du        
  12492 ****         1.7500   9.0000  25.7500 Du        
  12493 ****         1.7500   9.0000  26.0000 Du        
  12494 ****         1.7500   9.0000  26.2500 Du        
  12495 ****         1.7500   9.0000  26.5000 Du        
  12496 ****         1.7500   9.0000  26.7500 Du        
  12497 ****         1.7500   9.0000  27.0000 Du        
  12498 ****         1.7500   9.0000  27.2500 Du        
  12499 ****         1.7500   9.0000  27.5000 Du        
  12500 ****         1.7500   9.0000  27.7500 Du        
  12501 ****         1.7500   9.0000  28.0000 Du        
  12502 ****         1.7500   9.0000  28.2500 Du        
  12503 ****         1.7500   9.0000  28.5000 Du        
  12504 ****         1.7500   9.2500   2.0000 Du        
  12505 ****         1.7500   9.2500   2.2500 Du        
  12506 ****         1.7500   9.2500  24.0000 Du        
  12507 ****         1.7500   9.2500  24.5000 Du        
  12508 ****         1.7500   9.2500  24.7500 Du        
  12509 ****         1.7500   9.2500  25.0000 Du        
  12510 ****         1.7500   9.2500  25.2500 Du        
  12511 ****         1.7500   9.2500  25.5000 Du        
  12512 ****         1.7500   9.2500  25.7500 Du        
  12513 ****         1.7500   9.2500  26.0000 Du        
  12514 ****         1.7500   9.2500  26.2500 Du        
  12515 ****         1.7500   9.2500  26.5000 Du        
  12516 ****         1.7500   9.2500  26.7500 Du        
  12517 ****         1.7500   9.2500  27.0000 Du        
  12518 ****         1.7500   9.2500  27.2500 Du        
  12519 ****         1.7500   9.2500  27.5000 Du        
  12520 ****         1.7500   9.2500  27.7500 Du        
  12521 ****         1.7500   9.2500  28.0000 Du        
  12522 ****         1.7500   9.2500  28.2500 Du        
  12523 ****         1.7500   9.5000  24.0000 Du        
  12524 ****         1.7500   9.5000  24.2500 Du        
  12525 ****         1.7500   9.5000  24.5000 Du        
  12526 ****         1.7500   9.5000  24.7500 Du        
  12527 ****         1.7500   9.5000  25.0000 Du        
  12528 ****         1.7500   9.5000  25.2500 Du        
  12529 ****         1.7500   9.5000  25.5000 Du        
  12530 ****         1.7500   9.5000  25.7500 Du        
  12531 ****         1.7500   9.5000  26.0000 Du        
  12532 ****         1.7500   9.5000  26.2500 Du        
  12533 ****         1.7500   9.5000  26.5000 Du        
  12534 ****         1.7500   9.5000  26.7500 Du        
  12535 ****         1.7500   9.5000  27.0000 Du        
  12536 ****         1.7500   9.5000  27.2500 Du        
  12537 ****         1.7500   9.5000  27.5000 Du        
  12538 ****         1.7500   9.5000  27.7500 Du        
  12539 ****         1.7500  12.0000   5.0000 Du        
  12540 ****         1.7500  12.0000   5.2500 Du        
  12541 ****         1.7500  12.0000   6.5000 Du        
  12542 ****         1.7500  12.0000   6.7500 Du        
  12543 ****         1.7500  12.0000   7.0000 Du        
  12544 ****         1.7500  12.0000   8.2500 Du        
  12545 ****         1.7500  12.0000   8.5000 Du        
  12546 ****         1.7500  12.2500   5.0000 Du        
  12547 ****         1.7500  12.2500   5.2500 Du        
  12548 ****         1.7500  12.2500   5.5000 Du        
  12549 ****         1.7500  12.2500   5.7500 Du        
  12550 ****         1.7500  12.2500   6.0000 Du        
  12551 ****         1.7500  12.2500   6.2500 Du        
  12552 ****         1.7500  12.2500   6.5000 Du        
  12553 ****         1.7500  12.2500   6.7500 Du        
  12554 ****         1.7500  12.2500   7.0000 Du        
  12555 ****         1.7500  12.2500   7.2500 Du        
  12556 ****         1.7500  12.2500   7.7500 Du        
  12557 ****         1.7500  12.2500   8.0000 Du        
  12558 ****         1.7500  12.2500   8.2500 Du        
  12559 ****         1.7500  12.2500   8.5000 Du        
  12560 ****         1.7500  12.5000   4.7500 Du        
  12561 ****         1.7500  12.5000   5.0000 Du        
  12562 ****         1.7500  12.5000   5.2500 Du        
  12563 ****         1.7500  12.5000   5.5000 Du        
  12564 ****         1.7500  12.5000   5.7500 Du        
  12565 ****         1.7500  12.5000   6.0000 Du        
  12566 ****         1.7500  12.5000   6.2500 Du        
  12567 ****         1.7500  12.5000   6.5000 Du        
  12568 ****         1.7500  12.5000   6.7500 Du        
  12569 ****         1.7500  12.5000   7.0000 Du        
  12570 ****         1.7500  12.5000   7.2500 Du        
  12571 ****         1.7500  12.5000   7.5000 Du        
  12572 ****         1.7500  12.5000   7.7500 Du        
  12573 ****         1.7500  12.5000   8.0000 Du        
  12574 ****         1.7500  12.5000   8.2500 Du        
  12575 ****         1.7500  12.7500   4.7500 Du        
  12576 ****         1.7500  12.7500   5.0000 Du        
  12577 ****         1.7500  12.7500   5.2500 Du        
  12578 ****         1.7500  12.7500   5.5000 Du        
  12579 ****         1.7500  12.7500   5.7500 Du        
  12580 ****         1.7500  12.7500   6.0000 Du        
  12581 ****         1.7500  12.7500   6.2500 Du        
  12582 ****         1.7500  12.7500   6.5000 Du        
  12583 ****         1.7500  12.7500   6.7500 Du        
  12584 ****         1.7500  12.7500   7.0000 Du        
  12585 ****         1.7500  13.0000   5.0000 Du        
  12586 ****         1.7500  13.0000   5.2500 Du        
  12587 ****         1.7500  13.0000   5.5000 Du        
  12588 ****         1.7500  13.0000   5.7500 Du        
  12589 ****         1.7500  13.0000   6.0000 Du        
  12590 ****         1.7500  13.0000   6.2500 Du        
  12591 ****         1.7500  13.0000  36.0000 Du        
  12592 ****         1.7500  13.0000  36.2500 Du        
  12593 ****         1.7500  13.0000  36.7500 Du        
  12594 ****         1.7500  13.0000  37.0000 Du        
  12595 ****         1.7500  13.2500   5.0000 Du        
  12596 ****         1.7500  13.2500   5.2500 Du        
  12597 ****         1.7500  13.2500   5.5000 Du        
  12598 ****         1.7500  13.2500   5.7500 Du        
  12599 ****         1.7500  13.2500   6.0000 Du        
  12600 ****         1.7500  13.2500  36.0000 Du        
  12601 ****         1.7500  13.2500  36.2500 Du        
  12602 ****         1.7500  13.2500  36.7500 Du        
  12603 ****         1.7500  13.2500  37.0000 Du        
  12604 ****         1.7500  13.2500  37.2500 Du        
  12605 ****         1.7500  13.5000   5.0000 Du        
  12606 ****         1.7500  13.5000   5.2500 Du        
  12607 ****         1.7500  13.5000   5.5000 Du        
  12608 ****         1.7500  13.5000  36.0000 Du        
  12609 ****         1.7500  13.5000  36.2500 Du        
  12610 ****         1.7500  13.5000  36.5000 Du        
  12611 ****         1.7500  13.5000  36.7500 Du        
  12612 ****         1.7500  13.5000  37.0000 Du        
  12613 ****         1.7500  13.5000  37.2500 Du        
  12614 ****         1.7500  13.5000  37.5000 Du        
  12615 ****         1.7500  13.5000  37.7500 Du        
  12616 ****         1.7500  13.7500  35.7500 Du        
  12617 ****         1.7500  13.7500  36.0000 Du        
  12618 ****         1.7500  13.7500  36.2500 Du        
  12619 ****         1.7500  13.7500  36.5000 Du        
  12620 ****         1.7500  13.7500  36.7500 Du        
  12621 ****         1.7500  13.7500  37.0000 Du        
  12622 ****         1.7500  13.7500  37.2500 Du        
  12623 ****         1.7500  13.7500  37.5000 Du        
  12624 ****         1.7500  13.7500  37.7500 Du        
  12625 ****         1.7500  13.7500  38.0000 Du        
  12626 ****         1.7500  14.0000  35.7500 Du        
  12627 ****         1.7500  14.0000  36.0000 Du        
  12628 ****         1.7500  14.0000  36.2500 Du        
  12629 ****         1.7500  14.0000  36.5000 Du        
  12630 ****         1.7500  14.0000  36.7500 Du        
  12631 ****         1.7500  14.0000  37.0000 Du        
  12632 ****         1.7500  14.0000  37.2500 Du        
  12633 ****         1.7500  14.0000  37.5000 Du        
  12634 ****         1.7500  14.0000  37.7500 Du        
  12635 ****         1.7500  14.0000  38.0000 Du        
  12636 ****         1.7500  14.0000  38.2500 Du        
  12637 ****         1.7500  14.2500  36.0000 Du        
  12638 ****         1.7500  14.2500  36.2500 Du        
  12639 ****         1.7500  14.2500  36.5000 Du        
  12640 ****         1.7500  14.2500  36.7500 Du        
  12641 ****         1.7500  14.2500  37.0000 Du        
  12642 ****         1.7500  14.2500  37.2500 Du        
  12643 ****         1.7500  14.2500  37.7500 Du        
  12644 ****         1.7500  14.2500  38.0000 Du        
  12645 ****         1.7500  14.5000  36.0000 Du        
  12646 ****         1.7500  14.5000  36.2500 Du        
  12647 ****         1.7500  14.5000  36.5000 Du        
  12648 ****         1.7500  14.5000  36.7500 Du        
  12649 ****         1.7500  14.5000  37.0000 Du        
  12650 ****         1.7500  14.5000  37.2500 Du        
  12651 ****         1.7500  14.5000  37.5000 Du        
  12652 ****         1.7500  14.7500  36.0000 Du        
  12653 ****         1.7500  14.7500  36.2500 Du        
  12654 ****         1.7500  14.7500  36.5000 Du        
  12655 ****         1.7500  14.7500  36.7500 Du        
  12656 ****         1.7500  14.7500  37.0000 Du        
  12657 ****         1.7500  15.7500  -1.7500 Du        
  12658 ****         1.7500  15.7500  -1.5000 Du        
  12659 ****         1.7500  15.7500  -1.2500 Du        
  12660 ****         1.7500  15.7500  -1.0000 Du        
  12661 ****         1.7500  15.7500  -0.7500 Du        
  12662 ****         1.7500  15.7500  -0.5000 Du        
  12663 ****         1.7500  16.0000  -2.5000 Du        
  12664 ****         1.7500  16.0000  -2.2500 Du        
  12665 ****         1.7500  16.0000  -2.0000 Du        
  12666 ****         1.7500  16.0000  -1.7500 Du        
  12667 ****         1.7500  16.0000  -1.5000 Du        
  12668 ****         1.7500  16.0000  -1.2500 Du        
  12669 ****         1.7500  16.0000  -1.0000 Du        
  12670 ****         1.7500  16.0000  -0.7500 Du        
  12671 ****         1.7500  16.0000  -0.5000 Du        
  12672 ****         1.7500  16.2500  -2.5000 Du        
  12673 ****         1.7500  16.2500  -2.2500 Du        
  12674 ****         1.7500  16.2500  -2.0000 Du        
  12675 ****         1.7500  16.2500  -1.7500 Du        
  12676 ****         1.7500  16.2500  -1.5000 Du        
  12677 ****         1.7500  16.2500  -1.2500 Du        
  12678 ****         1.7500  16.2500  -1.0000 Du        
  12679 ****         1.7500  16.2500  -0.7500 Du        
  12680 ****         1.7500  16.2500  -0.5000 Du        
  12681 ****         1.7500  16.5000  -2.7500 Du        
  12682 ****         1.7500  16.5000  -2.5000 Du        
  12683 ****         1.7500  16.5000  -2.2500 Du        
  12684 ****         1.7500  16.5000  -2.0000 Du        
  12685 ****         1.7500  16.5000  -1.7500 Du        
  12686 ****         1.7500  16.5000  -1.5000 Du        
  12687 ****         1.7500  16.5000  -1.2500 Du        
  12688 ****         1.7500  16.5000  -1.0000 Du        
  12689 ****         1.7500  16.5000  -0.7500 Du        
  12690 ****         1.7500  16.5000  -0.5000 Du        
  12691 ****         1.7500  16.7500  -2.7500 Du        
  12692 ****         1.7500  16.7500  -2.5000 Du        
  12693 ****         1.7500  16.7500  -2.2500 Du        
  12694 ****         1.7500  16.7500  -2.0000 Du        
  12695 ****         1.7500  16.7500  -1.7500 Du        
  12696 ****         1.7500  16.7500  -1.5000 Du        
  12697 ****         1.7500  16.7500  -1.2500 Du        
  12698 ****         1.7500  16.7500  -1.0000 Du        
  12699 ****         1.7500  16.7500  -0.7500 Du        
  12700 ****         1.7500  16.7500  -0.5000 Du        
  12701 ****         1.7500  17.0000  -2.5000 Du        
  12702 ****         1.7500  17.0000  -2.2500 Du        
  12703 ****         1.7500  17.0000  -2.0000 Du        
  12704 ****         1.7500  17.0000  -1.7500 Du        
  12705 ****         1.7500  17.0000  -1.5000 Du        
  12706 ****         1.7500  17.0000  -1.2500 Du        
  12707 ****         1.7500  17.0000  -1.0000 Du        
  12708 ****         1.7500  17.0000  -0.7500 Du        
  12709 ****         1.7500  17.0000  -0.5000 Du        
  12710 ****         1.7500  17.2500  -2.5000 Du        
  12711 ****         1.7500  17.2500  -2.2500 Du        
  12712 ****         1.7500  17.2500  -2.0000 Du        
  12713 ****         1.7500  17.2500  -1.7500 Du        
  12714 ****         1.7500  17.2500  -1.5000 Du        
  12715 ****         1.7500  17.2500  -1.2500 Du        
  12716 ****         1.7500  17.2500  -1.0000 Du        
  12717 ****         1.7500  17.2500  -0.7500 Du        
  12718 ****         1.7500  17.2500  -0.5000 Du        
  12719 ****         1.7500  17.5000  -2.2500 Du        
  12720 ****         1.7500  17.5000  -2.0000 Du        
  12721 ****         1.7500  17.5000  -1.7500 Du        
  12722 ****         1.7500  17.5000  -1.5000 Du        
  12723 ****         1.7500  17.5000  -1.2500 Du        
  12724 ****         1.7500  17.5000  -1.0000 Du        
  12725 ****         1.7500  17.5000  -0.7500 Du        
  12726 ****         1.7500  17.5000  -0.5000 Du        
  12727 ****         1.7500  17.7500  -2.2500 Du        
  12728 ****         1.7500  17.7500  -2.0000 Du        
  12729 ****         1.7500  17.7500  -1.7500 Du        
  12730 ****         1.7500  17.7500  -1.5000 Du        
  12731 ****         1.7500  17.7500  -1.2500 Du        
  12732 ****         1.7500  17.7500  -1.0000 Du        
  12733 ****         1.7500  17.7500  -0.7500 Du        
  12734 ****         1.7500  18.0000  -2.2500 Du        
  12735 ****         1.7500  18.0000  -2.0000 Du        
  12736 ****         1.7500  18.0000  -1.7500 Du        
  12737 ****         1.7500  18.0000  -1.5000 Du        
  12738 ****         1.7500  18.0000  -1.2500 Du        
  12739 ****         1.7500  18.0000  -1.0000 Du        
  12740 ****         1.7500  18.0000  -0.7500 Du        
  12741 ****         1.7500  18.2500  -2.2500 Du        
  12742 ****         1.7500  18.2500  -2.0000 Du        
  12743 ****         1.7500  18.2500  -1.7500 Du        
  12744 ****         1.7500  18.2500  -1.5000 Du        
  12745 ****         1.7500  18.2500  -1.2500 Du        
  12746 ****         1.7500  18.2500  -1.0000 Du        
  12747 ****         1.7500  18.5000  -2.2500 Du        
  12748 ****         1.7500  18.5000  -2.0000 Du        
  12749 ****         1.7500  18.5000  -1.7500 Du        
  12750 ****         1.7500  18.5000  -1.5000 Du        
  12751 ****         1.7500  18.5000  -1.2500 Du        
  12752 ****         1.7500  18.5000  -1.0000 Du        
  12753 ****         1.7500  18.7500  -2.2500 Du        
  12754 ****         1.7500  18.7500  -2.0000 Du        
  12755 ****         1.7500  18.7500  -1.7500 Du        
  12756 ****         1.7500  18.7500  -1.5000 Du        
  12757 ****         1.7500  18.7500  -1.2500 Du        
  12758 ****         1.7500  19.0000  -2.5000 Du        
  12759 ****         1.7500  19.0000  -2.2500 Du        
  12760 ****         1.7500  19.0000  -2.0000 Du        
  12761 ****         1.7500  19.0000  -1.7500 Du        
  12762 ****         1.7500  19.0000  -1.5000 Du        
  12763 ****         1.7500  19.0000  -1.2500 Du        
  12764 ****         1.7500  19.2500  -2.5000 Du        
  12765 ****         1.7500  19.2500  -2.2500 Du        
  12766 ****         1.7500  19.2500  -2.0000 Du        
  12767 ****         1.7500  19.2500  -1.7500 Du        
  12768 ****         1.7500  19.2500  -1.5000 Du        
  12769 ****         1.7500  19.5000  -2.5000 Du        
  12770 ****         1.7500  19.5000  -2.2500 Du        
  12771 ****         1.7500  19.5000  -2.0000 Du        
  12772 ****         1.7500  19.5000  -1.7500 Du        
  12773 ****         1.7500  19.5000  -1.5000 Du        
  12774 ****         1.7500  19.7500  -2.5000 Du        
  12775 ****         1.7500  19.7500  -2.2500 Du        
  12776 ****         1.7500  19.7500  -2.0000 Du        
  12777 ****         1.7500  19.7500  -1.7500 Du        
  12778 ****         1.7500  20.0000  -2.5000 Du        
  12779 ****         1.7500  20.0000  -2.2500 Du        
  12780 ****         1.7500  20.0000  -2.0000 Du        
  12781 ****         1.7500  20.0000  -1.7500 Du        
  12782 ****         1.7500  20.2500  -2.5000 Du        
  12783 ****         1.7500  20.2500  -2.2500 Du        
  12784 ****         1.7500  20.2500  -2.0000 Du        
  12785 ****         1.7500  20.5000  -2.5000 Du        
  12786 ****         1.7500  20.5000  -2.2500 Du        
  12787 ****         1.7500  20.7500  -2.2500 Du        
  12788 ****         2.0000  -4.0000   8.5000 Du        
  12789 ****         2.0000  -4.0000   8.7500 Du        
  12790 ****         2.0000  -4.0000   9.0000 Du        
  12791 ****         2.0000   2.7500  44.7500 Du        
  12792 ****         2.0000   2.7500  45.0000 Du        
  12793 ****         2.0000   2.7500  45.2500 Du        
  12794 ****         2.0000   2.7500  45.5000 Du        
  12795 ****         2.0000   2.7500  45.7500 Du        
  12796 ****         2.0000   2.7500  46.0000 Du        
  12797 ****         2.0000   2.7500  46.2500 Du        
  12798 ****         2.0000   3.0000  43.7500 Du        
  12799 ****         2.0000   3.0000  44.0000 Du        
  12800 ****         2.0000   3.0000  44.2500 Du        
  12801 ****         2.0000   3.0000  44.5000 Du        
  12802 ****         2.0000   3.0000  44.7500 Du        
  12803 ****         2.0000   3.0000  45.0000 Du        
  12804 ****         2.0000   3.0000  45.2500 Du        
  12805 ****         2.0000   3.0000  45.5000 Du        
  12806 ****         2.0000   3.0000  45.7500 Du        
  12807 ****         2.0000   3.0000  46.0000 Du        
  12808 ****         2.0000   3.0000  46.2500 Du        
  12809 ****         2.0000   3.2500  43.7500 Du        
  12810 ****         2.0000   3.2500  44.0000 Du        
  12811 ****         2.0000   3.2500  44.2500 Du        
  12812 ****         2.0000   3.2500  44.5000 Du        
  12813 ****         2.0000   3.2500  44.7500 Du        
  12814 ****         2.0000   3.2500  45.0000 Du        
  12815 ****         2.0000   3.2500  45.2500 Du        
  12816 ****         2.0000   3.2500  45.5000 Du        
  12817 ****         2.0000   3.2500  45.7500 Du        
  12818 ****         2.0000   3.2500  46.0000 Du        
  12819 ****         2.0000   3.2500  46.2500 Du        
  12820 ****         2.0000   3.5000  43.7500 Du        
  12821 ****         2.0000   3.5000  44.0000 Du        
  12822 ****         2.0000   3.5000  44.2500 Du        
  12823 ****         2.0000   3.5000  44.5000 Du        
  12824 ****         2.0000   3.5000  44.7500 Du        
  12825 ****         2.0000   3.5000  45.0000 Du        
  12826 ****         2.0000   3.5000  45.2500 Du        
  12827 ****         2.0000   3.5000  45.5000 Du        
  12828 ****         2.0000   3.5000  45.7500 Du        
  12829 ****         2.0000   3.5000  46.0000 Du        
  12830 ****         2.0000   3.5000  46.2500 Du        
  12831 ****         2.0000   3.7500  44.0000 Du        
  12832 ****         2.0000   3.7500  44.2500 Du        
  12833 ****         2.0000   3.7500  44.5000 Du        
  12834 ****         2.0000   3.7500  44.7500 Du        
  12835 ****         2.0000   3.7500  45.0000 Du        
  12836 ****         2.0000   3.7500  45.2500 Du        
  12837 ****         2.0000   3.7500  45.5000 Du        
  12838 ****         2.0000   3.7500  45.7500 Du        
  12839 ****         2.0000   3.7500  46.0000 Du        
  12840 ****         2.0000   3.7500  46.2500 Du        
  12841 ****         2.0000   8.5000  26.5000 Du        
  12842 ****         2.0000   8.5000  26.7500 Du        
  12843 ****         2.0000   8.5000  27.0000 Du        
  12844 ****         2.0000   8.5000  27.2500 Du        
  12845 ****         2.0000   8.5000  27.5000 Du        
  12846 ****         2.0000   8.5000  27.7500 Du        
  12847 ****         2.0000   8.5000  28.0000 Du        
  12848 ****         2.0000   8.5000  28.2500 Du        
  12849 ****         2.0000   8.5000  28.5000 Du        
  12850 ****         2.0000   8.7500  25.0000 Du        
  12851 ****         2.0000   8.7500  25.2500 Du        
  12852 ****         2.0000   8.7500  25.5000 Du        
  12853 ****         2.0000   8.7500  25.7500 Du        
  12854 ****         2.0000   8.7500  26.0000 Du        
  12855 ****         2.0000   8.7500  26.2500 Du        
  12856 ****         2.0000   8.7500  26.5000 Du        
  12857 ****         2.0000   8.7500  26.7500 Du        
  12858 ****         2.0000   8.7500  27.0000 Du        
  12859 ****         2.0000   8.7500  27.2500 Du        
  12860 ****         2.0000   8.7500  27.5000 Du        
  12861 ****         2.0000   8.7500  27.7500 Du        
  12862 ****         2.0000   8.7500  28.0000 Du        
  12863 ****         2.0000   8.7500  28.2500 Du        
  12864 ****         2.0000   8.7500  28.5000 Du        
  12865 ****         2.0000   8.7500  28.7500 Du        
  12866 ****         2.0000   9.0000  24.7500 Du        
  12867 ****         2.0000   9.0000  25.0000 Du        
  12868 ****         2.0000   9.0000  25.2500 Du        
  12869 ****         2.0000   9.0000  25.5000 Du        
  12870 ****         2.0000   9.0000  25.7500 Du        
  12871 ****         2.0000   9.0000  26.0000 Du        
  12872 ****         2.0000   9.0000  26.2500 Du        
  12873 ****         2.0000   9.0000  26.5000 Du        
  12874 ****         2.0000   9.0000  26.7500 Du        
  12875 ****         2.0000   9.0000  27.0000 Du        
  12876 ****         2.0000   9.0000  27.2500 Du        
  12877 ****         2.0000   9.0000  27.5000 Du        
  12878 ****         2.0000   9.0000  27.7500 Du        
  12879 ****         2.0000   9.0000  28.0000 Du        
  12880 ****         2.0000   9.0000  28.2500 Du        
  12881 ****         2.0000   9.0000  28.5000 Du        
  12882 ****         2.0000   9.2500   2.2500 Du        
  12883 ****         2.0000   9.2500  23.7500 Du        
  12884 ****         2.0000   9.2500  24.0000 Du        
  12885 ****         2.0000   9.2500  24.5000 Du        
  12886 ****         2.0000   9.2500  24.7500 Du        
  12887 ****         2.0000   9.2500  25.0000 Du        
  12888 ****         2.0000   9.2500  25.2500 Du        
  12889 ****         2.0000   9.2500  25.5000 Du        
  12890 ****         2.0000   9.2500  25.7500 Du        
  12891 ****         2.0000   9.2500  26.0000 Du        
  12892 ****         2.0000   9.2500  26.2500 Du        
  12893 ****         2.0000   9.2500  26.5000 Du        
  12894 ****         2.0000   9.2500  26.7500 Du        
  12895 ****         2.0000   9.2500  27.0000 Du        
  12896 ****         2.0000   9.2500  27.2500 Du        
  12897 ****         2.0000   9.2500  27.5000 Du        
  12898 ****         2.0000   9.2500  27.7500 Du        
  12899 ****         2.0000   9.2500  28.0000 Du        
  12900 ****         2.0000   9.2500  28.2500 Du        
  12901 ****         2.0000   9.5000  23.5000 Du        
  12902 ****         2.0000   9.5000  23.7500 Du        
  12903 ****         2.0000   9.5000  24.0000 Du        
  12904 ****         2.0000   9.5000  24.2500 Du        
  12905 ****         2.0000   9.5000  24.5000 Du        
  12906 ****         2.0000   9.5000  24.7500 Du        
  12907 ****         2.0000   9.5000  25.0000 Du        
  12908 ****         2.0000   9.5000  25.2500 Du        
  12909 ****         2.0000   9.5000  25.5000 Du        
  12910 ****         2.0000   9.5000  25.7500 Du        
  12911 ****         2.0000   9.5000  26.0000 Du        
  12912 ****         2.0000   9.5000  26.2500 Du        
  12913 ****         2.0000   9.5000  26.5000 Du        
  12914 ****         2.0000   9.5000  26.7500 Du        
  12915 ****         2.0000   9.5000  27.0000 Du        
  12916 ****         2.0000   9.5000  27.2500 Du        
  12917 ****         2.0000   9.5000  27.5000 Du        
  12918 ****         2.0000   9.5000  27.7500 Du        
  12919 ****         2.0000   9.5000  28.0000 Du        
  12920 ****         2.0000   9.7500  23.7500 Du        
  12921 ****         2.0000   9.7500  24.0000 Du        
  12922 ****         2.0000   9.7500  24.2500 Du        
  12923 ****         2.0000   9.7500  27.0000 Du        
  12924 ****         2.0000   9.7500  27.2500 Du        
  12925 ****         2.0000   9.7500  27.5000 Du        
  12926 ****         2.0000  12.0000   5.0000 Du        
  12927 ****         2.0000  12.0000   5.2500 Du        
  12928 ****         2.0000  12.0000   5.5000 Du        
  12929 ****         2.0000  12.0000   5.7500 Du        
  12930 ****         2.0000  12.0000   6.0000 Du        
  12931 ****         2.0000  12.0000   6.5000 Du        
  12932 ****         2.0000  12.0000   6.7500 Du        
  12933 ****         2.0000  12.0000   7.0000 Du        
  12934 ****         2.0000  12.0000   7.2500 Du        
  12935 ****         2.0000  12.0000   7.7500 Du        
  12936 ****         2.0000  12.0000   8.0000 Du        
  12937 ****         2.0000  12.0000   8.2500 Du        
  12938 ****         2.0000  12.0000   8.5000 Du        
  12939 ****         2.0000  12.0000   8.7500 Du        
  12940 ****         2.0000  12.2500   5.0000 Du        
  12941 ****         2.0000  12.2500   5.2500 Du        
  12942 ****         2.0000  12.2500   5.5000 Du        
  12943 ****         2.0000  12.2500   5.7500 Du        
  12944 ****         2.0000  12.2500   6.0000 Du        
  12945 ****         2.0000  12.2500   6.2500 Du        
  12946 ****         2.0000  12.2500   6.5000 Du        
  12947 ****         2.0000  12.2500   6.7500 Du        
  12948 ****         2.0000  12.2500   7.0000 Du        
  12949 ****         2.0000  12.2500   7.2500 Du        
  12950 ****         2.0000  12.2500   7.5000 Du        
  12951 ****         2.0000  12.2500   7.7500 Du        
  12952 ****         2.0000  12.2500   8.0000 Du        
  12953 ****         2.0000  12.2500   8.2500 Du        
  12954 ****         2.0000  12.2500   8.5000 Du        
  12955 ****         2.0000  12.5000   5.0000 Du        
  12956 ****         2.0000  12.5000   5.2500 Du        
  12957 ****         2.0000  12.5000   5.5000 Du        
  12958 ****         2.0000  12.5000   5.7500 Du        
  12959 ****         2.0000  12.5000   6.0000 Du        
  12960 ****         2.0000  12.5000   6.2500 Du        
  12961 ****         2.0000  12.5000   6.5000 Du        
  12962 ****         2.0000  12.5000   6.7500 Du        
  12963 ****         2.0000  12.5000   7.0000 Du        
  12964 ****         2.0000  12.5000   7.2500 Du        
  12965 ****         2.0000  12.5000   7.5000 Du        
  12966 ****         2.0000  12.5000   7.7500 Du        
  12967 ****         2.0000  12.5000   8.0000 Du        
  12968 ****         2.0000  12.5000   8.2500 Du        
  12969 ****         2.0000  12.7500   5.0000 Du        
  12970 ****         2.0000  12.7500   5.2500 Du        
  12971 ****         2.0000  12.7500   5.5000 Du        
  12972 ****         2.0000  12.7500   5.7500 Du        
  12973 ****         2.0000  12.7500   6.0000 Du        
  12974 ****         2.0000  12.7500   6.2500 Du        
  12975 ****         2.0000  12.7500   6.5000 Du        
  12976 ****         2.0000  12.7500   6.7500 Du        
  12977 ****         2.0000  12.7500   7.0000 Du        
  12978 ****         2.0000  12.7500   7.2500 Du        
  12979 ****         2.0000  12.7500  36.0000 Du        
  12980 ****         2.0000  12.7500  36.2500 Du        
  12981 ****         2.0000  12.7500  37.0000 Du        
  12982 ****         2.0000  12.7500  37.2500 Du        
  12983 ****         2.0000  13.0000   5.0000 Du        
  12984 ****         2.0000  13.0000   5.2500 Du        
  12985 ****         2.0000  13.0000   5.5000 Du        
  12986 ****         2.0000  13.0000   5.7500 Du        
  12987 ****         2.0000  13.0000   6.0000 Du        
  12988 ****         2.0000  13.0000   6.2500 Du        
  12989 ****         2.0000  13.0000   6.5000 Du        
  12990 ****         2.0000  13.0000  36.0000 Du        
  12991 ****         2.0000  13.0000  36.2500 Du        
  12992 ****         2.0000  13.0000  36.5000 Du        
  12993 ****         2.0000  13.0000  36.7500 Du        
  12994 ****         2.0000  13.0000  37.0000 Du        
  12995 ****         2.0000  13.0000  37.2500 Du        
  12996 ****         2.0000  13.2500   5.0000 Du        
  12997 ****         2.0000  13.2500   5.2500 Du        
  12998 ****         2.0000  13.2500   5.5000 Du        
  12999 ****         2.0000  13.2500   5.7500 Du        
  13000 ****         2.0000  13.2500   6.0000 Du        
  13001 ****         2.0000  13.2500   6.2500 Du        
  13002 ****         2.0000  13.2500  36.0000 Du        
  13003 ****         2.0000  13.2500  36.2500 Du        
  13004 ****         2.0000  13.2500  36.5000 Du        
  13005 ****         2.0000  13.2500  36.7500 Du        
  13006 ****         2.0000  13.2500  37.0000 Du        
  13007 ****         2.0000  13.2500  37.2500 Du        
  13008 ****         2.0000  13.5000   5.2500 Du        
  13009 ****         2.0000  13.5000   5.5000 Du        
  13010 ****         2.0000  13.5000   5.7500 Du        
  13011 ****         2.0000  13.5000  35.7500 Du        
  13012 ****         2.0000  13.5000  36.0000 Du        
  13013 ****         2.0000  13.5000  36.2500 Du        
  13014 ****         2.0000  13.5000  36.5000 Du        
  13015 ****         2.0000  13.5000  36.7500 Du        
  13016 ****         2.0000  13.5000  37.0000 Du        
  13017 ****         2.0000  13.5000  37.2500 Du        
  13018 ****         2.0000  13.7500  35.7500 Du        
  13019 ****         2.0000  13.7500  36.0000 Du        
  13020 ****         2.0000  13.7500  36.2500 Du        
  13021 ****         2.0000  13.7500  36.5000 Du        
  13022 ****         2.0000  13.7500  36.7500 Du        
  13023 ****         2.0000  13.7500  37.0000 Du        
  13024 ****         2.0000  13.7500  37.2500 Du        
  13025 ****         2.0000  13.7500  37.5000 Du        
  13026 ****         2.0000  14.0000  36.0000 Du        
  13027 ****         2.0000  14.0000  36.2500 Du        
  13028 ****         2.0000  14.0000  36.5000 Du        
  13029 ****         2.0000  14.0000  36.7500 Du        
  13030 ****         2.0000  14.0000  37.0000 Du        
  13031 ****         2.0000  14.0000  37.2500 Du        
  13032 ****         2.0000  14.2500  36.2500 Du        
  13033 ****         2.0000  16.0000  -3.0000 Du        
  13034 ****         2.0000  16.0000  -2.5000 Du        
  13035 ****         2.0000  16.0000  -2.2500 Du        
  13036 ****         2.0000  16.0000  -2.0000 Du        
  13037 ****         2.0000  16.0000  -1.7500 Du        
  13038 ****         2.0000  16.0000  -1.5000 Du        
  13039 ****         2.0000  16.0000  -1.2500 Du        
  13040 ****         2.0000  16.0000  -1.0000 Du        
  13041 ****         2.0000  16.0000  -0.7500 Du        
  13042 ****         2.0000  16.0000  -0.5000 Du        
  13043 ****         2.0000  16.2500  -3.0000 Du        
  13044 ****         2.0000  16.2500  -2.5000 Du        
  13045 ****         2.0000  16.2500  -2.2500 Du        
  13046 ****         2.0000  16.2500  -2.0000 Du        
  13047 ****         2.0000  16.2500  -1.7500 Du        
  13048 ****         2.0000  16.2500  -1.5000 Du        
  13049 ****         2.0000  16.2500  -1.2500 Du        
  13050 ****         2.0000  16.2500  -1.0000 Du        
  13051 ****         2.0000  16.2500  -0.7500 Du        
  13052 ****         2.0000  16.2500  -0.5000 Du        
  13053 ****         2.0000  16.2500  43.0000 Du        
  13054 ****         2.0000  16.5000  -3.0000 Du        
  13055 ****         2.0000  16.5000  -2.7500 Du        
  13056 ****         2.0000  16.5000  -2.5000 Du        
  13057 ****         2.0000  16.5000  -2.2500 Du        
  13058 ****         2.0000  16.5000  -2.0000 Du        
  13059 ****         2.0000  16.5000  -1.7500 Du        
  13060 ****         2.0000  16.5000  -1.5000 Du        
  13061 ****         2.0000  16.5000  -1.2500 Du        
  13062 ****         2.0000  16.5000  -1.0000 Du        
  13063 ****         2.0000  16.5000  -0.7500 Du        
  13064 ****         2.0000  16.5000  -0.5000 Du        
  13065 ****         2.0000  16.7500  -3.0000 Du        
  13066 ****         2.0000  16.7500  -2.7500 Du        
  13067 ****         2.0000  16.7500  -2.5000 Du        
  13068 ****         2.0000  16.7500  -2.2500 Du        
  13069 ****         2.0000  16.7500  -2.0000 Du        
  13070 ****         2.0000  16.7500  -1.7500 Du        
  13071 ****         2.0000  16.7500  -1.5000 Du        
  13072 ****         2.0000  16.7500  -1.2500 Du        
  13073 ****         2.0000  16.7500  -1.0000 Du        
  13074 ****         2.0000  16.7500  -0.7500 Du        
  13075 ****         2.0000  16.7500  -0.5000 Du        
  13076 ****         2.0000  17.0000  -3.0000 Du        
  13077 ****         2.0000  17.0000  -2.7500 Du        
  13078 ****         2.0000  17.0000  -2.5000 Du        
  13079 ****         2.0000  17.0000  -2.2500 Du        
  13080 ****         2.0000  17.0000  -2.0000 Du        
  13081 ****         2.0000  17.0000  -1.7500 Du        
  13082 ****         2.0000  17.0000  -1.5000 Du        
  13083 ****         2.0000  17.0000  -1.2500 Du        
  13084 ****         2.0000  17.0000  -1.0000 Du        
  13085 ****         2.0000  17.0000  -0.7500 Du        
  13086 ****         2.0000  17.0000  -0.5000 Du        
  13087 ****         2.0000  17.2500  -2.7500 Du        
  13088 ****         2.0000  17.2500  -2.5000 Du        
  13089 ****         2.0000  17.2500  -2.2500 Du        
  13090 ****         2.0000  17.2500  -2.0000 Du        
  13091 ****         2.0000  17.2500  -1.7500 Du        
  13092 ****         2.0000  17.2500  -1.5000 Du        
  13093 ****         2.0000  17.2500  -1.2500 Du        
  13094 ****         2.0000  17.2500  -1.0000 Du        
  13095 ****         2.0000  17.2500  -0.7500 Du        
  13096 ****         2.0000  17.2500  -0.5000 Du        
  13097 ****         2.0000  17.5000  -2.5000 Du        
  13098 ****         2.0000  17.5000  -2.2500 Du        
  13099 ****         2.0000  17.5000  -2.0000 Du        
  13100 ****         2.0000  17.5000  -1.7500 Du        
  13101 ****         2.0000  17.5000  -1.5000 Du        
  13102 ****         2.0000  17.5000  -1.2500 Du        
  13103 ****         2.0000  17.5000  -1.0000 Du        
  13104 ****         2.0000  17.5000  -0.7500 Du        
  13105 ****         2.0000  17.7500  -2.5000 Du        
  13106 ****         2.0000  17.7500  -2.2500 Du        
  13107 ****         2.0000  17.7500  -2.0000 Du        
  13108 ****         2.0000  17.7500  -1.7500 Du        
  13109 ****         2.0000  17.7500  -1.5000 Du        
  13110 ****         2.0000  17.7500  -1.2500 Du        
  13111 ****         2.0000  17.7500  -1.0000 Du        
  13112 ****         2.0000  17.7500  -0.7500 Du        
  13113 ****         2.0000  18.0000  -2.2500 Du        
  13114 ****         2.0000  18.0000  -2.0000 Du        
  13115 ****         2.0000  18.0000  -1.7500 Du        
  13116 ****         2.0000  18.0000  -1.5000 Du        
  13117 ****         2.0000  18.0000  -1.2500 Du        
  13118 ****         2.0000  18.0000  -1.0000 Du        
  13119 ****         2.0000  18.0000  -0.7500 Du        
  13120 ****         2.0000  18.2500  -2.2500 Du        
  13121 ****         2.0000  18.2500  -2.0000 Du        
  13122 ****         2.0000  18.2500  -1.7500 Du        
  13123 ****         2.0000  18.2500  -1.5000 Du        
  13124 ****         2.0000  18.2500  -1.2500 Du        
  13125 ****         2.0000  18.2500  -1.0000 Du        
  13126 ****         2.0000  18.2500  -0.7500 Du        
  13127 ****         2.0000  18.5000  -2.2500 Du        
  13128 ****         2.0000  18.5000  -2.0000 Du        
  13129 ****         2.0000  18.5000  -1.7500 Du        
  13130 ****         2.0000  18.5000  -1.5000 Du        
  13131 ****         2.0000  18.5000  -1.2500 Du        
  13132 ****         2.0000  18.5000  -1.0000 Du        
  13133 ****         2.0000  18.7500  -2.2500 Du        
  13134 ****         2.0000  18.7500  -2.0000 Du        
  13135 ****         2.0000  18.7500  -1.7500 Du        
  13136 ****         2.0000  18.7500  -1.5000 Du        
  13137 ****         2.0000  18.7500  -1.2500 Du        
  13138 ****         2.0000  19.0000  -2.2500 Du        
  13139 ****         2.0000  19.0000  -2.0000 Du        
  13140 ****         2.0000  19.0000  -1.7500 Du        
  13141 ****         2.0000  19.0000  -1.5000 Du        
  13142 ****         2.0000  19.0000  -1.2500 Du        
  13143 ****         2.0000  19.2500  -2.2500 Du        
  13144 ****         2.0000  19.2500  -2.0000 Du        
  13145 ****         2.0000  19.2500  -1.7500 Du        
  13146 ****         2.0000  19.2500  -1.5000 Du        
  13147 ****         2.0000  19.5000  -2.2500 Du        
  13148 ****         2.0000  19.5000  -2.0000 Du        
  13149 ****         2.0000  19.5000  -1.7500 Du        
  13150 ****         2.0000  19.5000  -1.5000 Du        
  13151 ****         2.0000  19.7500  -2.2500 Du        
  13152 ****         2.0000  19.7500  -2.0000 Du        
  13153 ****         2.0000  19.7500  -1.7500 Du        
  13154 ****         2.0000  19.7500  -1.5000 Du        
  13155 ****         2.0000  20.0000  -2.2500 Du        
  13156 ****         2.0000  20.0000  -2.0000 Du        
  13157 ****         2.0000  20.0000  -1.7500 Du        
  13158 ****         2.0000  20.2500  -2.2500 Du        
  13159 ****         2.0000  20.2500  -2.0000 Du        
  13160 ****         2.0000  20.2500  -1.7500 Du        
  13161 ****         2.0000  20.5000  -2.2500 Du        
  13162 ****         2.0000  20.5000  -2.0000 Du        
  13163 ****         2.0000  20.7500  -2.2500 Du        
  13164 ****         2.0000  20.7500  -2.0000 Du        
  13165 ****         2.2500  -4.0000   8.5000 Du        
  13166 ****         2.2500  -4.0000   8.7500 Du        
  13167 ****         2.2500  -4.0000   9.0000 Du        
  13168 ****         2.2500   2.7500  44.7500 Du        
  13169 ****         2.2500   2.7500  45.0000 Du        
  13170 ****         2.2500   2.7500  45.2500 Du        
  13171 ****         2.2500   2.7500  45.5000 Du        
  13172 ****         2.2500   2.7500  45.7500 Du        
  13173 ****         2.2500   2.7500  46.0000 Du        
  13174 ****         2.2500   2.7500  46.2500 Du        
  13175 ****         2.2500   3.0000  44.2500 Du        
  13176 ****         2.2500   3.0000  44.5000 Du        
  13177 ****         2.2500   3.0000  44.7500 Du        
  13178 ****         2.2500   3.0000  45.0000 Du        
  13179 ****         2.2500   3.0000  45.2500 Du        
  13180 ****         2.2500   3.0000  45.5000 Du        
  13181 ****         2.2500   3.0000  45.7500 Du        
  13182 ****         2.2500   3.0000  46.0000 Du        
  13183 ****         2.2500   3.0000  46.2500 Du        
  13184 ****         2.2500   3.2500  44.0000 Du        
  13185 ****         2.2500   3.2500  44.2500 Du        
  13186 ****         2.2500   3.2500  44.5000 Du        
  13187 ****         2.2500   3.2500  44.7500 Du        
  13188 ****         2.2500   3.2500  45.0000 Du        
  13189 ****         2.2500   3.2500  45.2500 Du        
  13190 ****         2.2500   3.2500  45.5000 Du        
  13191 ****         2.2500   3.2500  45.7500 Du        
  13192 ****         2.2500   3.2500  46.0000 Du        
  13193 ****         2.2500   3.2500  46.2500 Du        
  13194 ****         2.2500   3.5000  43.7500 Du        
  13195 ****         2.2500   3.5000  44.0000 Du        
  13196 ****         2.2500   3.5000  44.2500 Du        
  13197 ****         2.2500   3.5000  44.5000 Du        
  13198 ****         2.2500   3.5000  44.7500 Du        
  13199 ****         2.2500   3.5000  45.0000 Du        
  13200 ****         2.2500   3.5000  45.2500 Du        
  13201 ****         2.2500   3.5000  45.5000 Du        
  13202 ****         2.2500   3.5000  45.7500 Du        
  13203 ****         2.2500   3.7500  44.0000 Du        
  13204 ****         2.2500   3.7500  44.2500 Du        
  13205 ****         2.2500   3.7500  44.5000 Du        
  13206 ****         2.2500   3.7500  44.7500 Du        
  13207 ****         2.2500   3.7500  45.0000 Du        
  13208 ****         2.2500   3.7500  45.2500 Du        
  13209 ****         2.2500   4.0000  44.2500 Du        
  13210 ****         2.2500   8.5000  26.2500 Du        
  13211 ****         2.2500   8.5000  26.5000 Du        
  13212 ****         2.2500   8.5000  26.7500 Du        
  13213 ****         2.2500   8.5000  27.0000 Du        
  13214 ****         2.2500   8.5000  27.2500 Du        
  13215 ****         2.2500   8.5000  27.5000 Du        
  13216 ****         2.2500   8.5000  27.7500 Du        
  13217 ****         2.2500   8.5000  28.0000 Du        
  13218 ****         2.2500   8.5000  28.2500 Du        
  13219 ****         2.2500   8.7500  25.0000 Du        
  13220 ****         2.2500   8.7500  25.2500 Du        
  13221 ****         2.2500   8.7500  25.5000 Du        
  13222 ****         2.2500   8.7500  25.7500 Du        
  13223 ****         2.2500   8.7500  26.0000 Du        
  13224 ****         2.2500   8.7500  26.2500 Du        
  13225 ****         2.2500   8.7500  26.5000 Du        
  13226 ****         2.2500   8.7500  26.7500 Du        
  13227 ****         2.2500   8.7500  27.0000 Du        
  13228 ****         2.2500   8.7500  27.2500 Du        
  13229 ****         2.2500   8.7500  27.5000 Du        
  13230 ****         2.2500   8.7500  27.7500 Du        
  13231 ****         2.2500   8.7500  28.0000 Du        
  13232 ****         2.2500   8.7500  28.2500 Du        
  13233 ****         2.2500   8.7500  28.5000 Du        
  13234 ****         2.2500   8.7500  28.7500 Du        
  13235 ****         2.2500   9.0000  24.5000 Du        
  13236 ****         2.2500   9.0000  24.7500 Du        
  13237 ****         2.2500   9.0000  25.0000 Du        
  13238 ****         2.2500   9.0000  25.2500 Du        
  13239 ****         2.2500   9.0000  25.5000 Du        
  13240 ****         2.2500   9.0000  25.7500 Du        
  13241 ****         2.2500   9.0000  26.0000 Du        
  13242 ****         2.2500   9.0000  26.2500 Du        
  13243 ****         2.2500   9.0000  26.5000 Du        
  13244 ****         2.2500   9.0000  26.7500 Du        
  13245 ****         2.2500   9.0000  27.0000 Du        
  13246 ****         2.2500   9.0000  27.2500 Du        
  13247 ****         2.2500   9.0000  27.5000 Du        
  13248 ****         2.2500   9.0000  27.7500 Du        
  13249 ****         2.2500   9.0000  28.0000 Du        
  13250 ****         2.2500   9.0000  28.2500 Du        
  13251 ****         2.2500   9.0000  28.5000 Du        
  13252 ****         2.2500   9.0000  28.7500 Du        
  13253 ****         2.2500   9.2500  24.5000 Du        
  13254 ****         2.2500   9.2500  24.7500 Du        
  13255 ****         2.2500   9.2500  25.0000 Du        
  13256 ****         2.2500   9.2500  25.2500 Du        
  13257 ****         2.2500   9.2500  25.5000 Du        
  13258 ****         2.2500   9.2500  25.7500 Du        
  13259 ****         2.2500   9.2500  26.0000 Du        
  13260 ****         2.2500   9.2500  26.2500 Du        
  13261 ****         2.2500   9.2500  26.5000 Du        
  13262 ****         2.2500   9.2500  26.7500 Du        
  13263 ****         2.2500   9.2500  27.0000 Du        
  13264 ****         2.2500   9.2500  27.2500 Du        
  13265 ****         2.2500   9.2500  27.5000 Du        
  13266 ****         2.2500   9.2500  27.7500 Du        
  13267 ****         2.2500   9.2500  28.0000 Du        
  13268 ****         2.2500   9.2500  28.2500 Du        
  13269 ****         2.2500   9.5000  23.5000 Du        
  13270 ****         2.2500   9.5000  23.7500 Du        
  13271 ****         2.2500   9.5000  24.0000 Du        
  13272 ****         2.2500   9.5000  24.2500 Du        
  13273 ****         2.2500   9.5000  24.5000 Du        
  13274 ****         2.2500   9.5000  24.7500 Du        
  13275 ****         2.2500   9.5000  25.0000 Du        
  13276 ****         2.2500   9.5000  25.2500 Du        
  13277 ****         2.2500   9.5000  25.5000 Du        
  13278 ****         2.2500   9.5000  25.7500 Du        
  13279 ****         2.2500   9.5000  26.0000 Du        
  13280 ****         2.2500   9.5000  26.2500 Du        
  13281 ****         2.2500   9.5000  26.5000 Du        
  13282 ****         2.2500   9.5000  26.7500 Du        
  13283 ****         2.2500   9.5000  27.0000 Du        
  13284 ****         2.2500   9.5000  27.2500 Du        
  13285 ****         2.2500   9.5000  27.5000 Du        
  13286 ****         2.2500   9.5000  27.7500 Du        
  13287 ****         2.2500   9.5000  28.0000 Du        
  13288 ****         2.2500   9.5000  28.2500 Du        
  13289 ****         2.2500   9.7500  23.5000 Du        
  13290 ****         2.2500   9.7500  23.7500 Du        
  13291 ****         2.2500   9.7500  24.0000 Du        
  13292 ****         2.2500   9.7500  24.2500 Du        
  13293 ****         2.2500   9.7500  24.5000 Du        
  13294 ****         2.2500   9.7500  24.7500 Du        
  13295 ****         2.2500   9.7500  25.0000 Du        
  13296 ****         2.2500   9.7500  25.2500 Du        
  13297 ****         2.2500   9.7500  25.7500 Du        
  13298 ****         2.2500   9.7500  26.5000 Du        
  13299 ****         2.2500   9.7500  26.7500 Du        
  13300 ****         2.2500   9.7500  27.0000 Du        
  13301 ****         2.2500   9.7500  27.2500 Du        
  13302 ****         2.2500   9.7500  27.5000 Du        
  13303 ****         2.2500   9.7500  27.7500 Du        
  13304 ****         2.2500  12.0000   5.2500 Du        
  13305 ****         2.2500  12.0000   7.0000 Du        
  13306 ****         2.2500  12.0000   7.2500 Du        
  13307 ****         2.2500  12.0000   8.0000 Du        
  13308 ****         2.2500  12.0000   8.2500 Du        
  13309 ****         2.2500  12.0000   8.5000 Du        
  13310 ****         2.2500  12.2500   5.0000 Du        
  13311 ****         2.2500  12.2500   5.2500 Du        
  13312 ****         2.2500  12.2500   5.5000 Du        
  13313 ****         2.2500  12.2500   5.7500 Du        
  13314 ****         2.2500  12.2500   6.0000 Du        
  13315 ****         2.2500  12.2500   6.2500 Du        
  13316 ****         2.2500  12.2500   6.5000 Du        
  13317 ****         2.2500  12.2500   6.7500 Du        
  13318 ****         2.2500  12.2500   7.0000 Du        
  13319 ****         2.2500  12.2500   7.2500 Du        
  13320 ****         2.2500  12.2500   7.7500 Du        
  13321 ****         2.2500  12.2500   8.0000 Du        
  13322 ****         2.2500  12.2500   8.2500 Du        
  13323 ****         2.2500  12.2500   8.5000 Du        
  13324 ****         2.2500  12.5000   5.2500 Du        
  13325 ****         2.2500  12.5000   5.5000 Du        
  13326 ****         2.2500  12.5000   5.7500 Du        
  13327 ****         2.2500  12.5000   6.0000 Du        
  13328 ****         2.2500  12.5000   6.2500 Du        
  13329 ****         2.2500  12.5000   6.5000 Du        
  13330 ****         2.2500  12.5000   6.7500 Du        
  13331 ****         2.2500  12.5000   7.0000 Du        
  13332 ****         2.2500  12.5000   7.2500 Du        
  13333 ****         2.2500  12.5000   7.5000 Du        
  13334 ****         2.2500  12.5000   7.7500 Du        
  13335 ****         2.2500  12.5000   8.0000 Du        
  13336 ****         2.2500  12.5000   8.2500 Du        
  13337 ****         2.2500  12.7500   5.2500 Du        
  13338 ****         2.2500  12.7500   5.5000 Du        
  13339 ****         2.2500  12.7500   5.7500 Du        
  13340 ****         2.2500  12.7500   6.0000 Du        
  13341 ****         2.2500  12.7500   6.2500 Du        
  13342 ****         2.2500  12.7500   6.5000 Du        
  13343 ****         2.2500  12.7500   6.7500 Du        
  13344 ****         2.2500  12.7500   7.0000 Du        
  13345 ****         2.2500  12.7500  35.7500 Du        
  13346 ****         2.2500  12.7500  36.0000 Du        
  13347 ****         2.2500  12.7500  36.2500 Du        
  13348 ****         2.2500  12.7500  36.7500 Du        
  13349 ****         2.2500  12.7500  37.0000 Du        
  13350 ****         2.2500  13.0000   5.2500 Du        
  13351 ****         2.2500  13.0000   5.5000 Du        
  13352 ****         2.2500  13.0000   5.7500 Du        
  13353 ****         2.2500  13.0000   6.0000 Du        
  13354 ****         2.2500  13.0000   6.2500 Du        
  13355 ****         2.2500  13.0000   6.5000 Du        
  13356 ****         2.2500  13.0000  35.7500 Du        
  13357 ****         2.2500  13.0000  36.0000 Du        
  13358 ****         2.2500  13.0000  36.2500 Du        
  13359 ****         2.2500  13.0000  36.5000 Du        
  13360 ****         2.2500  13.0000  36.7500 Du        
  13361 ****         2.2500  13.0000  37.0000 Du        
  13362 ****         2.2500  13.2500   5.2500 Du        
  13363 ****         2.2500  13.2500   5.5000 Du        
  13364 ****         2.2500  13.2500   5.7500 Du        
  13365 ****         2.2500  13.2500   6.0000 Du        
  13366 ****         2.2500  13.2500   6.2500 Du        
  13367 ****         2.2500  13.2500  35.7500 Du        
  13368 ****         2.2500  13.2500  36.0000 Du        
  13369 ****         2.2500  13.2500  36.2500 Du        
  13370 ****         2.2500  13.2500  36.5000 Du        
  13371 ****         2.2500  13.2500  36.7500 Du        
  13372 ****         2.2500  13.2500  37.0000 Du        
  13373 ****         2.2500  13.5000   5.2500 Du        
  13374 ****         2.2500  13.5000   5.5000 Du        
  13375 ****         2.2500  13.5000   5.7500 Du        
  13376 ****         2.2500  13.5000  35.7500 Du        
  13377 ****         2.2500  13.5000  36.0000 Du        
  13378 ****         2.2500  13.5000  36.2500 Du        
  13379 ****         2.2500  13.5000  36.5000 Du        
  13380 ****         2.2500  13.5000  36.7500 Du        
  13381 ****         2.2500  13.5000  37.0000 Du        
  13382 ****         2.2500  13.7500  36.0000 Du        
  13383 ****         2.2500  13.7500  36.2500 Du        
  13384 ****         2.2500  13.7500  36.5000 Du        
  13385 ****         2.2500  13.7500  36.7500 Du        
  13386 ****         2.2500  16.0000  -3.2500 Du        
  13387 ****         2.2500  16.0000  -3.0000 Du        
  13388 ****         2.2500  16.0000  -2.7500 Du        
  13389 ****         2.2500  16.0000  -2.5000 Du        
  13390 ****         2.2500  16.0000  -2.2500 Du        
  13391 ****         2.2500  16.0000  -2.0000 Du        
  13392 ****         2.2500  16.2500  -3.2500 Du        
  13393 ****         2.2500  16.2500  -3.0000 Du        
  13394 ****         2.2500  16.2500  -2.7500 Du        
  13395 ****         2.2500  16.2500  -2.5000 Du        
  13396 ****         2.2500  16.2500  -2.2500 Du        
  13397 ****         2.2500  16.2500  -2.0000 Du        
  13398 ****         2.2500  16.2500  -1.7500 Du        
  13399 ****         2.2500  16.2500  -1.5000 Du        
  13400 ****         2.2500  16.2500  -1.2500 Du        
  13401 ****         2.2500  16.2500  -1.0000 Du        
  13402 ****         2.2500  16.2500  -0.7500 Du        
  13403 ****         2.2500  16.2500  43.0000 Du        
  13404 ****         2.2500  16.5000  -3.2500 Du        
  13405 ****         2.2500  16.5000  -3.0000 Du        
  13406 ****         2.2500  16.5000  -2.7500 Du        
  13407 ****         2.2500  16.5000  -2.5000 Du        
  13408 ****         2.2500  16.5000  -2.2500 Du        
  13409 ****         2.2500  16.5000  -2.0000 Du        
  13410 ****         2.2500  16.5000  -1.7500 Du        
  13411 ****         2.2500  16.5000  -1.5000 Du        
  13412 ****         2.2500  16.5000  -1.2500 Du        
  13413 ****         2.2500  16.5000  -1.0000 Du        
  13414 ****         2.2500  16.5000  -0.7500 Du        
  13415 ****         2.2500  16.7500  -3.2500 Du        
  13416 ****         2.2500  16.7500  -3.0000 Du        
  13417 ****         2.2500  16.7500  -2.7500 Du        
  13418 ****         2.2500  16.7500  -2.5000 Du        
  13419 ****         2.2500  16.7500  -2.2500 Du        
  13420 ****         2.2500  16.7500  -2.0000 Du        
  13421 ****         2.2500  16.7500  -1.7500 Du        
  13422 ****         2.2500  16.7500  -1.5000 Du        
  13423 ****         2.2500  16.7500  -1.2500 Du        
  13424 ****         2.2500  16.7500  -1.0000 Du        
  13425 ****         2.2500  16.7500  -0.7500 Du        
  13426 ****         2.2500  17.0000  -3.0000 Du        
  13427 ****         2.2500  17.0000  -2.7500 Du        
  13428 ****         2.2500  17.0000  -2.5000 Du        
  13429 ****         2.2500  17.0000  -2.2500 Du        
  13430 ****         2.2500  17.0000  -2.0000 Du        
  13431 ****         2.2500  17.0000  -1.7500 Du        
  13432 ****         2.2500  17.0000  -1.5000 Du        
  13433 ****         2.2500  17.0000  -1.2500 Du        
  13434 ****         2.2500  17.0000  -1.0000 Du        
  13435 ****         2.2500  17.0000  -0.7500 Du        
  13436 ****         2.2500  17.2500  -3.0000 Du        
  13437 ****         2.2500  17.2500  -2.7500 Du        
  13438 ****         2.2500  17.2500  -2.5000 Du        
  13439 ****         2.2500  17.2500  -2.2500 Du        
  13440 ****         2.2500  17.2500  -2.0000 Du        
  13441 ****         2.2500  17.2500  -1.7500 Du        
  13442 ****         2.2500  17.2500  -1.5000 Du        
  13443 ****         2.2500  17.2500  -1.2500 Du        
  13444 ****         2.2500  17.2500  -1.0000 Du        
  13445 ****         2.2500  17.2500  -0.7500 Du        
  13446 ****         2.2500  17.5000  -2.5000 Du        
  13447 ****         2.2500  17.5000  -2.2500 Du        
  13448 ****         2.2500  17.5000  -2.0000 Du        
  13449 ****         2.2500  17.5000  -1.7500 Du        
  13450 ****         2.2500  17.5000  -1.5000 Du        
  13451 ****         2.2500  17.5000  -1.2500 Du        
  13452 ****         2.2500  17.5000  -1.0000 Du        
  13453 ****         2.2500  17.5000  -0.7500 Du        
  13454 ****         2.2500  17.7500  -2.7500 Du        
  13455 ****         2.2500  17.7500  -2.5000 Du        
  13456 ****         2.2500  17.7500  -2.2500 Du        
  13457 ****         2.2500  17.7500  -2.0000 Du        
  13458 ****         2.2500  17.7500  -1.7500 Du        
  13459 ****         2.2500  17.7500  -1.5000 Du        
  13460 ****         2.2500  17.7500  -1.2500 Du        
  13461 ****         2.2500  17.7500  -1.0000 Du        
  13462 ****         2.2500  17.7500  -0.7500 Du        
  13463 ****         2.2500  18.0000  -2.5000 Du        
  13464 ****         2.2500  18.0000  -2.2500 Du        
  13465 ****         2.2500  18.0000  -2.0000 Du        
  13466 ****         2.2500  18.0000  -1.7500 Du        
  13467 ****         2.2500  18.0000  -1.5000 Du        
  13468 ****         2.2500  18.0000  -1.2500 Du        
  13469 ****         2.2500  18.0000  -1.0000 Du        
  13470 ****         2.2500  18.0000  -0.7500 Du        
  13471 ****         2.2500  18.2500  -2.2500 Du        
  13472 ****         2.2500  18.2500  -2.0000 Du        
  13473 ****         2.2500  18.2500  -1.7500 Du        
  13474 ****         2.2500  18.2500  -1.5000 Du        
  13475 ****         2.2500  18.2500  -1.2500 Du        
  13476 ****         2.2500  18.2500  -1.0000 Du        
  13477 ****         2.2500  18.2500  -0.7500 Du        
  13478 ****         2.2500  18.5000  -2.0000 Du        
  13479 ****         2.2500  18.5000  -1.7500 Du        
  13480 ****         2.2500  18.5000  -1.5000 Du        
  13481 ****         2.2500  18.5000  -1.2500 Du        
  13482 ****         2.2500  18.5000  -1.0000 Du        
  13483 ****         2.2500  18.7500  -2.0000 Du        
  13484 ****         2.2500  18.7500  -1.7500 Du        
  13485 ****         2.2500  18.7500  -1.5000 Du        
  13486 ****         2.2500  18.7500  -1.2500 Du        
  13487 ****         2.2500  18.7500  -1.0000 Du        
  13488 ****         2.2500  19.0000  -1.7500 Du        
  13489 ****         2.2500  19.0000  -1.5000 Du        
  13490 ****         2.2500  19.0000  -1.2500 Du        
  13491 ****         2.2500  19.2500  -1.7500 Du        
  13492 ****         2.2500  19.2500  -1.5000 Du        
  13493 ****         2.2500  19.5000  -1.7500 Du        
  13494 ****         2.2500  19.5000  -1.5000 Du        
  13495 ****         2.2500  19.7500  -1.7500 Du        
  13496 ****         2.2500  20.0000  -1.7500 Du        
  13497 ****         2.2500  20.2500  -1.7500 Du        
  13498 ****         2.2500  20.7500  -1.7500 Du        
  13499 ****         2.5000   2.7500  45.0000 Du        
  13500 ****         2.5000   2.7500  45.2500 Du        
  13501 ****         2.5000   2.7500  45.5000 Du        
  13502 ****         2.5000   2.7500  45.7500 Du        
  13503 ****         2.5000   2.7500  46.0000 Du        
  13504 ****         2.5000   3.0000  44.5000 Du        
  13505 ****         2.5000   3.0000  44.7500 Du        
  13506 ****         2.5000   3.0000  45.0000 Du        
  13507 ****         2.5000   3.0000  45.2500 Du        
  13508 ****         2.5000   3.0000  45.5000 Du        
  13509 ****         2.5000   3.0000  45.7500 Du        
  13510 ****         2.5000   3.0000  46.0000 Du        
  13511 ****         2.5000   3.2500  44.2500 Du        
  13512 ****         2.5000   3.2500  44.5000 Du        
  13513 ****         2.5000   3.2500  44.7500 Du        
  13514 ****         2.5000   3.2500  45.0000 Du        
  13515 ****         2.5000   3.2500  45.2500 Du        
  13516 ****         2.5000   3.5000  44.0000 Du        
  13517 ****         2.5000   3.5000  44.2500 Du        
  13518 ****         2.5000   3.5000  44.5000 Du        
  13519 ****         2.5000   3.5000  44.7500 Du        
  13520 ****         2.5000   3.5000  45.0000 Du        
  13521 ****         2.5000   3.7500  44.0000 Du        
  13522 ****         2.5000   3.7500  44.2500 Du        
  13523 ****         2.5000   3.7500  44.5000 Du        
  13524 ****         2.5000   3.7500  44.7500 Du        
  13525 ****         2.5000   7.5000  -5.5000 Du        
  13526 ****         2.5000   8.5000  26.7500 Du        
  13527 ****         2.5000   8.5000  27.0000 Du        
  13528 ****         2.5000   8.5000  27.2500 Du        
  13529 ****         2.5000   8.5000  27.5000 Du        
  13530 ****         2.5000   8.5000  27.7500 Du        
  13531 ****         2.5000   8.5000  28.0000 Du        
  13532 ****         2.5000   8.5000  28.2500 Du        
  13533 ****         2.5000   8.7500  26.0000 Du        
  13534 ****         2.5000   8.7500  26.2500 Du        
  13535 ****         2.5000   8.7500  26.5000 Du        
  13536 ****         2.5000   8.7500  26.7500 Du        
  13537 ****         2.5000   8.7500  27.0000 Du        
  13538 ****         2.5000   8.7500  27.2500 Du        
  13539 ****         2.5000   8.7500  27.5000 Du        
  13540 ****         2.5000   8.7500  27.7500 Du        
  13541 ****         2.5000   8.7500  28.0000 Du        
  13542 ****         2.5000   8.7500  28.2500 Du        
  13543 ****         2.5000   8.7500  28.5000 Du        
  13544 ****         2.5000   9.0000  24.7500 Du        
  13545 ****         2.5000   9.0000  25.0000 Du        
  13546 ****         2.5000   9.0000  25.2500 Du        
  13547 ****         2.5000   9.0000  25.5000 Du        
  13548 ****         2.5000   9.0000  25.7500 Du        
  13549 ****         2.5000   9.0000  26.0000 Du        
  13550 ****         2.5000   9.0000  26.2500 Du        
  13551 ****         2.5000   9.0000  26.5000 Du        
  13552 ****         2.5000   9.0000  26.7500 Du        
  13553 ****         2.5000   9.0000  27.0000 Du        
  13554 ****         2.5000   9.0000  27.2500 Du        
  13555 ****         2.5000   9.0000  27.5000 Du        
  13556 ****         2.5000   9.0000  27.7500 Du        
  13557 ****         2.5000   9.0000  28.0000 Du        
  13558 ****         2.5000   9.0000  28.2500 Du        
  13559 ****         2.5000   9.0000  28.5000 Du        
  13560 ****         2.5000   9.2500  24.5000 Du        
  13561 ****         2.5000   9.2500  24.7500 Du        
  13562 ****         2.5000   9.2500  25.0000 Du        
  13563 ****         2.5000   9.2500  25.2500 Du        
  13564 ****         2.5000   9.2500  25.5000 Du        
  13565 ****         2.5000   9.2500  25.7500 Du        
  13566 ****         2.5000   9.2500  26.0000 Du        
  13567 ****         2.5000   9.2500  26.2500 Du        
  13568 ****         2.5000   9.2500  26.5000 Du        
  13569 ****         2.5000   9.2500  26.7500 Du        
  13570 ****         2.5000   9.2500  27.0000 Du        
  13571 ****         2.5000   9.2500  27.2500 Du        
  13572 ****         2.5000   9.2500  27.5000 Du        
  13573 ****         2.5000   9.2500  27.7500 Du        
  13574 ****         2.5000   9.2500  28.0000 Du        
  13575 ****         2.5000   9.2500  28.2500 Du        
  13576 ****         2.5000   9.5000  24.2500 Du        
  13577 ****         2.5000   9.5000  24.5000 Du        
  13578 ****         2.5000   9.5000  24.7500 Du        
  13579 ****         2.5000   9.5000  25.0000 Du        
  13580 ****         2.5000   9.5000  25.2500 Du        
  13581 ****         2.5000   9.5000  25.5000 Du        
  13582 ****         2.5000   9.5000  25.7500 Du        
  13583 ****         2.5000   9.5000  26.0000 Du        
  13584 ****         2.5000   9.5000  26.2500 Du        
  13585 ****         2.5000   9.5000  26.5000 Du        
  13586 ****         2.5000   9.5000  26.7500 Du        
  13587 ****         2.5000   9.5000  27.0000 Du        
  13588 ****         2.5000   9.5000  27.2500 Du        
  13589 ****         2.5000   9.5000  27.5000 Du        
  13590 ****         2.5000   9.5000  27.7500 Du        
  13591 ****         2.5000   9.5000  28.0000 Du        
  13592 ****         2.5000   9.5000  28.2500 Du        
  13593 ****         2.5000   9.7500  23.7500 Du        
  13594 ****         2.5000   9.7500  24.0000 Du        
  13595 ****         2.5000   9.7500  24.2500 Du        
  13596 ****         2.5000   9.7500  24.5000 Du        
  13597 ****         2.5000   9.7500  24.7500 Du        
  13598 ****         2.5000   9.7500  25.0000 Du        
  13599 ****         2.5000   9.7500  25.2500 Du        
  13600 ****         2.5000   9.7500  25.5000 Du        
  13601 ****         2.5000   9.7500  25.7500 Du        
  13602 ****         2.5000   9.7500  26.0000 Du        
  13603 ****         2.5000   9.7500  26.2500 Du        
  13604 ****         2.5000   9.7500  26.5000 Du        
  13605 ****         2.5000   9.7500  26.7500 Du        
  13606 ****         2.5000   9.7500  27.0000 Du        
  13607 ****         2.5000   9.7500  27.2500 Du        
  13608 ****         2.5000   9.7500  27.5000 Du        
  13609 ****         2.5000   9.7500  27.7500 Du        
  13610 ****         2.5000   9.7500  28.0000 Du        
  13611 ****         2.5000  11.0000  37.2500 Du        
  13612 ****         2.5000  11.2500  37.2500 Du        
  13613 ****         2.5000  12.0000  37.0000 Du        
  13614 ****         2.5000  12.0000  37.2500 Du        
  13615 ****         2.5000  12.2500  35.2500 Du        
  13616 ****         2.5000  12.2500  36.7500 Du        
  13617 ****         2.5000  12.2500  37.0000 Du        
  13618 ****         2.5000  12.2500  37.2500 Du        
  13619 ****         2.5000  12.5000   5.2500 Du        
  13620 ****         2.5000  12.5000   5.5000 Du        
  13621 ****         2.5000  12.5000   5.7500 Du        
  13622 ****         2.5000  12.5000   6.0000 Du        
  13623 ****         2.5000  12.5000   6.2500 Du        
  13624 ****         2.5000  12.5000  35.2500 Du        
  13625 ****         2.5000  12.5000  35.5000 Du        
  13626 ****         2.5000  12.5000  35.7500 Du        
  13627 ****         2.5000  12.5000  36.0000 Du        
  13628 ****         2.5000  12.5000  36.5000 Du        
  13629 ****         2.5000  12.5000  36.7500 Du        
  13630 ****         2.5000  12.5000  37.0000 Du        
  13631 ****         2.5000  12.7500   5.2500 Du        
  13632 ****         2.5000  12.7500   5.5000 Du        
  13633 ****         2.5000  12.7500   5.7500 Du        
  13634 ****         2.5000  12.7500   6.0000 Du        
  13635 ****         2.5000  12.7500   6.2500 Du        
  13636 ****         2.5000  12.7500  35.2500 Du        
  13637 ****         2.5000  12.7500  35.5000 Du        
  13638 ****         2.5000  12.7500  35.7500 Du        
  13639 ****         2.5000  12.7500  36.0000 Du        
  13640 ****         2.5000  12.7500  36.2500 Du        
  13641 ****         2.5000  12.7500  36.5000 Du        
  13642 ****         2.5000  12.7500  36.7500 Du        
  13643 ****         2.5000  12.7500  37.0000 Du        
  13644 ****         2.5000  12.7500  37.2500 Du        
  13645 ****         2.5000  13.0000   5.2500 Du        
  13646 ****         2.5000  13.0000   5.5000 Du        
  13647 ****         2.5000  13.0000   5.7500 Du        
  13648 ****         2.5000  13.0000   6.0000 Du        
  13649 ****         2.5000  13.0000  35.2500 Du        
  13650 ****         2.5000  13.0000  35.5000 Du        
  13651 ****         2.5000  13.0000  35.7500 Du        
  13652 ****         2.5000  13.0000  36.0000 Du        
  13653 ****         2.5000  13.0000  36.2500 Du        
  13654 ****         2.5000  13.0000  36.5000 Du        
  13655 ****         2.5000  13.0000  36.7500 Du        
  13656 ****         2.5000  13.0000  37.0000 Du        
  13657 ****         2.5000  13.0000  37.2500 Du        
  13658 ****         2.5000  13.2500   5.5000 Du        
  13659 ****         2.5000  13.2500   5.7500 Du        
  13660 ****         2.5000  13.2500   6.0000 Du        
  13661 ****         2.5000  13.2500  35.7500 Du        
  13662 ****         2.5000  13.2500  36.0000 Du        
  13663 ****         2.5000  13.2500  36.2500 Du        
  13664 ****         2.5000  13.2500  36.5000 Du        
  13665 ****         2.5000  13.2500  36.7500 Du        
  13666 ****         2.5000  13.5000   5.5000 Du        
  13667 ****         2.5000  15.7500  -4.5000 Du        
  13668 ****         2.5000  15.7500  -4.2500 Du        
  13669 ****         2.5000  15.7500  -4.0000 Du        
  13670 ****         2.5000  15.7500  -3.7500 Du        
  13671 ****         2.5000  15.7500  -3.5000 Du        
  13672 ****         2.5000  15.7500  -3.2500 Du        
  13673 ****         2.5000  16.0000  -4.5000 Du        
  13674 ****         2.5000  16.0000  -4.2500 Du        
  13675 ****         2.5000  16.0000  -4.0000 Du        
  13676 ****         2.5000  16.0000  -3.7500 Du        
  13677 ****         2.5000  16.0000  -3.5000 Du        
  13678 ****         2.5000  16.0000  -3.2500 Du        
  13679 ****         2.5000  16.0000  -3.0000 Du        
  13680 ****         2.5000  16.0000  -2.7500 Du        
  13681 ****         2.5000  16.0000  -2.5000 Du        
  13682 ****         2.5000  16.0000  -2.2500 Du        
  13683 ****         2.5000  16.2500  -4.2500 Du        
  13684 ****         2.5000  16.2500  -4.0000 Du        
  13685 ****         2.5000  16.2500  -3.7500 Du        
  13686 ****         2.5000  16.2500  -3.5000 Du        
  13687 ****         2.5000  16.2500  -3.2500 Du        
  13688 ****         2.5000  16.2500  -3.0000 Du        
  13689 ****         2.5000  16.2500  -2.7500 Du        
  13690 ****         2.5000  16.2500  -2.5000 Du        
  13691 ****         2.5000  16.2500  -2.2500 Du        
  13692 ****         2.5000  16.2500  -2.0000 Du        
  13693 ****         2.5000  16.2500  -1.7500 Du        
  13694 ****         2.5000  16.2500  -1.5000 Du        
  13695 ****         2.5000  16.2500  -1.2500 Du        
  13696 ****         2.5000  16.2500  -1.0000 Du        
  13697 ****         2.5000  16.2500  -0.7500 Du        
  13698 ****         2.5000  16.5000  -3.5000 Du        
  13699 ****         2.5000  16.5000  -3.2500 Du        
  13700 ****         2.5000  16.5000  -3.0000 Du        
  13701 ****         2.5000  16.5000  -2.7500 Du        
  13702 ****         2.5000  16.5000  -2.5000 Du        
  13703 ****         2.5000  16.5000  -2.2500 Du        
  13704 ****         2.5000  16.5000  -2.0000 Du        
  13705 ****         2.5000  16.5000  -1.7500 Du        
  13706 ****         2.5000  16.5000  -1.5000 Du        
  13707 ****         2.5000  16.5000  -1.2500 Du        
  13708 ****         2.5000  16.5000  -1.0000 Du        
  13709 ****         2.5000  16.5000  -0.7500 Du        
  13710 ****         2.5000  16.7500  -3.2500 Du        
  13711 ****         2.5000  16.7500  -3.0000 Du        
  13712 ****         2.5000  16.7500  -2.7500 Du        
  13713 ****         2.5000  16.7500  -2.5000 Du        
  13714 ****         2.5000  16.7500  -2.2500 Du        
  13715 ****         2.5000  16.7500  -2.0000 Du        
  13716 ****         2.5000  16.7500  -1.7500 Du        
  13717 ****         2.5000  16.7500  -1.5000 Du        
  13718 ****         2.5000  16.7500  -1.2500 Du        
  13719 ****         2.5000  16.7500  -1.0000 Du        
  13720 ****         2.5000  16.7500  -0.7500 Du        
  13721 ****         2.5000  17.0000  -3.2500 Du        
  13722 ****         2.5000  17.0000  -3.0000 Du        
  13723 ****         2.5000  17.0000  -2.7500 Du        
  13724 ****         2.5000  17.0000  -2.5000 Du        
  13725 ****         2.5000  17.0000  -2.2500 Du        
  13726 ****         2.5000  17.0000  -2.0000 Du        
  13727 ****         2.5000  17.0000  -1.7500 Du        
  13728 ****         2.5000  17.0000  -1.5000 Du        
  13729 ****         2.5000  17.0000  -1.2500 Du        
  13730 ****         2.5000  17.0000  -1.0000 Du        
  13731 ****         2.5000  17.0000  -0.7500 Du        
  13732 ****         2.5000  17.2500  -3.2500 Du        
  13733 ****         2.5000  17.2500  -3.0000 Du        
  13734 ****         2.5000  17.2500  -2.7500 Du        
  13735 ****         2.5000  17.2500  -2.5000 Du        
  13736 ****         2.5000  17.2500  -2.2500 Du        
  13737 ****         2.5000  17.2500  -2.0000 Du        
  13738 ****         2.5000  17.2500  -1.7500 Du        
  13739 ****         2.5000  17.2500  -1.5000 Du        
  13740 ****         2.5000  17.2500  -1.2500 Du        
  13741 ****         2.5000  17.2500  -1.0000 Du        
  13742 ****         2.5000  17.2500  -0.7500 Du        
  13743 ****         2.5000  17.5000  -3.0000 Du        
  13744 ****         2.5000  17.5000  -2.7500 Du        
  13745 ****         2.5000  17.5000  -2.5000 Du        
  13746 ****         2.5000  17.5000  -2.2500 Du        
  13747 ****         2.5000  17.5000  -2.0000 Du        
  13748 ****         2.5000  17.5000  -1.7500 Du        
  13749 ****         2.5000  17.5000  -1.5000 Du        
  13750 ****         2.5000  17.5000  -1.2500 Du        
  13751 ****         2.5000  17.5000  -1.0000 Du        
  13752 ****         2.5000  17.5000  -0.7500 Du        
  13753 ****         2.5000  17.7500  -2.7500 Du        
  13754 ****         2.5000  17.7500  -2.5000 Du        
  13755 ****         2.5000  17.7500  -2.2500 Du        
  13756 ****         2.5000  17.7500  -2.0000 Du        
  13757 ****         2.5000  17.7500  -1.7500 Du        
  13758 ****         2.5000  17.7500  -1.5000 Du        
  13759 ****         2.5000  17.7500  -1.2500 Du        
  13760 ****         2.5000  17.7500  -1.0000 Du        
  13761 ****         2.5000  17.7500  -0.7500 Du        
  13762 ****         2.5000  18.0000  -2.5000 Du        
  13763 ****         2.5000  18.0000  -2.2500 Du        
  13764 ****         2.5000  18.0000  -2.0000 Du        
  13765 ****         2.5000  18.0000  -1.7500 Du        
  13766 ****         2.5000  18.0000  -1.5000 Du        
  13767 ****         2.5000  18.0000  -1.2500 Du        
  13768 ****         2.5000  18.0000  -1.0000 Du        
  13769 ****         2.5000  18.0000  -0.7500 Du        
  13770 ****         2.5000  18.2500  -2.2500 Du        
  13771 ****         2.5000  18.2500  -2.0000 Du        
  13772 ****         2.5000  18.2500  -1.7500 Du        
  13773 ****         2.5000  18.2500  -1.5000 Du        
  13774 ****         2.5000  18.2500  -1.2500 Du        
  13775 ****         2.5000  18.2500  -1.0000 Du        
  13776 ****         2.5000  18.2500  -0.7500 Du        
  13777 ****         2.5000  18.5000  -1.7500 Du        
  13778 ****         2.5000  18.5000  -1.5000 Du        
  13779 ****         2.5000  18.5000  -1.2500 Du        
  13780 ****         2.5000  18.5000  -1.0000 Du        
  13781 ****         2.5000  18.7500  -1.5000 Du        
  13782 ****         2.5000  18.7500  -1.2500 Du        
  13783 ****         2.5000  18.7500  -1.0000 Du        
  13784 ****         2.5000  19.0000  -1.5000 Du        
  13785 ****         2.5000  19.0000  -1.2500 Du        
  13786 ****         2.5000  20.7500  -1.5000 Du        
  13787 ****         2.7500   4.0000  33.2500 Du        
  13788 ****         2.7500   4.0000  33.5000 Du        
  13789 ****         2.7500   4.2500  33.0000 Du        
  13790 ****         2.7500   4.2500  33.2500 Du        
  13791 ****         2.7500   4.2500  33.5000 Du        
  13792 ****         2.7500   4.2500  33.7500 Du        
  13793 ****         2.7500   7.2500  -5.5000 Du        
  13794 ****         2.7500   7.2500  -5.2500 Du        
  13795 ****         2.7500   7.5000  -5.7500 Du        
  13796 ****         2.7500   7.5000  -5.5000 Du        
  13797 ****         2.7500   7.5000  -5.2500 Du        
  13798 ****         2.7500   7.7500  -5.7500 Du        
  13799 ****         2.7500   7.7500  -5.5000 Du        
  13800 ****         2.7500   8.5000  26.7500 Du        
  13801 ****         2.7500   8.5000  27.0000 Du        
  13802 ****         2.7500   8.5000  27.2500 Du        
  13803 ****         2.7500   8.5000  27.5000 Du        
  13804 ****         2.7500   8.5000  27.7500 Du        
  13805 ****         2.7500   8.5000  28.0000 Du        
  13806 ****         2.7500   8.7500  26.2500 Du        
  13807 ****         2.7500   8.7500  26.5000 Du        
  13808 ****         2.7500   8.7500  26.7500 Du        
  13809 ****         2.7500   8.7500  27.0000 Du        
  13810 ****         2.7500   8.7500  27.2500 Du        
  13811 ****         2.7500   8.7500  27.5000 Du        
  13812 ****         2.7500   8.7500  27.7500 Du        
  13813 ****         2.7500   8.7500  28.0000 Du        
  13814 ****         2.7500   8.7500  28.2500 Du        
  13815 ****         2.7500   9.0000  25.0000 Du        
  13816 ****         2.7500   9.0000  25.2500 Du        
  13817 ****         2.7500   9.0000  25.5000 Du        
  13818 ****         2.7500   9.0000  25.7500 Du        
  13819 ****         2.7500   9.0000  26.0000 Du        
  13820 ****         2.7500   9.0000  26.2500 Du        
  13821 ****         2.7500   9.0000  26.5000 Du        
  13822 ****         2.7500   9.0000  26.7500 Du        
  13823 ****         2.7500   9.0000  27.0000 Du        
  13824 ****         2.7500   9.0000  27.2500 Du        
  13825 ****         2.7500   9.0000  27.5000 Du        
  13826 ****         2.7500   9.0000  27.7500 Du        
  13827 ****         2.7500   9.0000  28.0000 Du        
  13828 ****         2.7500   9.0000  28.2500 Du        
  13829 ****         2.7500   9.0000  28.5000 Du        
  13830 ****         2.7500   9.2500  24.5000 Du        
  13831 ****         2.7500   9.2500  24.7500 Du        
  13832 ****         2.7500   9.2500  25.0000 Du        
  13833 ****         2.7500   9.2500  25.2500 Du        
  13834 ****         2.7500   9.2500  25.5000 Du        
  13835 ****         2.7500   9.2500  25.7500 Du        
  13836 ****         2.7500   9.2500  26.0000 Du        
  13837 ****         2.7500   9.2500  26.2500 Du        
  13838 ****         2.7500   9.2500  26.5000 Du        
  13839 ****         2.7500   9.2500  26.7500 Du        
  13840 ****         2.7500   9.2500  27.0000 Du        
  13841 ****         2.7500   9.2500  27.2500 Du        
  13842 ****         2.7500   9.2500  27.5000 Du        
  13843 ****         2.7500   9.2500  27.7500 Du        
  13844 ****         2.7500   9.2500  28.0000 Du        
  13845 ****         2.7500   9.2500  28.2500 Du        
  13846 ****         2.7500   9.2500  28.5000 Du        
  13847 ****         2.7500   9.5000  24.5000 Du        
  13848 ****         2.7500   9.5000  24.7500 Du        
  13849 ****         2.7500   9.5000  25.0000 Du        
  13850 ****         2.7500   9.5000  25.2500 Du        
  13851 ****         2.7500   9.5000  25.5000 Du        
  13852 ****         2.7500   9.5000  25.7500 Du        
  13853 ****         2.7500   9.5000  26.0000 Du        
  13854 ****         2.7500   9.5000  26.2500 Du        
  13855 ****         2.7500   9.5000  26.5000 Du        
  13856 ****         2.7500   9.5000  26.7500 Du        
  13857 ****         2.7500   9.5000  27.0000 Du        
  13858 ****         2.7500   9.5000  27.2500 Du        
  13859 ****         2.7500   9.5000  27.5000 Du        
  13860 ****         2.7500   9.5000  27.7500 Du        
  13861 ****         2.7500   9.5000  28.0000 Du        
  13862 ****         2.7500   9.5000  28.2500 Du        
  13863 ****         2.7500   9.5000  28.5000 Du        
  13864 ****         2.7500   9.7500  24.5000 Du        
  13865 ****         2.7500   9.7500  24.7500 Du        
  13866 ****         2.7500   9.7500  25.0000 Du        
  13867 ****         2.7500   9.7500  25.2500 Du        
  13868 ****         2.7500   9.7500  25.5000 Du        
  13869 ****         2.7500   9.7500  25.7500 Du        
  13870 ****         2.7500   9.7500  26.0000 Du        
  13871 ****         2.7500   9.7500  26.2500 Du        
  13872 ****         2.7500   9.7500  26.5000 Du        
  13873 ****         2.7500   9.7500  26.7500 Du        
  13874 ****         2.7500   9.7500  27.0000 Du        
  13875 ****         2.7500   9.7500  27.2500 Du        
  13876 ****         2.7500   9.7500  27.5000 Du        
  13877 ****         2.7500   9.7500  27.7500 Du        
  13878 ****         2.7500   9.7500  28.0000 Du        
  13879 ****         2.7500   9.7500  28.2500 Du        
  13880 ****         2.7500  10.0000  27.0000 Du        
  13881 ****         2.7500  10.0000  27.2500 Du        
  13882 ****         2.7500  10.0000  27.5000 Du        
  13883 ****         2.7500  10.0000  27.7500 Du        
  13884 ****         2.7500  11.0000  36.7500 Du        
  13885 ****         2.7500  11.0000  37.0000 Du        
  13886 ****         2.7500  11.2500  36.7500 Du        
  13887 ****         2.7500  11.2500  37.0000 Du        
  13888 ****         2.7500  11.2500  37.2500 Du        
  13889 ****         2.7500  11.5000  37.0000 Du        
  13890 ****         2.7500  11.7500  36.0000 Du        
  13891 ****         2.7500  11.7500  36.5000 Du        
  13892 ****         2.7500  11.7500  36.7500 Du        
  13893 ****         2.7500  11.7500  37.0000 Du        
  13894 ****         2.7500  11.7500  37.2500 Du        
  13895 ****         2.7500  12.0000  35.0000 Du        
  13896 ****         2.7500  12.0000  35.2500 Du        
  13897 ****         2.7500  12.0000  36.0000 Du        
  13898 ****         2.7500  12.0000  36.5000 Du        
  13899 ****         2.7500  12.0000  36.7500 Du        
  13900 ****         2.7500  12.0000  37.0000 Du        
  13901 ****         2.7500  12.0000  37.2500 Du        
  13902 ****         2.7500  12.2500  35.0000 Du        
  13903 ****         2.7500  12.2500  35.2500 Du        
  13904 ****         2.7500  12.2500  36.0000 Du        
  13905 ****         2.7500  12.2500  36.2500 Du        
  13906 ****         2.7500  12.2500  36.5000 Du        
  13907 ****         2.7500  12.2500  36.7500 Du        
  13908 ****         2.7500  12.2500  37.0000 Du        
  13909 ****         2.7500  12.2500  37.2500 Du        
  13910 ****         2.7500  12.5000  34.7500 Du        
  13911 ****         2.7500  12.5000  35.0000 Du        
  13912 ****         2.7500  12.5000  35.2500 Du        
  13913 ****         2.7500  12.5000  35.5000 Du        
  13914 ****         2.7500  12.5000  35.7500 Du        
  13915 ****         2.7500  12.5000  36.0000 Du        
  13916 ****         2.7500  12.5000  36.2500 Du        
  13917 ****         2.7500  12.5000  36.5000 Du        
  13918 ****         2.7500  12.5000  36.7500 Du        
  13919 ****         2.7500  12.5000  37.0000 Du        
  13920 ****         2.7500  12.7500  34.7500 Du        
  13921 ****         2.7500  12.7500  35.0000 Du        
  13922 ****         2.7500  12.7500  35.2500 Du        
  13923 ****         2.7500  12.7500  35.5000 Du        
  13924 ****         2.7500  12.7500  35.7500 Du        
  13925 ****         2.7500  12.7500  36.0000 Du        
  13926 ****         2.7500  12.7500  36.2500 Du        
  13927 ****         2.7500  12.7500  36.5000 Du        
  13928 ****         2.7500  12.7500  36.7500 Du        
  13929 ****         2.7500  12.7500  37.0000 Du        
  13930 ****         2.7500  13.0000  35.0000 Du        
  13931 ****         2.7500  13.0000  35.2500 Du        
  13932 ****         2.7500  13.0000  35.5000 Du        
  13933 ****         2.7500  13.0000  35.7500 Du        
  13934 ****         2.7500  13.0000  36.0000 Du        
  13935 ****         2.7500  13.0000  36.2500 Du        
  13936 ****         2.7500  13.0000  36.5000 Du        
  13937 ****         2.7500  13.0000  36.7500 Du        
  13938 ****         2.7500  13.0000  37.0000 Du        
  13939 ****         2.7500  13.2500  35.7500 Du        
  13940 ****         2.7500  13.2500  36.0000 Du        
  13941 ****         2.7500  13.2500  36.2500 Du        
  13942 ****         2.7500  15.5000  -5.0000 Du        
  13943 ****         2.7500  15.5000  -4.7500 Du        
  13944 ****         2.7500  15.5000  -4.5000 Du        
  13945 ****         2.7500  15.5000  -4.2500 Du        
  13946 ****         2.7500  15.5000  -4.0000 Du        
  13947 ****         2.7500  15.5000  -3.7500 Du        
  13948 ****         2.7500  15.5000  -3.5000 Du        
  13949 ****         2.7500  15.7500  -5.0000 Du        
  13950 ****         2.7500  15.7500  -4.7500 Du        
  13951 ****         2.7500  15.7500  -4.5000 Du        
  13952 ****         2.7500  15.7500  -4.2500 Du        
  13953 ****         2.7500  15.7500  -4.0000 Du        
  13954 ****         2.7500  15.7500  -3.7500 Du        
  13955 ****         2.7500  15.7500  -3.5000 Du        
  13956 ****         2.7500  15.7500  -3.2500 Du        
  13957 ****         2.7500  15.7500  -3.0000 Du        
  13958 ****         2.7500  16.0000  -5.0000 Du        
  13959 ****         2.7500  16.0000  -4.7500 Du        
  13960 ****         2.7500  16.0000  -4.5000 Du        
  13961 ****         2.7500  16.0000  -4.2500 Du        
  13962 ****         2.7500  16.0000  -4.0000 Du        
  13963 ****         2.7500  16.0000  -3.7500 Du        
  13964 ****         2.7500  16.0000  -3.5000 Du        
  13965 ****         2.7500  16.0000  -3.2500 Du        
  13966 ****         2.7500  16.0000  -3.0000 Du        
  13967 ****         2.7500  16.0000  -2.7500 Du        
  13968 ****         2.7500  16.0000  -2.5000 Du        
  13969 ****         2.7500  16.2500  -4.7500 Du        
  13970 ****         2.7500  16.2500  -4.5000 Du        
  13971 ****         2.7500  16.2500  -4.2500 Du        
  13972 ****         2.7500  16.2500  -4.0000 Du        
  13973 ****         2.7500  16.2500  -3.7500 Du        
  13974 ****         2.7500  16.2500  -3.5000 Du        
  13975 ****         2.7500  16.2500  -3.2500 Du        
  13976 ****         2.7500  16.2500  -3.0000 Du        
  13977 ****         2.7500  16.2500  -2.7500 Du        
  13978 ****         2.7500  16.2500  -2.5000 Du        
  13979 ****         2.7500  16.2500  -2.2500 Du        
  13980 ****         2.7500  16.2500  -2.0000 Du        
  13981 ****         2.7500  16.2500  -1.7500 Du        
  13982 ****         2.7500  16.2500  -1.5000 Du        
  13983 ****         2.7500  16.2500  -1.2500 Du        
  13984 ****         2.7500  16.2500  -1.0000 Du        
  13985 ****         2.7500  16.5000  -4.2500 Du        
  13986 ****         2.7500  16.5000  -4.0000 Du        
  13987 ****         2.7500  16.5000  -3.7500 Du        
  13988 ****         2.7500  16.5000  -3.5000 Du        
  13989 ****         2.7500  16.5000  -3.2500 Du        
  13990 ****         2.7500  16.5000  -3.0000 Du        
  13991 ****         2.7500  16.5000  -2.7500 Du        
  13992 ****         2.7500  16.5000  -2.5000 Du        
  13993 ****         2.7500  16.5000  -2.2500 Du        
  13994 ****         2.7500  16.5000  -2.0000 Du        
  13995 ****         2.7500  16.5000  -1.7500 Du        
  13996 ****         2.7500  16.5000  -1.5000 Du        
  13997 ****         2.7500  16.5000  -1.2500 Du        
  13998 ****         2.7500  16.5000  -1.0000 Du        
  13999 ****         2.7500  16.5000  -0.7500 Du        
  14000 ****         2.7500  16.7500  -4.2500 Du        
  14001 ****         2.7500  16.7500  -4.0000 Du        
  14002 ****         2.7500  16.7500  -3.7500 Du        
  14003 ****         2.7500  16.7500  -3.5000 Du        
  14004 ****         2.7500  16.7500  -3.2500 Du        
  14005 ****         2.7500  16.7500  -3.0000 Du        
  14006 ****         2.7500  16.7500  -2.7500 Du        
  14007 ****         2.7500  16.7500  -2.5000 Du        
  14008 ****         2.7500  16.7500  -2.2500 Du        
  14009 ****         2.7500  16.7500  -2.0000 Du        
  14010 ****         2.7500  16.7500  -1.7500 Du        
  14011 ****         2.7500  16.7500  -1.5000 Du        
  14012 ****         2.7500  16.7500  -1.2500 Du        
  14013 ****         2.7500  16.7500  -1.0000 Du        
  14014 ****         2.7500  16.7500  -0.7500 Du        
  14015 ****         2.7500  17.0000  -3.5000 Du        
  14016 ****         2.7500  17.0000  -3.2500 Du        
  14017 ****         2.7500  17.0000  -3.0000 Du        
  14018 ****         2.7500  17.0000  -2.7500 Du        
  14019 ****         2.7500  17.0000  -2.5000 Du        
  14020 ****         2.7500  17.0000  -2.2500 Du        
  14021 ****         2.7500  17.0000  -2.0000 Du        
  14022 ****         2.7500  17.0000  -1.7500 Du        
  14023 ****         2.7500  17.0000  -1.5000 Du        
  14024 ****         2.7500  17.0000  -1.2500 Du        
  14025 ****         2.7500  17.0000  -1.0000 Du        
  14026 ****         2.7500  17.0000  -0.7500 Du        
  14027 ****         2.7500  17.2500  -3.2500 Du        
  14028 ****         2.7500  17.2500  -3.0000 Du        
  14029 ****         2.7500  17.2500  -2.7500 Du        
  14030 ****         2.7500  17.2500  -2.5000 Du        
  14031 ****         2.7500  17.2500  -2.2500 Du        
  14032 ****         2.7500  17.2500  -2.0000 Du        
  14033 ****         2.7500  17.2500  -1.7500 Du        
  14034 ****         2.7500  17.2500  -1.5000 Du        
  14035 ****         2.7500  17.2500  -1.2500 Du        
  14036 ****         2.7500  17.2500  -1.0000 Du        
  14037 ****         2.7500  17.2500  -0.7500 Du        
  14038 ****         2.7500  17.5000  -3.0000 Du        
  14039 ****         2.7500  17.5000  -2.7500 Du        
  14040 ****         2.7500  17.5000  -2.5000 Du        
  14041 ****         2.7500  17.5000  -2.2500 Du        
  14042 ****         2.7500  17.5000  -2.0000 Du        
  14043 ****         2.7500  17.5000  -1.7500 Du        
  14044 ****         2.7500  17.5000  -1.5000 Du        
  14045 ****         2.7500  17.5000  -1.2500 Du        
  14046 ****         2.7500  17.5000  -1.0000 Du        
  14047 ****         2.7500  17.5000  -0.7500 Du        
  14048 ****         2.7500  17.7500  -2.7500 Du        
  14049 ****         2.7500  17.7500  -2.5000 Du        
  14050 ****         2.7500  17.7500  -2.2500 Du        
  14051 ****         2.7500  17.7500  -2.0000 Du        
  14052 ****         2.7500  17.7500  -1.7500 Du        
  14053 ****         2.7500  17.7500  -1.5000 Du        
  14054 ****         2.7500  17.7500  -1.2500 Du        
  14055 ****         2.7500  17.7500  -1.0000 Du        
  14056 ****         2.7500  17.7500  -0.7500 Du        
  14057 ****         2.7500  18.0000  -2.0000 Du        
  14058 ****         2.7500  18.0000  -1.7500 Du        
  14059 ****         2.7500  18.0000  -1.5000 Du        
  14060 ****         2.7500  18.0000  -1.2500 Du        
  14061 ****         2.7500  18.0000  -1.0000 Du        
  14062 ****         2.7500  18.0000  -0.7500 Du        
  14063 ****         2.7500  18.2500  -1.7500 Du        
  14064 ****         2.7500  18.2500  -1.5000 Du        
  14065 ****         2.7500  18.2500  -1.2500 Du        
  14066 ****         2.7500  18.2500  -1.0000 Du        
  14067 ****         2.7500  18.2500  -0.7500 Du        
  14068 ****         2.7500  18.5000  -1.5000 Du        
  14069 ****         2.7500  18.5000  -1.2500 Du        
  14070 ****         2.7500  18.5000  -1.0000 Du        
  14071 ****         2.7500  18.7500  -1.0000 Du        
  14072 ****         3.0000   4.0000  32.7500 Du        
  14073 ****         3.0000   4.0000  33.0000 Du        
  14074 ****         3.0000   4.0000  33.2500 Du        
  14075 ****         3.0000   4.0000  33.5000 Du        
  14076 ****         3.0000   4.0000  33.7500 Du        
  14077 ****         3.0000   4.2500  32.7500 Du        
  14078 ****         3.0000   4.2500  33.0000 Du        
  14079 ****         3.0000   4.2500  33.2500 Du        
  14080 ****         3.0000   4.2500  33.5000 Du        
  14081 ****         3.0000   4.2500  33.7500 Du        
  14082 ****         3.0000   4.2500  34.0000 Du        
  14083 ****         3.0000   4.5000  33.2500 Du        
  14084 ****         3.0000   4.5000  33.5000 Du        
  14085 ****         3.0000   4.5000  33.7500 Du        
  14086 ****         3.0000   4.5000  34.0000 Du        
  14087 ****         3.0000   4.7500  33.2500 Du        
  14088 ****         3.0000   4.7500  33.5000 Du        
  14089 ****         3.0000   4.7500  33.7500 Du        
  14090 ****         3.0000   4.7500  34.0000 Du        
  14091 ****         3.0000   4.7500  34.2500 Du        
  14092 ****         3.0000   5.0000  33.7500 Du        
  14093 ****         3.0000   5.0000  34.0000 Du        
  14094 ****         3.0000   5.0000  34.2500 Du        
  14095 ****         3.0000   5.0000  34.5000 Du        
  14096 ****         3.0000   5.2500  34.0000 Du        
  14097 ****         3.0000   5.2500  34.2500 Du        
  14098 ****         3.0000   5.5000  34.5000 Du        
  14099 ****         3.0000   7.0000  -5.5000 Du        
  14100 ****         3.0000   7.0000  -5.2500 Du        
  14101 ****         3.0000   7.2500  -5.5000 Du        
  14102 ****         3.0000   7.2500  -5.2500 Du        
  14103 ****         3.0000   7.5000  -5.7500 Du        
  14104 ****         3.0000   7.5000  -5.5000 Du        
  14105 ****         3.0000   7.5000  -5.2500 Du        
  14106 ****         3.0000   7.7500  -6.0000 Du        
  14107 ****         3.0000   7.7500  -5.7500 Du        
  14108 ****         3.0000   7.7500  -5.5000 Du        
  14109 ****         3.0000   7.7500  -5.2500 Du        
  14110 ****         3.0000   8.5000  27.0000 Du        
  14111 ****         3.0000   8.7500  26.0000 Du        
  14112 ****         3.0000   8.7500  26.2500 Du        
  14113 ****         3.0000   8.7500  26.5000 Du        
  14114 ****         3.0000   8.7500  26.7500 Du        
  14115 ****         3.0000   8.7500  27.0000 Du        
  14116 ****         3.0000   8.7500  27.2500 Du        
  14117 ****         3.0000   8.7500  27.5000 Du        
  14118 ****         3.0000   8.7500  27.7500 Du        
  14119 ****         3.0000   8.7500  28.0000 Du        
  14120 ****         3.0000   9.0000  25.5000 Du        
  14121 ****         3.0000   9.0000  25.7500 Du        
  14122 ****         3.0000   9.0000  26.0000 Du        
  14123 ****         3.0000   9.0000  26.2500 Du        
  14124 ****         3.0000   9.0000  26.5000 Du        
  14125 ****         3.0000   9.0000  26.7500 Du        
  14126 ****         3.0000   9.0000  27.0000 Du        
  14127 ****         3.0000   9.0000  27.2500 Du        
  14128 ****         3.0000   9.0000  27.5000 Du        
  14129 ****         3.0000   9.0000  27.7500 Du        
  14130 ****         3.0000   9.0000  28.0000 Du        
  14131 ****         3.0000   9.0000  28.2500 Du        
  14132 ****         3.0000   9.0000  28.5000 Du        
  14133 ****         3.0000   9.2500  25.5000 Du        
  14134 ****         3.0000   9.2500  25.7500 Du        
  14135 ****         3.0000   9.2500  26.0000 Du        
  14136 ****         3.0000   9.2500  26.2500 Du        
  14137 ****         3.0000   9.2500  26.5000 Du        
  14138 ****         3.0000   9.2500  26.7500 Du        
  14139 ****         3.0000   9.2500  27.0000 Du        
  14140 ****         3.0000   9.2500  27.2500 Du        
  14141 ****         3.0000   9.2500  27.5000 Du        
  14142 ****         3.0000   9.2500  27.7500 Du        
  14143 ****         3.0000   9.2500  28.0000 Du        
  14144 ****         3.0000   9.2500  28.2500 Du        
  14145 ****         3.0000   9.2500  28.5000 Du        
  14146 ****         3.0000   9.2500  28.7500 Du        
  14147 ****         3.0000   9.5000  25.0000 Du        
  14148 ****         3.0000   9.5000  25.2500 Du        
  14149 ****         3.0000   9.5000  25.5000 Du        
  14150 ****         3.0000   9.5000  25.7500 Du        
  14151 ****         3.0000   9.5000  26.0000 Du        
  14152 ****         3.0000   9.5000  26.2500 Du        
  14153 ****         3.0000   9.5000  26.5000 Du        
  14154 ****         3.0000   9.5000  26.7500 Du        
  14155 ****         3.0000   9.5000  27.0000 Du        
  14156 ****         3.0000   9.5000  27.2500 Du        
  14157 ****         3.0000   9.5000  27.5000 Du        
  14158 ****         3.0000   9.5000  27.7500 Du        
  14159 ****         3.0000   9.5000  28.0000 Du        
  14160 ****         3.0000   9.5000  28.2500 Du        
  14161 ****         3.0000   9.5000  28.5000 Du        
  14162 ****         3.0000   9.5000  28.7500 Du        
  14163 ****         3.0000   9.7500  25.7500 Du        
  14164 ****         3.0000   9.7500  26.0000 Du        
  14165 ****         3.0000   9.7500  26.2500 Du        
  14166 ****         3.0000   9.7500  26.5000 Du        
  14167 ****         3.0000   9.7500  26.7500 Du        
  14168 ****         3.0000   9.7500  27.0000 Du        
  14169 ****         3.0000   9.7500  27.2500 Du        
  14170 ****         3.0000   9.7500  27.5000 Du        
  14171 ****         3.0000   9.7500  27.7500 Du        
  14172 ****         3.0000   9.7500  28.0000 Du        
  14173 ****         3.0000   9.7500  28.2500 Du        
  14174 ****         3.0000   9.7500  28.5000 Du        
  14175 ****         3.0000  10.0000  26.7500 Du        
  14176 ****         3.0000  10.0000  27.0000 Du        
  14177 ****         3.0000  10.0000  27.2500 Du        
  14178 ****         3.0000  10.0000  27.5000 Du        
  14179 ****         3.0000  10.0000  27.7500 Du        
  14180 ****         3.0000  10.0000  28.0000 Du        
  14181 ****         3.0000  11.0000  36.7500 Du        
  14182 ****         3.0000  11.0000  37.0000 Du        
  14183 ****         3.0000  11.2500  36.7500 Du        
  14184 ****         3.0000  11.2500  37.0000 Du        
  14185 ****         3.0000  11.2500  37.2500 Du        
  14186 ****         3.0000  11.5000  36.5000 Du        
  14187 ****         3.0000  11.5000  36.7500 Du        
  14188 ****         3.0000  11.5000  37.0000 Du        
  14189 ****         3.0000  11.7500  34.7500 Du        
  14190 ****         3.0000  11.7500  35.0000 Du        
  14191 ****         3.0000  11.7500  35.2500 Du        
  14192 ****         3.0000  11.7500  36.0000 Du        
  14193 ****         3.0000  11.7500  36.2500 Du        
  14194 ****         3.0000  11.7500  36.5000 Du        
  14195 ****         3.0000  11.7500  36.7500 Du        
  14196 ****         3.0000  11.7500  37.0000 Du        
  14197 ****         3.0000  11.7500  37.2500 Du        
  14198 ****         3.0000  12.0000  34.5000 Du        
  14199 ****         3.0000  12.0000  34.7500 Du        
  14200 ****         3.0000  12.0000  35.0000 Du        
  14201 ****         3.0000  12.0000  35.2500 Du        
  14202 ****         3.0000  12.0000  35.7500 Du        
  14203 ****         3.0000  12.0000  36.0000 Du        
  14204 ****         3.0000  12.0000  36.2500 Du        
  14205 ****         3.0000  12.0000  36.5000 Du        
  14206 ****         3.0000  12.0000  36.7500 Du        
  14207 ****         3.0000  12.0000  37.0000 Du        
  14208 ****         3.0000  12.0000  37.2500 Du        
  14209 ****         3.0000  12.2500  34.5000 Du        
  14210 ****         3.0000  12.2500  34.7500 Du        
  14211 ****         3.0000  12.2500  35.0000 Du        
  14212 ****         3.0000  12.2500  35.2500 Du        
  14213 ****         3.0000  12.2500  35.5000 Du        
  14214 ****         3.0000  12.2500  35.7500 Du        
  14215 ****         3.0000  12.2500  36.0000 Du        
  14216 ****         3.0000  12.2500  36.2500 Du        
  14217 ****         3.0000  12.2500  36.5000 Du        
  14218 ****         3.0000  12.2500  36.7500 Du        
  14219 ****         3.0000  12.2500  37.0000 Du        
  14220 ****         3.0000  12.2500  37.2500 Du        
  14221 ****         3.0000  12.5000  21.7500 Du        
  14222 ****         3.0000  12.5000  34.5000 Du        
  14223 ****         3.0000  12.5000  34.7500 Du        
  14224 ****         3.0000  12.5000  35.0000 Du        
  14225 ****         3.0000  12.5000  35.2500 Du        
  14226 ****         3.0000  12.5000  35.5000 Du        
  14227 ****         3.0000  12.5000  35.7500 Du        
  14228 ****         3.0000  12.5000  36.0000 Du        
  14229 ****         3.0000  12.5000  36.2500 Du        
  14230 ****         3.0000  12.5000  36.5000 Du        
  14231 ****         3.0000  12.5000  36.7500 Du        
  14232 ****         3.0000  12.5000  37.0000 Du        
  14233 ****         3.0000  12.7500  21.7500 Du        
  14234 ****         3.0000  12.7500  34.7500 Du        
  14235 ****         3.0000  12.7500  35.0000 Du        
  14236 ****         3.0000  12.7500  35.2500 Du        
  14237 ****         3.0000  12.7500  35.5000 Du        
  14238 ****         3.0000  12.7500  35.7500 Du        
  14239 ****         3.0000  12.7500  36.0000 Du        
  14240 ****         3.0000  12.7500  36.2500 Du        
  14241 ****         3.0000  12.7500  36.5000 Du        
  14242 ****         3.0000  12.7500  36.7500 Du        
  14243 ****         3.0000  12.7500  37.0000 Du        
  14244 ****         3.0000  13.0000  35.0000 Du        
  14245 ****         3.0000  13.0000  35.2500 Du        
  14246 ****         3.0000  13.0000  35.5000 Du        
  14247 ****         3.0000  13.0000  35.7500 Du        
  14248 ****         3.0000  13.0000  36.0000 Du        
  14249 ****         3.0000  13.0000  36.2500 Du        
  14250 ****         3.0000  13.0000  36.5000 Du        
  14251 ****         3.0000  13.0000  36.7500 Du        
  14252 ****         3.0000  13.2500  35.7500 Du        
  14253 ****         3.0000  13.2500  36.0000 Du        
  14254 ****         3.0000  15.0000  -5.2500 Du        
  14255 ****         3.0000  15.2500  -5.5000 Du        
  14256 ****         3.0000  15.2500  -5.2500 Du        
  14257 ****         3.0000  15.2500  -5.0000 Du        
  14258 ****         3.0000  15.2500  -4.7500 Du        
  14259 ****         3.0000  15.2500  -4.5000 Du        
  14260 ****         3.0000  15.2500  -4.2500 Du        
  14261 ****         3.0000  15.2500  -4.0000 Du        
  14262 ****         3.0000  15.5000  -5.5000 Du        
  14263 ****         3.0000  15.5000  -5.2500 Du        
  14264 ****         3.0000  15.5000  -5.0000 Du        
  14265 ****         3.0000  15.5000  -4.7500 Du        
  14266 ****         3.0000  15.5000  -4.5000 Du        
  14267 ****         3.0000  15.5000  -4.2500 Du        
  14268 ****         3.0000  15.5000  -4.0000 Du        
  14269 ****         3.0000  15.5000  -3.7500 Du        
  14270 ****         3.0000  15.5000  -3.5000 Du        
  14271 ****         3.0000  15.7500  -5.5000 Du        
  14272 ****         3.0000  15.7500  -5.2500 Du        
  14273 ****         3.0000  15.7500  -5.0000 Du        
  14274 ****         3.0000  15.7500  -4.7500 Du        
  14275 ****         3.0000  15.7500  -4.5000 Du        
  14276 ****         3.0000  15.7500  -4.2500 Du        
  14277 ****         3.0000  15.7500  -4.0000 Du        
  14278 ****         3.0000  15.7500  -3.7500 Du        
  14279 ****         3.0000  15.7500  -3.5000 Du        
  14280 ****         3.0000  15.7500  -3.2500 Du        
  14281 ****         3.0000  16.0000  -5.2500 Du        
  14282 ****         3.0000  16.0000  -5.0000 Du        
  14283 ****         3.0000  16.0000  -4.7500 Du        
  14284 ****         3.0000  16.0000  -4.5000 Du        
  14285 ****         3.0000  16.0000  -4.2500 Du        
  14286 ****         3.0000  16.0000  -4.0000 Du        
  14287 ****         3.0000  16.0000  -3.7500 Du        
  14288 ****         3.0000  16.0000  -3.5000 Du        
  14289 ****         3.0000  16.0000  -3.2500 Du        
  14290 ****         3.0000  16.0000  -3.0000 Du        
  14291 ****         3.0000  16.0000  -2.7500 Du        
  14292 ****         3.0000  16.2500  -5.2500 Du        
  14293 ****         3.0000  16.2500  -5.0000 Du        
  14294 ****         3.0000  16.2500  -4.7500 Du        
  14295 ****         3.0000  16.2500  -4.5000 Du        
  14296 ****         3.0000  16.2500  -4.2500 Du        
  14297 ****         3.0000  16.2500  -4.0000 Du        
  14298 ****         3.0000  16.2500  -3.7500 Du        
  14299 ****         3.0000  16.2500  -3.5000 Du        
  14300 ****         3.0000  16.2500  -3.2500 Du        
  14301 ****         3.0000  16.2500  -3.0000 Du        
  14302 ****         3.0000  16.2500  -2.7500 Du        
  14303 ****         3.0000  16.2500  -2.5000 Du        
  14304 ****         3.0000  16.2500  -2.2500 Du        
  14305 ****         3.0000  16.2500  -2.0000 Du        
  14306 ****         3.0000  16.5000  -4.5000 Du        
  14307 ****         3.0000  16.5000  -4.2500 Du        
  14308 ****         3.0000  16.5000  -4.0000 Du        
  14309 ****         3.0000  16.5000  -3.7500 Du        
  14310 ****         3.0000  16.5000  -3.5000 Du        
  14311 ****         3.0000  16.5000  -3.2500 Du        
  14312 ****         3.0000  16.5000  -3.0000 Du        
  14313 ****         3.0000  16.5000  -2.7500 Du        
  14314 ****         3.0000  16.5000  -2.5000 Du        
  14315 ****         3.0000  16.5000  -2.2500 Du        
  14316 ****         3.0000  16.5000  -2.0000 Du        
  14317 ****         3.0000  16.5000  -1.7500 Du        
  14318 ****         3.0000  16.5000  -1.5000 Du        
  14319 ****         3.0000  16.5000  -1.2500 Du        
  14320 ****         3.0000  16.5000  -1.0000 Du        
  14321 ****         3.0000  16.5000  -0.7500 Du        
  14322 ****         3.0000  16.7500  -4.5000 Du        
  14323 ****         3.0000  16.7500  -4.2500 Du        
  14324 ****         3.0000  16.7500  -4.0000 Du        
  14325 ****         3.0000  16.7500  -3.7500 Du        
  14326 ****         3.0000  16.7500  -3.5000 Du        
  14327 ****         3.0000  16.7500  -3.2500 Du        
  14328 ****         3.0000  16.7500  -3.0000 Du        
  14329 ****         3.0000  16.7500  -2.7500 Du        
  14330 ****         3.0000  16.7500  -2.5000 Du        
  14331 ****         3.0000  16.7500  -2.2500 Du        
  14332 ****         3.0000  16.7500  -2.0000 Du        
  14333 ****         3.0000  16.7500  -1.7500 Du        
  14334 ****         3.0000  16.7500  -1.5000 Du        
  14335 ****         3.0000  16.7500  -1.2500 Du        
  14336 ****         3.0000  16.7500  -1.0000 Du        
  14337 ****         3.0000  16.7500  -0.7500 Du        
  14338 ****         3.0000  17.0000  -4.5000 Du        
  14339 ****         3.0000  17.0000  -4.2500 Du        
  14340 ****         3.0000  17.0000  -4.0000 Du        
  14341 ****         3.0000  17.0000  -3.7500 Du        
  14342 ****         3.0000  17.0000  -3.5000 Du        
  14343 ****         3.0000  17.0000  -3.2500 Du        
  14344 ****         3.0000  17.0000  -3.0000 Du        
  14345 ****         3.0000  17.0000  -2.7500 Du        
  14346 ****         3.0000  17.0000  -2.5000 Du        
  14347 ****         3.0000  17.0000  -2.2500 Du        
  14348 ****         3.0000  17.0000  -2.0000 Du        
  14349 ****         3.0000  17.0000  -1.7500 Du        
  14350 ****         3.0000  17.0000  -1.5000 Du        
  14351 ****         3.0000  17.0000  -1.2500 Du        
  14352 ****         3.0000  17.0000  -1.0000 Du        
  14353 ****         3.0000  17.0000  -0.7500 Du        
  14354 ****         3.0000  17.2500  -3.2500 Du        
  14355 ****         3.0000  17.2500  -3.0000 Du        
  14356 ****         3.0000  17.2500  -2.7500 Du        
  14357 ****         3.0000  17.2500  -2.5000 Du        
  14358 ****         3.0000  17.2500  -2.2500 Du        
  14359 ****         3.0000  17.2500  -2.0000 Du        
  14360 ****         3.0000  17.2500  -1.7500 Du        
  14361 ****         3.0000  17.2500  -1.5000 Du        
  14362 ****         3.0000  17.2500  -1.2500 Du        
  14363 ****         3.0000  17.2500  -1.0000 Du        
  14364 ****         3.0000  17.2500  -0.7500 Du        
  14365 ****         3.0000  17.5000  -2.7500 Du        
  14366 ****         3.0000  17.5000  -2.5000 Du        
  14367 ****         3.0000  17.5000  -2.2500 Du        
  14368 ****         3.0000  17.5000  -2.0000 Du        
  14369 ****         3.0000  17.5000  -1.7500 Du        
  14370 ****         3.0000  17.5000  -1.5000 Du        
  14371 ****         3.0000  17.5000  -1.2500 Du        
  14372 ****         3.0000  17.5000  -1.0000 Du        
  14373 ****         3.0000  17.5000  -0.7500 Du        
  14374 ****         3.0000  17.7500  -2.2500 Du        
  14375 ****         3.0000  17.7500  -2.0000 Du        
  14376 ****         3.0000  17.7500  -1.7500 Du        
  14377 ****         3.0000  17.7500  -1.5000 Du        
  14378 ****         3.0000  17.7500  -1.2500 Du        
  14379 ****         3.0000  17.7500  -1.0000 Du        
  14380 ****         3.0000  17.7500  -0.7500 Du        
  14381 ****         3.0000  18.0000  -1.5000 Du        
  14382 ****         3.0000  18.0000  -1.2500 Du        
  14383 ****         3.0000  18.0000  -1.0000 Du        
  14384 ****         3.0000  18.0000  -0.7500 Du        
  14385 ****         3.0000  18.2500  -1.2500 Du        
  14386 ****         3.0000  18.2500  -1.0000 Du        
  14387 ****         3.0000  18.2500  -0.7500 Du        
  14388 ****         3.2500   4.0000  32.7500 Du        
  14389 ****         3.2500   4.0000  33.0000 Du        
  14390 ****         3.2500   4.0000  33.2500 Du        
  14391 ****         3.2500   4.0000  33.5000 Du        
  14392 ****         3.2500   4.0000  33.7500 Du        
  14393 ****         3.2500   4.2500  32.5000 Du        
  14394 ****         3.2500   4.2500  32.7500 Du        
  14395 ****         3.2500   4.2500  33.0000 Du        
  14396 ****         3.2500   4.2500  33.2500 Du        
  14397 ****         3.2500   4.2500  33.5000 Du        
  14398 ****         3.2500   4.2500  33.7500 Du        
  14399 ****         3.2500   4.2500  34.0000 Du        
  14400 ****         3.2500   4.5000  32.7500 Du        
  14401 ****         3.2500   4.5000  33.0000 Du        
  14402 ****         3.2500   4.5000  33.2500 Du        
  14403 ****         3.2500   4.5000  33.5000 Du        
  14404 ****         3.2500   4.5000  33.7500 Du        
  14405 ****         3.2500   4.5000  34.0000 Du        
  14406 ****         3.2500   4.5000  34.2500 Du        
  14407 ****         3.2500   4.7500  32.7500 Du        
  14408 ****         3.2500   4.7500  33.0000 Du        
  14409 ****         3.2500   4.7500  33.2500 Du        
  14410 ****         3.2500   4.7500  33.5000 Du        
  14411 ****         3.2500   4.7500  33.7500 Du        
  14412 ****         3.2500   4.7500  34.0000 Du        
  14413 ****         3.2500   4.7500  34.2500 Du        
  14414 ****         3.2500   4.7500  34.5000 Du        
  14415 ****         3.2500   5.0000  33.0000 Du        
  14416 ****         3.2500   5.0000  33.2500 Du        
  14417 ****         3.2500   5.0000  33.5000 Du        
  14418 ****         3.2500   5.0000  33.7500 Du        
  14419 ****         3.2500   5.0000  34.0000 Du        
  14420 ****         3.2500   5.0000  34.2500 Du        
  14421 ****         3.2500   5.0000  34.5000 Du        
  14422 ****         3.2500   5.0000  34.7500 Du        
  14423 ****         3.2500   5.2500  33.7500 Du        
  14424 ****         3.2500   5.2500  34.0000 Du        
  14425 ****         3.2500   5.2500  34.2500 Du        
  14426 ****         3.2500   5.2500  34.5000 Du        
  14427 ****         3.2500   5.2500  34.7500 Du        
  14428 ****         3.2500   5.5000  34.0000 Du        
  14429 ****         3.2500   5.5000  34.2500 Du        
  14430 ****         3.2500   5.5000  34.5000 Du        
  14431 ****         3.2500   5.5000  34.7500 Du        
  14432 ****         3.2500   5.7500  34.0000 Du        
  14433 ****         3.2500   5.7500  34.2500 Du        
  14434 ****         3.2500   5.7500  34.5000 Du        
  14435 ****         3.2500   5.7500  34.7500 Du        
  14436 ****         3.2500   6.0000  34.5000 Du        
  14437 ****         3.2500   7.2500  -5.5000 Du        
  14438 ****         3.2500   7.2500  -5.2500 Du        
  14439 ****         3.2500   7.5000  -6.0000 Du        
  14440 ****         3.2500   7.5000  -5.7500 Du        
  14441 ****         3.2500   7.5000  -5.5000 Du        
  14442 ****         3.2500   7.5000  -5.2500 Du        
  14443 ****         3.2500   7.7500  -6.0000 Du        
  14444 ****         3.2500   7.7500  -5.7500 Du        
  14445 ****         3.2500   7.7500  -5.5000 Du        
  14446 ****         3.2500   7.7500  -5.2500 Du        
  14447 ****         3.2500   8.7500  26.0000 Du        
  14448 ****         3.2500   8.7500  26.2500 Du        
  14449 ****         3.2500   8.7500  26.5000 Du        
  14450 ****         3.2500   8.7500  26.7500 Du        
  14451 ****         3.2500   8.7500  27.0000 Du        
  14452 ****         3.2500   8.7500  27.2500 Du        
  14453 ****         3.2500   8.7500  27.5000 Du        
  14454 ****         3.2500   9.0000  26.0000 Du        
  14455 ****         3.2500   9.0000  26.2500 Du        
  14456 ****         3.2500   9.0000  26.5000 Du        
  14457 ****         3.2500   9.0000  26.7500 Du        
  14458 ****         3.2500   9.0000  27.0000 Du        
  14459 ****         3.2500   9.0000  27.2500 Du        
  14460 ****         3.2500   9.0000  27.5000 Du        
  14461 ****         3.2500   9.0000  27.7500 Du        
  14462 ****         3.2500   9.0000  28.0000 Du        
  14463 ****         3.2500   9.2500  26.0000 Du        
  14464 ****         3.2500   9.2500  26.2500 Du        
  14465 ****         3.2500   9.2500  26.5000 Du        
  14466 ****         3.2500   9.2500  26.7500 Du        
  14467 ****         3.2500   9.2500  27.0000 Du        
  14468 ****         3.2500   9.2500  27.2500 Du        
  14469 ****         3.2500   9.2500  27.5000 Du        
  14470 ****         3.2500   9.2500  27.7500 Du        
  14471 ****         3.2500   9.2500  28.0000 Du        
  14472 ****         3.2500   9.2500  28.2500 Du        
  14473 ****         3.2500   9.2500  28.5000 Du        
  14474 ****         3.2500   9.5000  26.0000 Du        
  14475 ****         3.2500   9.5000  26.2500 Du        
  14476 ****         3.2500   9.5000  26.5000 Du        
  14477 ****         3.2500   9.5000  26.7500 Du        
  14478 ****         3.2500   9.5000  27.0000 Du        
  14479 ****         3.2500   9.5000  27.2500 Du        
  14480 ****         3.2500   9.5000  27.5000 Du        
  14481 ****         3.2500   9.5000  27.7500 Du        
  14482 ****         3.2500   9.5000  28.0000 Du        
  14483 ****         3.2500   9.5000  28.2500 Du        
  14484 ****         3.2500   9.5000  28.5000 Du        
  14485 ****         3.2500   9.5000  28.7500 Du        
  14486 ****         3.2500   9.7500  26.2500 Du        
  14487 ****         3.2500   9.7500  26.5000 Du        
  14488 ****         3.2500   9.7500  26.7500 Du        
  14489 ****         3.2500   9.7500  27.0000 Du        
  14490 ****         3.2500   9.7500  27.2500 Du        
  14491 ****         3.2500   9.7500  27.5000 Du        
  14492 ****         3.2500   9.7500  27.7500 Du        
  14493 ****         3.2500   9.7500  28.0000 Du        
  14494 ****         3.2500   9.7500  28.2500 Du        
  14495 ****         3.2500   9.7500  28.5000 Du        
  14496 ****         3.2500   9.7500  28.7500 Du        
  14497 ****         3.2500  10.0000  26.5000 Du        
  14498 ****         3.2500  10.0000  26.7500 Du        
  14499 ****         3.2500  10.0000  27.0000 Du        
  14500 ****         3.2500  10.0000  27.2500 Du        
  14501 ****         3.2500  10.0000  27.5000 Du        
  14502 ****         3.2500  10.0000  27.7500 Du        
  14503 ****         3.2500  10.0000  28.0000 Du        
  14504 ****         3.2500  10.0000  28.2500 Du        
  14505 ****         3.2500  10.2500  27.2500 Du        
  14506 ****         3.2500  10.2500  27.5000 Du        
  14507 ****         3.2500  10.2500  27.7500 Du        
  14508 ****         3.2500  11.0000  36.7500 Du        
  14509 ****         3.2500  11.2500  36.5000 Du        
  14510 ****         3.2500  11.2500  36.7500 Du        
  14511 ****         3.2500  11.2500  37.0000 Du        
  14512 ****         3.2500  11.5000   9.0000 Du        
  14513 ****         3.2500  11.5000   9.2500 Du        
  14514 ****         3.2500  11.5000  21.5000 Du        
  14515 ****         3.2500  11.5000  21.7500 Du        
  14516 ****         3.2500  11.5000  22.0000 Du        
  14517 ****         3.2500  11.5000  34.7500 Du        
  14518 ****         3.2500  11.5000  35.0000 Du        
  14519 ****         3.2500  11.5000  36.0000 Du        
  14520 ****         3.2500  11.5000  36.2500 Du        
  14521 ****         3.2500  11.5000  36.5000 Du        
  14522 ****         3.2500  11.5000  36.7500 Du        
  14523 ****         3.2500  11.5000  37.0000 Du        
  14524 ****         3.2500  11.7500   9.2500 Du        
  14525 ****         3.2500  11.7500  21.2500 Du        
  14526 ****         3.2500  11.7500  21.5000 Du        
  14527 ****         3.2500  11.7500  21.7500 Du        
  14528 ****         3.2500  11.7500  22.0000 Du        
  14529 ****         3.2500  11.7500  22.2500 Du        
  14530 ****         3.2500  11.7500  34.0000 Du        
  14531 ****         3.2500  11.7500  34.2500 Du        
  14532 ****         3.2500  11.7500  34.5000 Du        
  14533 ****         3.2500  11.7500  34.7500 Du        
  14534 ****         3.2500  11.7500  35.0000 Du        
  14535 ****         3.2500  11.7500  35.2500 Du        
  14536 ****         3.2500  11.7500  35.7500 Du        
  14537 ****         3.2500  11.7500  36.0000 Du        
  14538 ****         3.2500  11.7500  36.2500 Du        
  14539 ****         3.2500  11.7500  36.5000 Du        
  14540 ****         3.2500  11.7500  36.7500 Du        
  14541 ****         3.2500  11.7500  37.0000 Du        
  14542 ****         3.2500  12.0000  21.0000 Du        
  14543 ****         3.2500  12.0000  21.2500 Du        
  14544 ****         3.2500  12.0000  21.5000 Du        
  14545 ****         3.2500  12.0000  21.7500 Du        
  14546 ****         3.2500  12.0000  22.0000 Du        
  14547 ****         3.2500  12.0000  22.2500 Du        
  14548 ****         3.2500  12.0000  34.0000 Du        
  14549 ****         3.2500  12.0000  34.2500 Du        
  14550 ****         3.2500  12.0000  34.5000 Du        
  14551 ****         3.2500  12.0000  34.7500 Du        
  14552 ****         3.2500  12.0000  35.0000 Du        
  14553 ****         3.2500  12.0000  35.2500 Du        
  14554 ****         3.2500  12.0000  35.7500 Du        
  14555 ****         3.2500  12.0000  36.0000 Du        
  14556 ****         3.2500  12.0000  36.2500 Du        
  14557 ****         3.2500  12.0000  36.5000 Du        
  14558 ****         3.2500  12.0000  36.7500 Du        
  14559 ****         3.2500  12.0000  37.0000 Du        
  14560 ****         3.2500  12.2500  21.0000 Du        
  14561 ****         3.2500  12.2500  21.2500 Du        
  14562 ****         3.2500  12.2500  21.5000 Du        
  14563 ****         3.2500  12.2500  21.7500 Du        
  14564 ****         3.2500  12.2500  22.0000 Du        
  14565 ****         3.2500  12.2500  34.2500 Du        
  14566 ****         3.2500  12.2500  34.5000 Du        
  14567 ****         3.2500  12.2500  34.7500 Du        
  14568 ****         3.2500  12.2500  35.0000 Du        
  14569 ****         3.2500  12.2500  35.2500 Du        
  14570 ****         3.2500  12.2500  35.5000 Du        
  14571 ****         3.2500  12.2500  35.7500 Du        
  14572 ****         3.2500  12.2500  36.0000 Du        
  14573 ****         3.2500  12.2500  36.2500 Du        
  14574 ****         3.2500  12.2500  36.5000 Du        
  14575 ****         3.2500  12.2500  36.7500 Du        
  14576 ****         3.2500  12.2500  37.0000 Du        
  14577 ****         3.2500  12.5000  20.7500 Du        
  14578 ****         3.2500  12.5000  21.0000 Du        
  14579 ****         3.2500  12.5000  21.2500 Du        
  14580 ****         3.2500  12.5000  21.5000 Du        
  14581 ****         3.2500  12.5000  21.7500 Du        
  14582 ****         3.2500  12.5000  22.0000 Du        
  14583 ****         3.2500  12.5000  34.2500 Du        
  14584 ****         3.2500  12.5000  34.5000 Du        
  14585 ****         3.2500  12.5000  34.7500 Du        
  14586 ****         3.2500  12.5000  35.0000 Du        
  14587 ****         3.2500  12.5000  35.2500 Du        
  14588 ****         3.2500  12.5000  35.5000 Du        
  14589 ****         3.2500  12.5000  35.7500 Du        
  14590 ****         3.2500  12.5000  36.0000 Du        
  14591 ****         3.2500  12.5000  36.2500 Du        
  14592 ****         3.2500  12.5000  36.5000 Du        
  14593 ****         3.2500  12.5000  36.7500 Du        
  14594 ****         3.2500  12.5000  37.0000 Du        
  14595 ****         3.2500  12.7500  20.7500 Du        
  14596 ****         3.2500  12.7500  21.0000 Du        
  14597 ****         3.2500  12.7500  21.2500 Du        
  14598 ****         3.2500  12.7500  21.5000 Du        
  14599 ****         3.2500  12.7500  21.7500 Du        
  14600 ****         3.2500  12.7500  22.0000 Du        
  14601 ****         3.2500  12.7500  34.5000 Du        
  14602 ****         3.2500  12.7500  34.7500 Du        
  14603 ****         3.2500  12.7500  35.0000 Du        
  14604 ****         3.2500  12.7500  35.2500 Du        
  14605 ****         3.2500  12.7500  35.5000 Du        
  14606 ****         3.2500  12.7500  35.7500 Du        
  14607 ****         3.2500  12.7500  36.0000 Du        
  14608 ****         3.2500  12.7500  36.2500 Du        
  14609 ****         3.2500  12.7500  36.5000 Du        
  14610 ****         3.2500  12.7500  36.7500 Du        
  14611 ****         3.2500  13.0000  20.7500 Du        
  14612 ****         3.2500  13.0000  21.0000 Du        
  14613 ****         3.2500  13.0000  21.2500 Du        
  14614 ****         3.2500  13.0000  21.5000 Du        
  14615 ****         3.2500  13.0000  21.7500 Du        
  14616 ****         3.2500  13.0000  22.0000 Du        
  14617 ****         3.2500  13.0000  34.7500 Du        
  14618 ****         3.2500  13.0000  35.0000 Du        
  14619 ****         3.2500  13.0000  35.2500 Du        
  14620 ****         3.2500  13.0000  35.5000 Du        
  14621 ****         3.2500  13.0000  35.7500 Du        
  14622 ****         3.2500  13.0000  36.0000 Du        
  14623 ****         3.2500  13.0000  36.2500 Du        
  14624 ****         3.2500  14.7500  -5.5000 Du        
  14625 ****         3.2500  14.7500  -5.2500 Du        
  14626 ****         3.2500  14.7500  -5.0000 Du        
  14627 ****         3.2500  14.7500  -4.7500 Du        
  14628 ****         3.2500  15.0000  -5.5000 Du        
  14629 ****         3.2500  15.0000  -5.2500 Du        
  14630 ****         3.2500  15.0000  -5.0000 Du        
  14631 ****         3.2500  15.0000  -4.7500 Du        
  14632 ****         3.2500  15.0000  -4.5000 Du        
  14633 ****         3.2500  15.0000  -4.2500 Du        
  14634 ****         3.2500  15.0000  -4.0000 Du        
  14635 ****         3.2500  15.2500  -5.7500 Du        
  14636 ****         3.2500  15.2500  -5.5000 Du        
  14637 ****         3.2500  15.2500  -5.2500 Du        
  14638 ****         3.2500  15.2500  -5.0000 Du        
  14639 ****         3.2500  15.2500  -4.7500 Du        
  14640 ****         3.2500  15.2500  -4.5000 Du        
  14641 ****         3.2500  15.2500  -4.2500 Du        
  14642 ****         3.2500  15.2500  -4.0000 Du        
  14643 ****         3.2500  15.2500  -3.7500 Du        
  14644 ****         3.2500  15.5000  -5.7500 Du        
  14645 ****         3.2500  15.5000  -5.5000 Du        
  14646 ****         3.2500  15.5000  -5.2500 Du        
  14647 ****         3.2500  15.5000  -5.0000 Du        
  14648 ****         3.2500  15.5000  -4.7500 Du        
  14649 ****         3.2500  15.5000  -4.5000 Du        
  14650 ****         3.2500  15.5000  -4.2500 Du        
  14651 ****         3.2500  15.5000  -4.0000 Du        
  14652 ****         3.2500  15.5000  -3.7500 Du        
  14653 ****         3.2500  15.5000  -3.5000 Du        
  14654 ****         3.2500  15.7500  -5.7500 Du        
  14655 ****         3.2500  15.7500  -5.5000 Du        
  14656 ****         3.2500  15.7500  -5.2500 Du        
  14657 ****         3.2500  15.7500  -5.0000 Du        
  14658 ****         3.2500  15.7500  -4.7500 Du        
  14659 ****         3.2500  15.7500  -4.5000 Du        
  14660 ****         3.2500  15.7500  -4.2500 Du        
  14661 ****         3.2500  15.7500  -4.0000 Du        
  14662 ****         3.2500  15.7500  -3.7500 Du        
  14663 ****         3.2500  15.7500  -3.5000 Du        
  14664 ****         3.2500  15.7500  -3.2500 Du        
  14665 ****         3.2500  16.0000  -5.5000 Du        
  14666 ****         3.2500  16.0000  -5.2500 Du        
  14667 ****         3.2500  16.0000  -5.0000 Du        
  14668 ****         3.2500  16.0000  -4.7500 Du        
  14669 ****         3.2500  16.0000  -4.5000 Du        
  14670 ****         3.2500  16.0000  -4.2500 Du        
  14671 ****         3.2500  16.0000  -4.0000 Du        
  14672 ****         3.2500  16.0000  -3.7500 Du        
  14673 ****         3.2500  16.0000  -3.5000 Du        
  14674 ****         3.2500  16.0000  -3.2500 Du        
  14675 ****         3.2500  16.0000  -3.0000 Du        
  14676 ****         3.2500  16.0000  -2.7500 Du        
  14677 ****         3.2500  16.2500  -5.5000 Du        
  14678 ****         3.2500  16.2500  -5.2500 Du        
  14679 ****         3.2500  16.2500  -5.0000 Du        
  14680 ****         3.2500  16.2500  -4.7500 Du        
  14681 ****         3.2500  16.2500  -4.5000 Du        
  14682 ****         3.2500  16.2500  -4.2500 Du        
  14683 ****         3.2500  16.2500  -4.0000 Du        
  14684 ****         3.2500  16.2500  -3.7500 Du        
  14685 ****         3.2500  16.2500  -3.5000 Du        
  14686 ****         3.2500  16.2500  -3.2500 Du        
  14687 ****         3.2500  16.2500  -3.0000 Du        
  14688 ****         3.2500  16.2500  -2.7500 Du        
  14689 ****         3.2500  16.2500  -2.5000 Du        
  14690 ****         3.2500  16.2500  -2.2500 Du        
  14691 ****         3.2500  16.5000  -4.7500 Du        
  14692 ****         3.2500  16.5000  -4.5000 Du        
  14693 ****         3.2500  16.5000  -4.2500 Du        
  14694 ****         3.2500  16.5000  -4.0000 Du        
  14695 ****         3.2500  16.5000  -3.7500 Du        
  14696 ****         3.2500  16.5000  -3.5000 Du        
  14697 ****         3.2500  16.5000  -3.2500 Du        
  14698 ****         3.2500  16.5000  -3.0000 Du        
  14699 ****         3.2500  16.5000  -2.7500 Du        
  14700 ****         3.2500  16.5000  -2.5000 Du        
  14701 ****         3.2500  16.5000  -2.2500 Du        
  14702 ****         3.2500  16.5000  -2.0000 Du        
  14703 ****         3.2500  16.5000  -1.7500 Du        
  14704 ****         3.2500  16.5000  -1.5000 Du        
  14705 ****         3.2500  16.5000  -1.2500 Du        
  14706 ****         3.2500  16.5000  -1.0000 Du        
  14707 ****         3.2500  16.7500  -4.7500 Du        
  14708 ****         3.2500  16.7500  -4.5000 Du        
  14709 ****         3.2500  16.7500  -4.2500 Du        
  14710 ****         3.2500  16.7500  -4.0000 Du        
  14711 ****         3.2500  16.7500  -3.7500 Du        
  14712 ****         3.2500  16.7500  -3.5000 Du        
  14713 ****         3.2500  16.7500  -3.2500 Du        
  14714 ****         3.2500  16.7500  -3.0000 Du        
  14715 ****         3.2500  16.7500  -2.7500 Du        
  14716 ****         3.2500  16.7500  -2.5000 Du        
  14717 ****         3.2500  16.7500  -2.2500 Du        
  14718 ****         3.2500  16.7500  -2.0000 Du        
  14719 ****         3.2500  16.7500  -1.7500 Du        
  14720 ****         3.2500  16.7500  -1.5000 Du        
  14721 ****         3.2500  16.7500  -1.2500 Du        
  14722 ****         3.2500  16.7500  -1.0000 Du        
  14723 ****         3.2500  16.7500  -0.7500 Du        
  14724 ****         3.2500  17.0000  -4.5000 Du        
  14725 ****         3.2500  17.0000  -4.2500 Du        
  14726 ****         3.2500  17.0000  -4.0000 Du        
  14727 ****         3.2500  17.0000  -3.7500 Du        
  14728 ****         3.2500  17.0000  -3.5000 Du        
  14729 ****         3.2500  17.0000  -3.2500 Du        
  14730 ****         3.2500  17.0000  -3.0000 Du        
  14731 ****         3.2500  17.0000  -2.7500 Du        
  14732 ****         3.2500  17.0000  -2.5000 Du        
  14733 ****         3.2500  17.0000  -2.2500 Du        
  14734 ****         3.2500  17.0000  -2.0000 Du        
  14735 ****         3.2500  17.0000  -1.7500 Du        
  14736 ****         3.2500  17.0000  -1.5000 Du        
  14737 ****         3.2500  17.0000  -1.2500 Du        
  14738 ****         3.2500  17.0000  -1.0000 Du        
  14739 ****         3.2500  17.0000  -0.7500 Du        
  14740 ****         3.2500  17.2500  -3.0000 Du        
  14741 ****         3.2500  17.2500  -2.7500 Du        
  14742 ****         3.2500  17.2500  -2.5000 Du        
  14743 ****         3.2500  17.2500  -2.2500 Du        
  14744 ****         3.2500  17.2500  -2.0000 Du        
  14745 ****         3.2500  17.2500  -1.7500 Du        
  14746 ****         3.2500  17.2500  -1.5000 Du        
  14747 ****         3.2500  17.2500  -1.2500 Du        
  14748 ****         3.2500  17.2500  -1.0000 Du        
  14749 ****         3.2500  17.2500  -0.7500 Du        
  14750 ****         3.2500  17.5000  -2.2500 Du        
  14751 ****         3.2500  17.5000  -2.0000 Du        
  14752 ****         3.2500  17.5000  -1.7500 Du        
  14753 ****         3.2500  17.5000  -1.5000 Du        
  14754 ****         3.2500  17.5000  -1.2500 Du        
  14755 ****         3.2500  17.5000  -1.0000 Du        
  14756 ****         3.2500  17.5000  -0.7500 Du        
  14757 ****         3.2500  17.7500  -1.5000 Du        
  14758 ****         3.2500  17.7500  -1.2500 Du        
  14759 ****         3.2500  17.7500  -1.0000 Du        
  14760 ****         3.2500  17.7500  -0.7500 Du        
  14761 ****         3.2500  18.0000  -1.2500 Du        
  14762 ****         3.2500  18.0000  -1.0000 Du        
  14763 ****         3.2500  18.0000  -0.7500 Du        
  14764 ****         3.5000   4.0000  32.7500 Du        
  14765 ****         3.5000   4.0000  33.0000 Du        
  14766 ****         3.5000   4.0000  33.2500 Du        
  14767 ****         3.5000   4.0000  33.5000 Du        
  14768 ****         3.5000   4.0000  33.7500 Du        
  14769 ****         3.5000   4.0000  34.0000 Du        
  14770 ****         3.5000   4.2500  32.2500 Du        
  14771 ****         3.5000   4.2500  32.5000 Du        
  14772 ****         3.5000   4.2500  32.7500 Du        
  14773 ****         3.5000   4.2500  33.0000 Du        
  14774 ****         3.5000   4.2500  33.2500 Du        
  14775 ****         3.5000   4.2500  33.5000 Du        
  14776 ****         3.5000   4.2500  33.7500 Du        
  14777 ****         3.5000   4.2500  34.0000 Du        
  14778 ****         3.5000   4.2500  34.2500 Du        
  14779 ****         3.5000   4.5000  32.0000 Du        
  14780 ****         3.5000   4.5000  32.2500 Du        
  14781 ****         3.5000   4.5000  32.5000 Du        
  14782 ****         3.5000   4.5000  32.7500 Du        
  14783 ****         3.5000   4.5000  33.0000 Du        
  14784 ****         3.5000   4.5000  33.2500 Du        
  14785 ****         3.5000   4.5000  33.5000 Du        
  14786 ****         3.5000   4.5000  33.7500 Du        
  14787 ****         3.5000   4.5000  34.0000 Du        
  14788 ****         3.5000   4.5000  34.2500 Du        
  14789 ****         3.5000   4.5000  34.5000 Du        
  14790 ****         3.5000   4.7500  32.0000 Du        
  14791 ****         3.5000   4.7500  32.2500 Du        
  14792 ****         3.5000   4.7500  32.5000 Du        
  14793 ****         3.5000   4.7500  32.7500 Du        
  14794 ****         3.5000   4.7500  33.0000 Du        
  14795 ****         3.5000   4.7500  33.2500 Du        
  14796 ****         3.5000   4.7500  33.5000 Du        
  14797 ****         3.5000   4.7500  33.7500 Du        
  14798 ****         3.5000   4.7500  34.0000 Du        
  14799 ****         3.5000   4.7500  34.2500 Du        
  14800 ****         3.5000   4.7500  34.5000 Du        
  14801 ****         3.5000   4.7500  34.7500 Du        
  14802 ****         3.5000   5.0000  32.2500 Du        
  14803 ****         3.5000   5.0000  32.5000 Du        
  14804 ****         3.5000   5.0000  32.7500 Du        
  14805 ****         3.5000   5.0000  33.0000 Du        
  14806 ****         3.5000   5.0000  33.2500 Du        
  14807 ****         3.5000   5.0000  33.5000 Du        
  14808 ****         3.5000   5.0000  33.7500 Du        
  14809 ****         3.5000   5.0000  34.0000 Du        
  14810 ****         3.5000   5.0000  34.2500 Du        
  14811 ****         3.5000   5.0000  34.5000 Du        
  14812 ****         3.5000   5.0000  34.7500 Du        
  14813 ****         3.5000   5.2500  32.2500 Du        
  14814 ****         3.5000   5.2500  32.5000 Du        
  14815 ****         3.5000   5.2500  32.7500 Du        
  14816 ****         3.5000   5.2500  33.0000 Du        
  14817 ****         3.5000   5.2500  33.2500 Du        
  14818 ****         3.5000   5.2500  33.5000 Du        
  14819 ****         3.5000   5.2500  33.7500 Du        
  14820 ****         3.5000   5.2500  34.0000 Du        
  14821 ****         3.5000   5.2500  34.2500 Du        
  14822 ****         3.5000   5.2500  34.5000 Du        
  14823 ****         3.5000   5.2500  34.7500 Du        
  14824 ****         3.5000   5.2500  35.0000 Du        
  14825 ****         3.5000   5.5000  33.0000 Du        
  14826 ****         3.5000   5.5000  33.2500 Du        
  14827 ****         3.5000   5.5000  33.5000 Du        
  14828 ****         3.5000   5.5000  33.7500 Du        
  14829 ****         3.5000   5.5000  34.0000 Du        
  14830 ****         3.5000   5.5000  34.2500 Du        
  14831 ****         3.5000   5.5000  34.5000 Du        
  14832 ****         3.5000   5.5000  34.7500 Du        
  14833 ****         3.5000   5.5000  35.0000 Du        
  14834 ****         3.5000   5.7500  33.5000 Du        
  14835 ****         3.5000   5.7500  33.7500 Du        
  14836 ****         3.5000   5.7500  34.0000 Du        
  14837 ****         3.5000   5.7500  34.2500 Du        
  14838 ****         3.5000   5.7500  34.5000 Du        
  14839 ****         3.5000   5.7500  34.7500 Du        
  14840 ****         3.5000   5.7500  35.0000 Du        
  14841 ****         3.5000   6.0000  33.7500 Du        
  14842 ****         3.5000   6.0000  34.0000 Du        
  14843 ****         3.5000   6.0000  34.2500 Du        
  14844 ****         3.5000   6.0000  34.5000 Du        
  14845 ****         3.5000   6.0000  34.7500 Du        
  14846 ****         3.5000   6.2500  33.7500 Du        
  14847 ****         3.5000   6.2500  34.0000 Du        
  14848 ****         3.5000   6.2500  34.2500 Du        
  14849 ****         3.5000   6.2500  34.5000 Du        
  14850 ****         3.5000   6.2500  34.7500 Du        
  14851 ****         3.5000   6.5000  34.5000 Du        
  14852 ****         3.5000   6.7500  34.5000 Du        
  14853 ****         3.5000   7.0000  -5.7500 Du        
  14854 ****         3.5000   7.0000  -5.5000 Du        
  14855 ****         3.5000   7.2500  -6.0000 Du        
  14856 ****         3.5000   7.2500  -5.7500 Du        
  14857 ****         3.5000   7.2500  -5.5000 Du        
  14858 ****         3.5000   7.5000  -6.2500 Du        
  14859 ****         3.5000   7.5000  -6.0000 Du        
  14860 ****         3.5000   7.5000  -5.7500 Du        
  14861 ****         3.5000   7.5000  -5.5000 Du        
  14862 ****         3.5000   7.7500  -6.2500 Du        
  14863 ****         3.5000   7.7500  -6.0000 Du        
  14864 ****         3.5000   7.7500  -5.7500 Du        
  14865 ****         3.5000   7.7500  -5.5000 Du        
  14866 ****         3.5000   8.7500  26.5000 Du        
  14867 ****         3.5000   8.7500  27.0000 Du        
  14868 ****         3.5000   9.0000  26.5000 Du        
  14869 ****         3.5000   9.0000  26.7500 Du        
  14870 ****         3.5000   9.0000  27.0000 Du        
  14871 ****         3.5000   9.0000  27.2500 Du        
  14872 ****         3.5000   9.0000  27.5000 Du        
  14873 ****         3.5000   9.0000  27.7500 Du        
  14874 ****         3.5000   9.2500  26.5000 Du        
  14875 ****         3.5000   9.2500  26.7500 Du        
  14876 ****         3.5000   9.2500  27.0000 Du        
  14877 ****         3.5000   9.2500  27.2500 Du        
  14878 ****         3.5000   9.2500  27.5000 Du        
  14879 ****         3.5000   9.2500  27.7500 Du        
  14880 ****         3.5000   9.2500  28.0000 Du        
  14881 ****         3.5000   9.5000  26.5000 Du        
  14882 ****         3.5000   9.5000  26.7500 Du        
  14883 ****         3.5000   9.5000  27.0000 Du        
  14884 ****         3.5000   9.5000  27.2500 Du        
  14885 ****         3.5000   9.5000  27.5000 Du        
  14886 ****         3.5000   9.5000  27.7500 Du        
  14887 ****         3.5000   9.5000  28.0000 Du        
  14888 ****         3.5000   9.5000  28.2500 Du        
  14889 ****         3.5000   9.5000  28.5000 Du        
  14890 ****         3.5000   9.7500  26.7500 Du        
  14891 ****         3.5000   9.7500  27.0000 Du        
  14892 ****         3.5000   9.7500  27.2500 Du        
  14893 ****         3.5000   9.7500  27.5000 Du        
  14894 ****         3.5000   9.7500  27.7500 Du        
  14895 ****         3.5000   9.7500  28.0000 Du        
  14896 ****         3.5000   9.7500  28.2500 Du        
  14897 ****         3.5000   9.7500  28.5000 Du        
  14898 ****         3.5000   9.7500  28.7500 Du        
  14899 ****         3.5000  10.0000  27.0000 Du        
  14900 ****         3.5000  10.0000  27.2500 Du        
  14901 ****         3.5000  10.0000  27.5000 Du        
  14902 ****         3.5000  10.0000  27.7500 Du        
  14903 ****         3.5000  10.0000  28.0000 Du        
  14904 ****         3.5000  10.0000  28.2500 Du        
  14905 ****         3.5000  10.0000  28.5000 Du        
  14906 ****         3.5000  10.2500  27.5000 Du        
  14907 ****         3.5000  10.2500  27.7500 Du        
  14908 ****         3.5000  10.2500  28.0000 Du        
  14909 ****         3.5000  10.5000  36.2500 Du        
  14910 ****         3.5000  10.7500  36.0000 Du        
  14911 ****         3.5000  11.0000  21.2500 Du        
  14912 ****         3.5000  11.0000  21.5000 Du        
  14913 ****         3.5000  11.0000  21.7500 Du        
  14914 ****         3.5000  11.0000  36.0000 Du        
  14915 ****         3.5000  11.0000  36.2500 Du        
  14916 ****         3.5000  11.0000  36.5000 Du        
  14917 ****         3.5000  11.2500  21.0000 Du        
  14918 ****         3.5000  11.2500  21.2500 Du        
  14919 ****         3.5000  11.2500  21.5000 Du        
  14920 ****         3.5000  11.2500  21.7500 Du        
  14921 ****         3.5000  11.2500  36.0000 Du        
  14922 ****         3.5000  11.2500  36.2500 Du        
  14923 ****         3.5000  11.2500  36.5000 Du        
  14924 ****         3.5000  11.2500  36.7500 Du        
  14925 ****         3.5000  11.2500  37.0000 Du        
  14926 ****         3.5000  11.5000   9.2500 Du        
  14927 ****         3.5000  11.5000   9.5000 Du        
  14928 ****         3.5000  11.5000  20.7500 Du        
  14929 ****         3.5000  11.5000  21.0000 Du        
  14930 ****         3.5000  11.5000  21.2500 Du        
  14931 ****         3.5000  11.5000  21.5000 Du        
  14932 ****         3.5000  11.5000  21.7500 Du        
  14933 ****         3.5000  11.5000  22.0000 Du        
  14934 ****         3.5000  11.5000  34.0000 Du        
  14935 ****         3.5000  11.5000  34.5000 Du        
  14936 ****         3.5000  11.5000  34.7500 Du        
  14937 ****         3.5000  11.5000  35.0000 Du        
  14938 ****         3.5000  11.5000  35.2500 Du        
  14939 ****         3.5000  11.5000  35.5000 Du        
  14940 ****         3.5000  11.5000  35.7500 Du        
  14941 ****         3.5000  11.5000  36.0000 Du        
  14942 ****         3.5000  11.5000  36.2500 Du        
  14943 ****         3.5000  11.5000  36.5000 Du        
  14944 ****         3.5000  11.5000  36.7500 Du        
  14945 ****         3.5000  11.5000  37.0000 Du        
  14946 ****         3.5000  11.7500  20.5000 Du        
  14947 ****         3.5000  11.7500  20.7500 Du        
  14948 ****         3.5000  11.7500  21.0000 Du        
  14949 ****         3.5000  11.7500  21.2500 Du        
  14950 ****         3.5000  11.7500  21.5000 Du        
  14951 ****         3.5000  11.7500  21.7500 Du        
  14952 ****         3.5000  11.7500  22.0000 Du        
  14953 ****         3.5000  11.7500  33.7500 Du        
  14954 ****         3.5000  11.7500  34.0000 Du        
  14955 ****         3.5000  11.7500  34.2500 Du        
  14956 ****         3.5000  11.7500  34.5000 Du        
  14957 ****         3.5000  11.7500  34.7500 Du        
  14958 ****         3.5000  11.7500  35.0000 Du        
  14959 ****         3.5000  11.7500  35.2500 Du        
  14960 ****         3.5000  11.7500  35.5000 Du        
  14961 ****         3.5000  11.7500  35.7500 Du        
  14962 ****         3.5000  11.7500  36.0000 Du        
  14963 ****         3.5000  11.7500  36.2500 Du        
  14964 ****         3.5000  11.7500  36.5000 Du        
  14965 ****         3.5000  11.7500  36.7500 Du        
  14966 ****         3.5000  11.7500  37.0000 Du        
  14967 ****         3.5000  12.0000  20.2500 Du        
  14968 ****         3.5000  12.0000  20.5000 Du        
  14969 ****         3.5000  12.0000  20.7500 Du        
  14970 ****         3.5000  12.0000  21.0000 Du        
  14971 ****         3.5000  12.0000  21.2500 Du        
  14972 ****         3.5000  12.0000  21.5000 Du        
  14973 ****         3.5000  12.0000  21.7500 Du        
  14974 ****         3.5000  12.0000  22.0000 Du        
  14975 ****         3.5000  12.0000  34.0000 Du        
  14976 ****         3.5000  12.0000  34.2500 Du        
  14977 ****         3.5000  12.0000  34.5000 Du        
  14978 ****         3.5000  12.0000  34.7500 Du        
  14979 ****         3.5000  12.0000  35.0000 Du        
  14980 ****         3.5000  12.0000  35.2500 Du        
  14981 ****         3.5000  12.0000  35.5000 Du        
  14982 ****         3.5000  12.0000  35.7500 Du        
  14983 ****         3.5000  12.0000  36.0000 Du        
  14984 ****         3.5000  12.0000  36.2500 Du        
  14985 ****         3.5000  12.0000  36.5000 Du        
  14986 ****         3.5000  12.0000  36.7500 Du        
  14987 ****         3.5000  12.0000  37.0000 Du        
  14988 ****         3.5000  12.2500  19.2500 Du        
  14989 ****         3.5000  12.2500  19.7500 Du        
  14990 ****         3.5000  12.2500  20.0000 Du        
  14991 ****         3.5000  12.2500  20.2500 Du        
  14992 ****         3.5000  12.2500  20.5000 Du        
  14993 ****         3.5000  12.2500  20.7500 Du        
  14994 ****         3.5000  12.2500  21.0000 Du        
  14995 ****         3.5000  12.2500  21.2500 Du        
  14996 ****         3.5000  12.2500  21.5000 Du        
  14997 ****         3.5000  12.2500  21.7500 Du        
  14998 ****         3.5000  12.2500  22.0000 Du        
  14999 ****         3.5000  12.2500  22.2500 Du        
  15000 ****         3.5000  12.2500  34.0000 Du        
  15001 ****         3.5000  12.2500  34.2500 Du        
  15002 ****         3.5000  12.2500  34.5000 Du        
  15003 ****         3.5000  12.2500  34.7500 Du        
  15004 ****         3.5000  12.2500  35.0000 Du        
  15005 ****         3.5000  12.2500  35.2500 Du        
  15006 ****         3.5000  12.2500  35.5000 Du        
  15007 ****         3.5000  12.2500  35.7500 Du        
  15008 ****         3.5000  12.2500  36.0000 Du        
  15009 ****         3.5000  12.2500  36.2500 Du        
  15010 ****         3.5000  12.2500  36.5000 Du        
  15011 ****         3.5000  12.2500  36.7500 Du        
  15012 ****         3.5000  12.2500  37.0000 Du        
  15013 ****         3.5000  12.5000  19.2500 Du        
  15014 ****         3.5000  12.5000  19.5000 Du        
  15015 ****         3.5000  12.5000  19.7500 Du        
  15016 ****         3.5000  12.5000  20.0000 Du        
  15017 ****         3.5000  12.5000  20.2500 Du        
  15018 ****         3.5000  12.5000  20.5000 Du        
  15019 ****         3.5000  12.5000  20.7500 Du        
  15020 ****         3.5000  12.5000  21.0000 Du        
  15021 ****         3.5000  12.5000  21.2500 Du        
  15022 ****         3.5000  12.5000  21.5000 Du        
  15023 ****         3.5000  12.5000  21.7500 Du        
  15024 ****         3.5000  12.5000  22.0000 Du        
  15025 ****         3.5000  12.5000  22.2500 Du        
  15026 ****         3.5000  12.5000  34.0000 Du        
  15027 ****         3.5000  12.5000  34.2500 Du        
  15028 ****         3.5000  12.5000  34.5000 Du        
  15029 ****         3.5000  12.5000  34.7500 Du        
  15030 ****         3.5000  12.5000  35.0000 Du        
  15031 ****         3.5000  12.5000  35.2500 Du        
  15032 ****         3.5000  12.5000  35.5000 Du        
  15033 ****         3.5000  12.5000  35.7500 Du        
  15034 ****         3.5000  12.5000  36.0000 Du        
  15035 ****         3.5000  12.5000  36.2500 Du        
  15036 ****         3.5000  12.5000  36.5000 Du        
  15037 ****         3.5000  12.5000  36.7500 Du        
  15038 ****         3.5000  12.7500  19.2500 Du        
  15039 ****         3.5000  12.7500  19.5000 Du        
  15040 ****         3.5000  12.7500  19.7500 Du        
  15041 ****         3.5000  12.7500  20.0000 Du        
  15042 ****         3.5000  12.7500  20.2500 Du        
  15043 ****         3.5000  12.7500  20.5000 Du        
  15044 ****         3.5000  12.7500  20.7500 Du        
  15045 ****         3.5000  12.7500  21.0000 Du        
  15046 ****         3.5000  12.7500  21.2500 Du        
  15047 ****         3.5000  12.7500  21.5000 Du        
  15048 ****         3.5000  12.7500  21.7500 Du        
  15049 ****         3.5000  12.7500  22.0000 Du        
  15050 ****         3.5000  12.7500  34.2500 Du        
  15051 ****         3.5000  12.7500  34.5000 Du        
  15052 ****         3.5000  12.7500  34.7500 Du        
  15053 ****         3.5000  12.7500  35.0000 Du        
  15054 ****         3.5000  12.7500  35.2500 Du        
  15055 ****         3.5000  12.7500  35.5000 Du        
  15056 ****         3.5000  12.7500  35.7500 Du        
  15057 ****         3.5000  12.7500  36.0000 Du        
  15058 ****         3.5000  12.7500  36.2500 Du        
  15059 ****         3.5000  12.7500  36.5000 Du        
  15060 ****         3.5000  12.7500  36.7500 Du        
  15061 ****         3.5000  13.0000  19.0000 Du        
  15062 ****         3.5000  13.0000  19.2500 Du        
  15063 ****         3.5000  13.0000  19.5000 Du        
  15064 ****         3.5000  13.0000  19.7500 Du        
  15065 ****         3.5000  13.0000  20.0000 Du        
  15066 ****         3.5000  13.0000  20.2500 Du        
  15067 ****         3.5000  13.0000  20.5000 Du        
  15068 ****         3.5000  13.0000  20.7500 Du        
  15069 ****         3.5000  13.0000  21.0000 Du        
  15070 ****         3.5000  13.0000  21.2500 Du        
  15071 ****         3.5000  13.0000  21.5000 Du        
  15072 ****         3.5000  13.0000  21.7500 Du        
  15073 ****         3.5000  13.0000  22.0000 Du        
  15074 ****         3.5000  13.0000  35.0000 Du        
  15075 ****         3.5000  13.0000  35.2500 Du        
  15076 ****         3.5000  13.0000  35.5000 Du        
  15077 ****         3.5000  13.0000  35.7500 Du        
  15078 ****         3.5000  13.0000  36.0000 Du        
  15079 ****         3.5000  13.0000  36.2500 Du        
  15080 ****         3.5000  13.2500  19.2500 Du        
  15081 ****         3.5000  14.5000  -5.5000 Du        
  15082 ****         3.5000  14.5000  -5.2500 Du        
  15083 ****         3.5000  14.5000  -5.0000 Du        
  15084 ****         3.5000  14.7500  -5.7500 Du        
  15085 ****         3.5000  14.7500  -5.5000 Du        
  15086 ****         3.5000  14.7500  -5.2500 Du        
  15087 ****         3.5000  14.7500  -5.0000 Du        
  15088 ****         3.5000  14.7500  -4.7500 Du        
  15089 ****         3.5000  14.7500  -4.5000 Du        
  15090 ****         3.5000  14.7500  -4.2500 Du        
  15091 ****         3.5000  15.0000  -6.0000 Du        
  15092 ****         3.5000  15.0000  -5.7500 Du        
  15093 ****         3.5000  15.0000  -5.5000 Du        
  15094 ****         3.5000  15.0000  -5.2500 Du        
  15095 ****         3.5000  15.0000  -5.0000 Du        
  15096 ****         3.5000  15.0000  -4.7500 Du        
  15097 ****         3.5000  15.0000  -4.5000 Du        
  15098 ****         3.5000  15.0000  -4.2500 Du        
  15099 ****         3.5000  15.0000  -4.0000 Du        
  15100 ****         3.5000  15.2500  -6.0000 Du        
  15101 ****         3.5000  15.2500  -5.7500 Du        
  15102 ****         3.5000  15.2500  -5.5000 Du        
  15103 ****         3.5000  15.2500  -5.2500 Du        
  15104 ****         3.5000  15.2500  -5.0000 Du        
  15105 ****         3.5000  15.2500  -4.7500 Du        
  15106 ****         3.5000  15.2500  -4.5000 Du        
  15107 ****         3.5000  15.2500  -4.2500 Du        
  15108 ****         3.5000  15.2500  -4.0000 Du        
  15109 ****         3.5000  15.2500  -3.7500 Du        
  15110 ****         3.5000  15.5000  -6.0000 Du        
  15111 ****         3.5000  15.5000  -5.7500 Du        
  15112 ****         3.5000  15.5000  -5.5000 Du        
  15113 ****         3.5000  15.5000  -5.2500 Du        
  15114 ****         3.5000  15.5000  -5.0000 Du        
  15115 ****         3.5000  15.5000  -4.7500 Du        
  15116 ****         3.5000  15.5000  -4.5000 Du        
  15117 ****         3.5000  15.5000  -4.2500 Du        
  15118 ****         3.5000  15.5000  -4.0000 Du        
  15119 ****         3.5000  15.5000  -3.7500 Du        
  15120 ****         3.5000  15.5000  -3.5000 Du        
  15121 ****         3.5000  15.7500  -5.7500 Du        
  15122 ****         3.5000  15.7500  -5.5000 Du        
  15123 ****         3.5000  15.7500  -5.2500 Du        
  15124 ****         3.5000  15.7500  -5.0000 Du        
  15125 ****         3.5000  15.7500  -4.7500 Du        
  15126 ****         3.5000  15.7500  -4.5000 Du        
  15127 ****         3.5000  15.7500  -4.2500 Du        
  15128 ****         3.5000  15.7500  -4.0000 Du        
  15129 ****         3.5000  15.7500  -3.7500 Du        
  15130 ****         3.5000  15.7500  -3.5000 Du        
  15131 ****         3.5000  15.7500  -3.2500 Du        
  15132 ****         3.5000  16.0000  -5.7500 Du        
  15133 ****         3.5000  16.0000  -5.5000 Du        
  15134 ****         3.5000  16.0000  -5.2500 Du        
  15135 ****         3.5000  16.0000  -5.0000 Du        
  15136 ****         3.5000  16.0000  -4.7500 Du        
  15137 ****         3.5000  16.0000  -4.5000 Du        
  15138 ****         3.5000  16.0000  -4.2500 Du        
  15139 ****         3.5000  16.0000  -4.0000 Du        
  15140 ****         3.5000  16.0000  -3.7500 Du        
  15141 ****         3.5000  16.0000  -3.5000 Du        
  15142 ****         3.5000  16.0000  -3.2500 Du        
  15143 ****         3.5000  16.0000  -3.0000 Du        
  15144 ****         3.5000  16.0000  -2.7500 Du        
  15145 ****         3.5000  16.2500  -5.5000 Du        
  15146 ****         3.5000  16.2500  -5.2500 Du        
  15147 ****         3.5000  16.2500  -5.0000 Du        
  15148 ****         3.5000  16.2500  -4.7500 Du        
  15149 ****         3.5000  16.2500  -4.5000 Du        
  15150 ****         3.5000  16.2500  -4.2500 Du        
  15151 ****         3.5000  16.2500  -4.0000 Du        
  15152 ****         3.5000  16.2500  -3.7500 Du        
  15153 ****         3.5000  16.2500  -3.5000 Du        
  15154 ****         3.5000  16.2500  -3.2500 Du        
  15155 ****         3.5000  16.2500  -3.0000 Du        
  15156 ****         3.5000  16.2500  -2.7500 Du        
  15157 ****         3.5000  16.2500  -2.5000 Du        
  15158 ****         3.5000  16.2500  -2.2500 Du        
  15159 ****         3.5000  16.5000  -5.2500 Du        
  15160 ****         3.5000  16.5000  -5.0000 Du        
  15161 ****         3.5000  16.5000  -4.7500 Du        
  15162 ****         3.5000  16.5000  -4.5000 Du        
  15163 ****         3.5000  16.5000  -4.2500 Du        
  15164 ****         3.5000  16.5000  -4.0000 Du        
  15165 ****         3.5000  16.5000  -3.7500 Du        
  15166 ****         3.5000  16.5000  -3.5000 Du        
  15167 ****         3.5000  16.5000  -3.2500 Du        
  15168 ****         3.5000  16.5000  -3.0000 Du        
  15169 ****         3.5000  16.5000  -2.7500 Du        
  15170 ****         3.5000  16.5000  -2.5000 Du        
  15171 ****         3.5000  16.5000  -2.2500 Du        
  15172 ****         3.5000  16.5000  -2.0000 Du        
  15173 ****         3.5000  16.5000  -1.7500 Du        
  15174 ****         3.5000  16.5000  -1.5000 Du        
  15175 ****         3.5000  16.5000  -1.2500 Du        
  15176 ****         3.5000  16.5000  -1.0000 Du        
  15177 ****         3.5000  16.7500  -5.2500 Du        
  15178 ****         3.5000  16.7500  -5.0000 Du        
  15179 ****         3.5000  16.7500  -4.7500 Du        
  15180 ****         3.5000  16.7500  -4.5000 Du        
  15181 ****         3.5000  16.7500  -4.2500 Du        
  15182 ****         3.5000  16.7500  -4.0000 Du        
  15183 ****         3.5000  16.7500  -3.7500 Du        
  15184 ****         3.5000  16.7500  -3.5000 Du        
  15185 ****         3.5000  16.7500  -3.2500 Du        
  15186 ****         3.5000  16.7500  -3.0000 Du        
  15187 ****         3.5000  16.7500  -2.7500 Du        
  15188 ****         3.5000  16.7500  -2.5000 Du        
  15189 ****         3.5000  16.7500  -2.2500 Du        
  15190 ****         3.5000  16.7500  -2.0000 Du        
  15191 ****         3.5000  16.7500  -1.7500 Du        
  15192 ****         3.5000  16.7500  -1.5000 Du        
  15193 ****         3.5000  16.7500  -1.2500 Du        
  15194 ****         3.5000  16.7500  -1.0000 Du        
  15195 ****         3.5000  16.7500  -0.7500 Du        
  15196 ****         3.5000  17.0000  -3.5000 Du        
  15197 ****         3.5000  17.0000  -3.2500 Du        
  15198 ****         3.5000  17.0000  -3.0000 Du        
  15199 ****         3.5000  17.0000  -2.7500 Du        
  15200 ****         3.5000  17.0000  -2.5000 Du        
  15201 ****         3.5000  17.0000  -2.2500 Du        
  15202 ****         3.5000  17.0000  -2.0000 Du        
  15203 ****         3.5000  17.0000  -1.7500 Du        
  15204 ****         3.5000  17.0000  -1.5000 Du        
  15205 ****         3.5000  17.0000  -1.2500 Du        
  15206 ****         3.5000  17.0000  -1.0000 Du        
  15207 ****         3.5000  17.0000  -0.7500 Du        
  15208 ****         3.5000  17.2500  -2.5000 Du        
  15209 ****         3.5000  17.2500  -2.2500 Du        
  15210 ****         3.5000  17.2500  -2.0000 Du        
  15211 ****         3.5000  17.2500  -1.7500 Du        
  15212 ****         3.5000  17.2500  -1.5000 Du        
  15213 ****         3.5000  17.2500  -1.2500 Du        
  15214 ****         3.5000  17.2500  -1.0000 Du        
  15215 ****         3.5000  17.2500  -0.7500 Du        
  15216 ****         3.5000  17.5000  -1.7500 Du        
  15217 ****         3.5000  17.5000  -1.5000 Du        
  15218 ****         3.5000  17.5000  -1.2500 Du        
  15219 ****         3.5000  17.5000  -1.0000 Du        
  15220 ****         3.5000  17.7500  -1.2500 Du        
  15221 ****         3.5000  17.7500  -1.0000 Du        
  15222 ****         3.7500   4.0000  32.7500 Du        
  15223 ****         3.7500   4.0000  33.0000 Du        
  15224 ****         3.7500   4.0000  33.2500 Du        
  15225 ****         3.7500   4.0000  33.5000 Du        
  15226 ****         3.7500   4.0000  33.7500 Du        
  15227 ****         3.7500   4.0000  34.0000 Du        
  15228 ****         3.7500   4.2500  31.7500 Du        
  15229 ****         3.7500   4.2500  32.0000 Du        
  15230 ****         3.7500   4.2500  32.2500 Du        
  15231 ****         3.7500   4.2500  32.5000 Du        
  15232 ****         3.7500   4.2500  32.7500 Du        
  15233 ****         3.7500   4.2500  33.0000 Du        
  15234 ****         3.7500   4.2500  33.2500 Du        
  15235 ****         3.7500   4.2500  33.5000 Du        
  15236 ****         3.7500   4.2500  33.7500 Du        
  15237 ****         3.7500   4.2500  34.0000 Du        
  15238 ****         3.7500   4.2500  34.2500 Du        
  15239 ****         3.7500   4.2500  34.5000 Du        
  15240 ****         3.7500   4.5000  31.7500 Du        
  15241 ****         3.7500   4.5000  32.0000 Du        
  15242 ****         3.7500   4.5000  32.2500 Du        
  15243 ****         3.7500   4.5000  32.5000 Du        
  15244 ****         3.7500   4.5000  32.7500 Du        
  15245 ****         3.7500   4.5000  33.0000 Du        
  15246 ****         3.7500   4.5000  33.2500 Du        
  15247 ****         3.7500   4.5000  33.5000 Du        
  15248 ****         3.7500   4.5000  33.7500 Du        
  15249 ****         3.7500   4.5000  34.0000 Du        
  15250 ****         3.7500   4.5000  34.2500 Du        
  15251 ****         3.7500   4.5000  34.5000 Du        
  15252 ****         3.7500   4.7500  31.7500 Du        
  15253 ****         3.7500   4.7500  32.0000 Du        
  15254 ****         3.7500   4.7500  32.2500 Du        
  15255 ****         3.7500   4.7500  32.5000 Du        
  15256 ****         3.7500   4.7500  32.7500 Du        
  15257 ****         3.7500   4.7500  33.0000 Du        
  15258 ****         3.7500   4.7500  33.2500 Du        
  15259 ****         3.7500   4.7500  33.5000 Du        
  15260 ****         3.7500   4.7500  33.7500 Du        
  15261 ****         3.7500   4.7500  34.0000 Du        
  15262 ****         3.7500   4.7500  34.2500 Du        
  15263 ****         3.7500   4.7500  34.5000 Du        
  15264 ****         3.7500   4.7500  34.7500 Du        
  15265 ****         3.7500   5.0000  31.7500 Du        
  15266 ****         3.7500   5.0000  32.0000 Du        
  15267 ****         3.7500   5.0000  32.2500 Du        
  15268 ****         3.7500   5.0000  32.5000 Du        
  15269 ****         3.7500   5.0000  32.7500 Du        
  15270 ****         3.7500   5.0000  33.0000 Du        
  15271 ****         3.7500   5.0000  33.2500 Du        
  15272 ****         3.7500   5.0000  33.5000 Du        
  15273 ****         3.7500   5.0000  33.7500 Du        
  15274 ****         3.7500   5.0000  34.0000 Du        
  15275 ****         3.7500   5.0000  34.2500 Du        
  15276 ****         3.7500   5.0000  34.5000 Du        
  15277 ****         3.7500   5.0000  34.7500 Du        
  15278 ****         3.7500   5.2500  32.0000 Du        
  15279 ****         3.7500   5.2500  32.2500 Du        
  15280 ****         3.7500   5.2500  32.5000 Du        
  15281 ****         3.7500   5.2500  32.7500 Du        
  15282 ****         3.7500   5.2500  33.0000 Du        
  15283 ****         3.7500   5.2500  33.2500 Du        
  15284 ****         3.7500   5.2500  33.5000 Du        
  15285 ****         3.7500   5.2500  33.7500 Du        
  15286 ****         3.7500   5.2500  34.0000 Du        
  15287 ****         3.7500   5.2500  34.2500 Du        
  15288 ****         3.7500   5.2500  34.5000 Du        
  15289 ****         3.7500   5.2500  34.7500 Du        
  15290 ****         3.7500   5.2500  35.0000 Du        
  15291 ****         3.7500   5.5000  32.5000 Du        
  15292 ****         3.7500   5.5000  32.7500 Du        
  15293 ****         3.7500   5.5000  33.0000 Du        
  15294 ****         3.7500   5.5000  33.2500 Du        
  15295 ****         3.7500   5.5000  33.5000 Du        
  15296 ****         3.7500   5.5000  33.7500 Du        
  15297 ****         3.7500   5.5000  34.0000 Du        
  15298 ****         3.7500   5.5000  34.2500 Du        
  15299 ****         3.7500   5.5000  34.5000 Du        
  15300 ****         3.7500   5.5000  34.7500 Du        
  15301 ****         3.7500   5.5000  35.0000 Du        
  15302 ****         3.7500   5.7500  32.5000 Du        
  15303 ****         3.7500   5.7500  32.7500 Du        
  15304 ****         3.7500   5.7500  33.0000 Du        
  15305 ****         3.7500   5.7500  33.2500 Du        
  15306 ****         3.7500   5.7500  33.5000 Du        
  15307 ****         3.7500   5.7500  33.7500 Du        
  15308 ****         3.7500   5.7500  34.0000 Du        
  15309 ****         3.7500   5.7500  34.2500 Du        
  15310 ****         3.7500   5.7500  34.5000 Du        
  15311 ****         3.7500   5.7500  34.7500 Du        
  15312 ****         3.7500   5.7500  35.0000 Du        
  15313 ****         3.7500   6.0000  32.7500 Du        
  15314 ****         3.7500   6.0000  33.0000 Du        
  15315 ****         3.7500   6.0000  33.2500 Du        
  15316 ****         3.7500   6.0000  33.5000 Du        
  15317 ****         3.7500   6.0000  33.7500 Du        
  15318 ****         3.7500   6.0000  34.0000 Du        
  15319 ****         3.7500   6.0000  34.2500 Du        
  15320 ****         3.7500   6.0000  34.5000 Du        
  15321 ****         3.7500   6.0000  34.7500 Du        
  15322 ****         3.7500   6.0000  35.0000 Du        
  15323 ****         3.7500   6.2500  33.5000 Du        
  15324 ****         3.7500   6.2500  33.7500 Du        
  15325 ****         3.7500   6.2500  34.0000 Du        
  15326 ****         3.7500   6.2500  34.2500 Du        
  15327 ****         3.7500   6.2500  34.5000 Du        
  15328 ****         3.7500   6.2500  34.7500 Du        
  15329 ****         3.7500   6.5000  34.0000 Du        
  15330 ****         3.7500   6.5000  34.2500 Du        
  15331 ****         3.7500   6.5000  34.5000 Du        
  15332 ****         3.7500   6.5000  34.7500 Du        
  15333 ****         3.7500   6.7500  34.2500 Du        
  15334 ****         3.7500   6.7500  34.5000 Du        
  15335 ****         3.7500   6.7500  34.7500 Du        
  15336 ****         3.7500   7.0000  -5.7500 Du        
  15337 ****         3.7500   7.0000  34.5000 Du        
  15338 ****         3.7500   7.2500  -6.0000 Du        
  15339 ****         3.7500   7.2500  -5.7500 Du        
  15340 ****         3.7500   7.5000  -6.2500 Du        
  15341 ****         3.7500   7.5000  -6.0000 Du        
  15342 ****         3.7500   7.5000  -5.7500 Du        
  15343 ****         3.7500   7.7500  -6.5000 Du        
  15344 ****         3.7500   7.7500  -6.2500 Du        
  15345 ****         3.7500   7.7500  -6.0000 Du        
  15346 ****         3.7500   7.7500  -5.7500 Du        
  15347 ****         3.7500   8.7500  26.5000 Du        
  15348 ****         3.7500   8.7500  26.7500 Du        
  15349 ****         3.7500   8.7500  27.0000 Du        
  15350 ****         3.7500   9.0000  26.5000 Du        
  15351 ****         3.7500   9.0000  26.7500 Du        
  15352 ****         3.7500   9.0000  27.0000 Du        
  15353 ****         3.7500   9.0000  27.2500 Du        
  15354 ****         3.7500   9.0000  27.5000 Du        
  15355 ****         3.7500   9.2500  26.7500 Du        
  15356 ****         3.7500   9.2500  27.0000 Du        
  15357 ****         3.7500   9.2500  27.2500 Du        
  15358 ****         3.7500   9.2500  27.5000 Du        
  15359 ****         3.7500   9.2500  27.7500 Du        
  15360 ****         3.7500   9.5000  26.7500 Du        
  15361 ****         3.7500   9.5000  27.0000 Du        
  15362 ****         3.7500   9.5000  27.2500 Du        
  15363 ****         3.7500   9.5000  27.5000 Du        
  15364 ****         3.7500   9.5000  27.7500 Du        
  15365 ****         3.7500   9.5000  28.0000 Du        
  15366 ****         3.7500   9.5000  28.2500 Du        
  15367 ****         3.7500   9.7500  27.0000 Du        
  15368 ****         3.7500   9.7500  27.2500 Du        
  15369 ****         3.7500   9.7500  27.5000 Du        
  15370 ****         3.7500   9.7500  27.7500 Du        
  15371 ****         3.7500   9.7500  28.0000 Du        
  15372 ****         3.7500   9.7500  28.2500 Du        
  15373 ****         3.7500   9.7500  28.5000 Du        
  15374 ****         3.7500   9.7500  28.7500 Du        
  15375 ****         3.7500  10.0000  27.2500 Du        
  15376 ****         3.7500  10.0000  27.5000 Du        
  15377 ****         3.7500  10.0000  27.7500 Du        
  15378 ****         3.7500  10.0000  28.0000 Du        
  15379 ****         3.7500  10.0000  28.2500 Du        
  15380 ****         3.7500  10.0000  28.5000 Du        
  15381 ****         3.7500  10.2500  27.5000 Du        
  15382 ****         3.7500  10.2500  27.7500 Du        
  15383 ****         3.7500  10.2500  28.0000 Du        
  15384 ****         3.7500  10.2500  28.2500 Du        
  15385 ****         3.7500  10.5000  21.2500 Du        
  15386 ****         3.7500  10.5000  36.0000 Du        
  15387 ****         3.7500  10.7500  11.0000 Du        
  15388 ****         3.7500  10.7500  21.0000 Du        
  15389 ****         3.7500  10.7500  21.2500 Du        
  15390 ****         3.7500  10.7500  21.5000 Du        
  15391 ****         3.7500  10.7500  36.0000 Du        
  15392 ****         3.7500  10.7500  36.2500 Du        
  15393 ****         3.7500  11.0000  10.7500 Du        
  15394 ****         3.7500  11.0000  11.0000 Du        
  15395 ****         3.7500  11.0000  11.2500 Du        
  15396 ****         3.7500  11.0000  20.7500 Du        
  15397 ****         3.7500  11.0000  21.0000 Du        
  15398 ****         3.7500  11.0000  21.2500 Du        
  15399 ****         3.7500  11.0000  21.5000 Du        
  15400 ****         3.7500  11.0000  21.7500 Du        
  15401 ****         3.7500  11.0000  35.7500 Du        
  15402 ****         3.7500  11.0000  36.0000 Du        
  15403 ****         3.7500  11.0000  36.2500 Du        
  15404 ****         3.7500  11.0000  36.5000 Du        
  15405 ****         3.7500  11.2500   9.5000 Du        
  15406 ****         3.7500  11.2500   9.7500 Du        
  15407 ****         3.7500  11.2500  11.2500 Du        
  15408 ****         3.7500  11.2500  20.0000 Du        
  15409 ****         3.7500  11.2500  20.2500 Du        
  15410 ****         3.7500  11.2500  20.5000 Du        
  15411 ****         3.7500  11.2500  20.7500 Du        
  15412 ****         3.7500  11.2500  21.0000 Du        
  15413 ****         3.7500  11.2500  21.2500 Du        
  15414 ****         3.7500  11.2500  21.5000 Du        
  15415 ****         3.7500  11.2500  21.7500 Du        
  15416 ****         3.7500  11.2500  35.2500 Du        
  15417 ****         3.7500  11.2500  35.7500 Du        
  15418 ****         3.7500  11.2500  36.0000 Du        
  15419 ****         3.7500  11.2500  36.2500 Du        
  15420 ****         3.7500  11.2500  36.5000 Du        
  15421 ****         3.7500  11.2500  36.7500 Du        
  15422 ****         3.7500  11.5000   9.0000 Du        
  15423 ****         3.7500  11.5000   9.2500 Du        
  15424 ****         3.7500  11.5000   9.5000 Du        
  15425 ****         3.7500  11.5000   9.7500 Du        
  15426 ****         3.7500  11.5000  10.0000 Du        
  15427 ****         3.7500  11.5000  19.0000 Du        
  15428 ****         3.7500  11.5000  19.2500 Du        
  15429 ****         3.7500  11.5000  19.5000 Du        
  15430 ****         3.7500  11.5000  19.7500 Du        
  15431 ****         3.7500  11.5000  20.0000 Du        
  15432 ****         3.7500  11.5000  20.2500 Du        
  15433 ****         3.7500  11.5000  20.5000 Du        
  15434 ****         3.7500  11.5000  20.7500 Du        
  15435 ****         3.7500  11.5000  21.0000 Du        
  15436 ****         3.7500  11.5000  21.2500 Du        
  15437 ****         3.7500  11.5000  21.5000 Du        
  15438 ****         3.7500  11.5000  21.7500 Du        
  15439 ****         3.7500  11.5000  33.7500 Du        
  15440 ****         3.7500  11.5000  34.0000 Du        
  15441 ****         3.7500  11.5000  34.2500 Du        
  15442 ****         3.7500  11.5000  34.5000 Du        
  15443 ****         3.7500  11.5000  34.7500 Du        
  15444 ****         3.7500  11.5000  35.0000 Du        
  15445 ****         3.7500  11.5000  35.2500 Du        
  15446 ****         3.7500  11.5000  35.5000 Du        
  15447 ****         3.7500  11.5000  35.7500 Du        
  15448 ****         3.7500  11.5000  36.0000 Du        
  15449 ****         3.7500  11.5000  36.2500 Du        
  15450 ****         3.7500  11.5000  36.5000 Du        
  15451 ****         3.7500  11.5000  36.7500 Du        
  15452 ****         3.7500  11.5000  37.0000 Du        
  15453 ****         3.7500  11.7500   9.5000 Du        
  15454 ****         3.7500  11.7500  19.0000 Du        
  15455 ****         3.7500  11.7500  19.2500 Du        
  15456 ****         3.7500  11.7500  19.5000 Du        
  15457 ****         3.7500  11.7500  19.7500 Du        
  15458 ****         3.7500  11.7500  20.0000 Du        
  15459 ****         3.7500  11.7500  20.2500 Du        
  15460 ****         3.7500  11.7500  20.5000 Du        
  15461 ****         3.7500  11.7500  20.7500 Du        
  15462 ****         3.7500  11.7500  21.0000 Du        
  15463 ****         3.7500  11.7500  21.2500 Du        
  15464 ****         3.7500  11.7500  21.5000 Du        
  15465 ****         3.7500  11.7500  21.7500 Du        
  15466 ****         3.7500  11.7500  22.0000 Du        
  15467 ****         3.7500  11.7500  33.5000 Du        
  15468 ****         3.7500  11.7500  33.7500 Du        
  15469 ****         3.7500  11.7500  34.0000 Du        
  15470 ****         3.7500  11.7500  34.2500 Du        
  15471 ****         3.7500  11.7500  34.5000 Du        
  15472 ****         3.7500  11.7500  34.7500 Du        
  15473 ****         3.7500  11.7500  35.0000 Du        
  15474 ****         3.7500  11.7500  35.2500 Du        
  15475 ****         3.7500  11.7500  35.5000 Du        
  15476 ****         3.7500  11.7500  35.7500 Du        
  15477 ****         3.7500  11.7500  36.0000 Du        
  15478 ****         3.7500  11.7500  36.2500 Du        
  15479 ****         3.7500  11.7500  36.5000 Du        
  15480 ****         3.7500  11.7500  36.7500 Du        
  15481 ****         3.7500  11.7500  37.0000 Du        
  15482 ****         3.7500  12.0000  19.0000 Du        
  15483 ****         3.7500  12.0000  19.2500 Du        
  15484 ****         3.7500  12.0000  19.5000 Du        
  15485 ****         3.7500  12.0000  19.7500 Du        
  15486 ****         3.7500  12.0000  20.0000 Du        
  15487 ****         3.7500  12.0000  20.2500 Du        
  15488 ****         3.7500  12.0000  20.5000 Du        
  15489 ****         3.7500  12.0000  20.7500 Du        
  15490 ****         3.7500  12.0000  21.0000 Du        
  15491 ****         3.7500  12.0000  21.2500 Du        
  15492 ****         3.7500  12.0000  21.5000 Du        
  15493 ****         3.7500  12.0000  21.7500 Du        
  15494 ****         3.7500  12.0000  22.0000 Du        
  15495 ****         3.7500  12.0000  33.7500 Du        
  15496 ****         3.7500  12.0000  34.0000 Du        
  15497 ****         3.7500  12.0000  34.2500 Du        
  15498 ****         3.7500  12.0000  34.5000 Du        
  15499 ****         3.7500  12.0000  34.7500 Du        
  15500 ****         3.7500  12.0000  35.0000 Du        
  15501 ****         3.7500  12.0000  35.2500 Du        
  15502 ****         3.7500  12.0000  35.5000 Du        
  15503 ****         3.7500  12.0000  35.7500 Du        
  15504 ****         3.7500  12.0000  36.0000 Du        
  15505 ****         3.7500  12.0000  36.2500 Du        
  15506 ****         3.7500  12.0000  36.5000 Du        
  15507 ****         3.7500  12.0000  36.7500 Du        
  15508 ****         3.7500  12.0000  37.0000 Du        
  15509 ****         3.7500  12.2500  19.0000 Du        
  15510 ****         3.7500  12.2500  19.2500 Du        
  15511 ****         3.7500  12.2500  19.5000 Du        
  15512 ****         3.7500  12.2500  19.7500 Du        
  15513 ****         3.7500  12.2500  20.0000 Du        
  15514 ****         3.7500  12.2500  20.2500 Du        
  15515 ****         3.7500  12.2500  20.5000 Du        
  15516 ****         3.7500  12.2500  20.7500 Du        
  15517 ****         3.7500  12.2500  21.0000 Du        
  15518 ****         3.7500  12.2500  21.2500 Du        
  15519 ****         3.7500  12.2500  21.5000 Du        
  15520 ****         3.7500  12.2500  21.7500 Du        
  15521 ****         3.7500  12.2500  22.0000 Du        
  15522 ****         3.7500  12.2500  34.0000 Du        
  15523 ****         3.7500  12.2500  34.2500 Du        
  15524 ****         3.7500  12.2500  34.5000 Du        
  15525 ****         3.7500  12.2500  34.7500 Du        
  15526 ****         3.7500  12.2500  35.0000 Du        
  15527 ****         3.7500  12.2500  35.2500 Du        
  15528 ****         3.7500  12.2500  35.5000 Du        
  15529 ****         3.7500  12.2500  35.7500 Du        
  15530 ****         3.7500  12.2500  36.0000 Du        
  15531 ****         3.7500  12.2500  36.2500 Du        
  15532 ****         3.7500  12.2500  36.5000 Du        
  15533 ****         3.7500  12.2500  36.7500 Du        
  15534 ****         3.7500  12.5000  19.0000 Du        
  15535 ****         3.7500  12.5000  19.2500 Du        
  15536 ****         3.7500  12.5000  19.5000 Du        
  15537 ****         3.7500  12.5000  19.7500 Du        
  15538 ****         3.7500  12.5000  20.0000 Du        
  15539 ****         3.7500  12.5000  20.2500 Du        
  15540 ****         3.7500  12.5000  20.5000 Du        
  15541 ****         3.7500  12.5000  20.7500 Du        
  15542 ****         3.7500  12.5000  21.0000 Du        
  15543 ****         3.7500  12.5000  21.2500 Du        
  15544 ****         3.7500  12.5000  21.5000 Du        
  15545 ****         3.7500  12.5000  21.7500 Du        
  15546 ****         3.7500  12.5000  22.0000 Du        
  15547 ****         3.7500  12.5000  22.2500 Du        
  15548 ****         3.7500  12.5000  34.0000 Du        
  15549 ****         3.7500  12.5000  34.2500 Du        
  15550 ****         3.7500  12.5000  34.5000 Du        
  15551 ****         3.7500  12.5000  34.7500 Du        
  15552 ****         3.7500  12.5000  35.0000 Du        
  15553 ****         3.7500  12.5000  35.2500 Du        
  15554 ****         3.7500  12.5000  35.5000 Du        
  15555 ****         3.7500  12.5000  35.7500 Du        
  15556 ****         3.7500  12.5000  36.0000 Du        
  15557 ****         3.7500  12.5000  36.2500 Du        
  15558 ****         3.7500  12.5000  36.5000 Du        
  15559 ****         3.7500  12.5000  36.7500 Du        
  15560 ****         3.7500  12.7500  19.0000 Du        
  15561 ****         3.7500  12.7500  19.2500 Du        
  15562 ****         3.7500  12.7500  19.5000 Du        
  15563 ****         3.7500  12.7500  19.7500 Du        
  15564 ****         3.7500  12.7500  20.0000 Du        
  15565 ****         3.7500  12.7500  20.2500 Du        
  15566 ****         3.7500  12.7500  20.5000 Du        
  15567 ****         3.7500  12.7500  20.7500 Du        
  15568 ****         3.7500  12.7500  21.0000 Du        
  15569 ****         3.7500  12.7500  21.2500 Du        
  15570 ****         3.7500  12.7500  21.5000 Du        
  15571 ****         3.7500  12.7500  21.7500 Du        
  15572 ****         3.7500  12.7500  22.0000 Du        
  15573 ****         3.7500  12.7500  22.2500 Du        
  15574 ****         3.7500  12.7500  34.2500 Du        
  15575 ****         3.7500  12.7500  34.5000 Du        
  15576 ****         3.7500  12.7500  34.7500 Du        
  15577 ****         3.7500  12.7500  35.0000 Du        
  15578 ****         3.7500  12.7500  35.2500 Du        
  15579 ****         3.7500  12.7500  35.5000 Du        
  15580 ****         3.7500  12.7500  35.7500 Du        
  15581 ****         3.7500  12.7500  36.0000 Du        
  15582 ****         3.7500  12.7500  36.2500 Du        
  15583 ****         3.7500  12.7500  36.5000 Du        
  15584 ****         3.7500  12.7500  36.7500 Du        
  15585 ****         3.7500  13.0000  19.0000 Du        
  15586 ****         3.7500  13.0000  19.2500 Du        
  15587 ****         3.7500  13.0000  19.5000 Du        
  15588 ****         3.7500  13.0000  19.7500 Du        
  15589 ****         3.7500  13.0000  20.0000 Du        
  15590 ****         3.7500  13.0000  20.2500 Du        
  15591 ****         3.7500  13.0000  20.5000 Du        
  15592 ****         3.7500  13.0000  20.7500 Du        
  15593 ****         3.7500  13.0000  21.0000 Du        
  15594 ****         3.7500  13.0000  21.2500 Du        
  15595 ****         3.7500  13.0000  21.5000 Du        
  15596 ****         3.7500  13.0000  21.7500 Du        
  15597 ****         3.7500  13.0000  22.0000 Du        
  15598 ****         3.7500  13.0000  35.0000 Du        
  15599 ****         3.7500  13.0000  35.2500 Du        
  15600 ****         3.7500  13.0000  35.7500 Du        
  15601 ****         3.7500  13.0000  36.0000 Du        
  15602 ****         3.7500  13.2500  19.0000 Du        
  15603 ****         3.7500  13.2500  19.2500 Du        
  15604 ****         3.7500  13.2500  19.5000 Du        
  15605 ****         3.7500  13.2500  19.7500 Du        
  15606 ****         3.7500  13.2500  20.0000 Du        
  15607 ****         3.7500  13.2500  20.2500 Du        
  15608 ****         3.7500  13.2500  20.5000 Du        
  15609 ****         3.7500  13.2500  20.7500 Du        
  15610 ****         3.7500  13.2500  21.0000 Du        
  15611 ****         3.7500  13.2500  21.2500 Du        
  15612 ****         3.7500  13.2500  21.5000 Du        
  15613 ****         3.7500  13.2500  21.7500 Du        
  15614 ****         3.7500  13.5000  19.0000 Du        
  15615 ****         3.7500  13.5000  19.2500 Du        
  15616 ****         3.7500  13.5000  19.5000 Du        
  15617 ****         3.7500  13.5000  19.7500 Du        
  15618 ****         3.7500  14.2500  -5.2500 Du        
  15619 ****         3.7500  14.2500  -5.0000 Du        
  15620 ****         3.7500  14.5000  -5.5000 Du        
  15621 ****         3.7500  14.5000  -5.2500 Du        
  15622 ****         3.7500  14.5000  -5.0000 Du        
  15623 ****         3.7500  14.5000  -4.7500 Du        
  15624 ****         3.7500  14.5000  -4.5000 Du        
  15625 ****         3.7500  14.7500  -5.7500 Du        
  15626 ****         3.7500  14.7500  -5.5000 Du        
  15627 ****         3.7500  14.7500  -5.2500 Du        
  15628 ****         3.7500  14.7500  -5.0000 Du        
  15629 ****         3.7500  14.7500  -4.7500 Du        
  15630 ****         3.7500  14.7500  -4.5000 Du        
  15631 ****         3.7500  14.7500  -4.2500 Du        
  15632 ****         3.7500  15.0000  -5.7500 Du        
  15633 ****         3.7500  15.0000  -5.5000 Du        
  15634 ****         3.7500  15.0000  -5.2500 Du        
  15635 ****         3.7500  15.0000  -5.0000 Du        
  15636 ****         3.7500  15.0000  -4.7500 Du        
  15637 ****         3.7500  15.0000  -4.5000 Du        
  15638 ****         3.7500  15.0000  -4.2500 Du        
  15639 ****         3.7500  15.0000  -4.0000 Du        
  15640 ****         3.7500  15.2500  -6.0000 Du        
  15641 ****         3.7500  15.2500  -5.7500 Du        
  15642 ****         3.7500  15.2500  -5.5000 Du        
  15643 ****         3.7500  15.2500  -5.2500 Du        
  15644 ****         3.7500  15.2500  -5.0000 Du        
  15645 ****         3.7500  15.2500  -4.7500 Du        
  15646 ****         3.7500  15.2500  -4.5000 Du        
  15647 ****         3.7500  15.2500  -4.2500 Du        
  15648 ****         3.7500  15.2500  -4.0000 Du        
  15649 ****         3.7500  15.2500  -3.7500 Du        
  15650 ****         3.7500  15.5000  -6.0000 Du        
  15651 ****         3.7500  15.5000  -5.7500 Du        
  15652 ****         3.7500  15.5000  -5.5000 Du        
  15653 ****         3.7500  15.5000  -5.2500 Du        
  15654 ****         3.7500  15.5000  -5.0000 Du        
  15655 ****         3.7500  15.5000  -4.7500 Du        
  15656 ****         3.7500  15.5000  -4.5000 Du        
  15657 ****         3.7500  15.5000  -4.2500 Du        
  15658 ****         3.7500  15.5000  -4.0000 Du        
  15659 ****         3.7500  15.5000  -3.7500 Du        
  15660 ****         3.7500  15.5000  -3.5000 Du        
  15661 ****         3.7500  15.7500  -6.0000 Du        
  15662 ****         3.7500  15.7500  -5.7500 Du        
  15663 ****         3.7500  15.7500  -5.5000 Du        
  15664 ****         3.7500  15.7500  -5.2500 Du        
  15665 ****         3.7500  15.7500  -5.0000 Du        
  15666 ****         3.7500  15.7500  -4.7500 Du        
  15667 ****         3.7500  15.7500  -4.5000 Du        
  15668 ****         3.7500  15.7500  -4.2500 Du        
  15669 ****         3.7500  15.7500  -4.0000 Du        
  15670 ****         3.7500  15.7500  -3.7500 Du        
  15671 ****         3.7500  15.7500  -3.5000 Du        
  15672 ****         3.7500  15.7500  -3.2500 Du        
  15673 ****         3.7500  16.0000  -5.7500 Du        
  15674 ****         3.7500  16.0000  -5.5000 Du        
  15675 ****         3.7500  16.0000  -5.2500 Du        
  15676 ****         3.7500  16.0000  -5.0000 Du        
  15677 ****         3.7500  16.0000  -4.7500 Du        
  15678 ****         3.7500  16.0000  -4.5000 Du        
  15679 ****         3.7500  16.0000  -4.2500 Du        
  15680 ****         3.7500  16.0000  -4.0000 Du        
  15681 ****         3.7500  16.0000  -3.7500 Du        
  15682 ****         3.7500  16.0000  -3.5000 Du        
  15683 ****         3.7500  16.0000  -3.2500 Du        
  15684 ****         3.7500  16.0000  -3.0000 Du        
  15685 ****         3.7500  16.2500  -5.7500 Du        
  15686 ****         3.7500  16.2500  -5.5000 Du        
  15687 ****         3.7500  16.2500  -5.2500 Du        
  15688 ****         3.7500  16.2500  -5.0000 Du        
  15689 ****         3.7500  16.2500  -4.7500 Du        
  15690 ****         3.7500  16.2500  -4.5000 Du        
  15691 ****         3.7500  16.2500  -4.2500 Du        
  15692 ****         3.7500  16.2500  -4.0000 Du        
  15693 ****         3.7500  16.2500  -3.7500 Du        
  15694 ****         3.7500  16.2500  -3.5000 Du        
  15695 ****         3.7500  16.2500  -3.2500 Du        
  15696 ****         3.7500  16.2500  -3.0000 Du        
  15697 ****         3.7500  16.2500  -2.7500 Du        
  15698 ****         3.7500  16.2500  -2.5000 Du        
  15699 ****         3.7500  16.5000  -5.5000 Du        
  15700 ****         3.7500  16.5000  -5.2500 Du        
  15701 ****         3.7500  16.5000  -5.0000 Du        
  15702 ****         3.7500  16.5000  -4.7500 Du        
  15703 ****         3.7500  16.5000  -4.5000 Du        
  15704 ****         3.7500  16.5000  -4.2500 Du        
  15705 ****         3.7500  16.5000  -4.0000 Du        
  15706 ****         3.7500  16.5000  -3.7500 Du        
  15707 ****         3.7500  16.5000  -3.5000 Du        
  15708 ****         3.7500  16.5000  -3.2500 Du        
  15709 ****         3.7500  16.5000  -3.0000 Du        
  15710 ****         3.7500  16.5000  -2.7500 Du        
  15711 ****         3.7500  16.5000  -2.5000 Du        
  15712 ****         3.7500  16.5000  -2.2500 Du        
  15713 ****         3.7500  16.5000  -2.0000 Du        
  15714 ****         3.7500  16.5000  -1.7500 Du        
  15715 ****         3.7500  16.5000  -1.5000 Du        
  15716 ****         3.7500  16.5000  -1.2500 Du        
  15717 ****         3.7500  16.7500  -5.5000 Du        
  15718 ****         3.7500  16.7500  -5.2500 Du        
  15719 ****         3.7500  16.7500  -5.0000 Du        
  15720 ****         3.7500  16.7500  -4.7500 Du        
  15721 ****         3.7500  16.7500  -4.5000 Du        
  15722 ****         3.7500  16.7500  -3.5000 Du        
  15723 ****         3.7500  16.7500  -3.2500 Du        
  15724 ****         3.7500  16.7500  -3.0000 Du        
  15725 ****         3.7500  16.7500  -2.7500 Du        
  15726 ****         3.7500  16.7500  -2.5000 Du        
  15727 ****         3.7500  16.7500  -2.2500 Du        
  15728 ****         3.7500  16.7500  -2.0000 Du        
  15729 ****         3.7500  16.7500  -1.7500 Du        
  15730 ****         3.7500  16.7500  -1.5000 Du        
  15731 ****         3.7500  16.7500  -1.2500 Du        
  15732 ****         3.7500  16.7500  -1.0000 Du        
  15733 ****         3.7500  17.0000  -2.7500 Du        
  15734 ****         3.7500  17.0000  -2.5000 Du        
  15735 ****         3.7500  17.0000  -2.2500 Du        
  15736 ****         3.7500  17.0000  -2.0000 Du        
  15737 ****         3.7500  17.0000  -1.7500 Du        
  15738 ****         3.7500  17.0000  -1.5000 Du        
  15739 ****         3.7500  17.0000  -1.2500 Du        
  15740 ****         3.7500  17.0000  -1.0000 Du        
  15741 ****         3.7500  17.2500  -2.0000 Du        
  15742 ****         3.7500  17.2500  -1.7500 Du        
  15743 ****         3.7500  17.2500  -1.5000 Du        
  15744 ****         3.7500  17.2500  -1.2500 Du        
  15745 ****         3.7500  17.2500  -1.0000 Du        
  15746 ****         3.7500  17.5000  -1.2500 Du        
  15747 ****         3.7500  17.5000  -1.0000 Du        
  15748 ****         4.0000   4.0000  32.7500 Du        
  15749 ****         4.0000   4.0000  33.0000 Du        
  15750 ****         4.0000   4.0000  33.2500 Du        
  15751 ****         4.0000   4.0000  34.0000 Du        
  15752 ****         4.0000   4.2500  31.7500 Du        
  15753 ****         4.0000   4.2500  32.0000 Du        
  15754 ****         4.0000   4.2500  32.2500 Du        
  15755 ****         4.0000   4.2500  32.5000 Du        
  15756 ****         4.0000   4.2500  32.7500 Du        
  15757 ****         4.0000   4.2500  33.0000 Du        
  15758 ****         4.0000   4.2500  33.2500 Du        
  15759 ****         4.0000   4.2500  33.5000 Du        
  15760 ****         4.0000   4.2500  33.7500 Du        
  15761 ****         4.0000   4.2500  34.0000 Du        
  15762 ****         4.0000   4.2500  34.2500 Du        
  15763 ****         4.0000   4.2500  34.5000 Du        
  15764 ****         4.0000   4.5000  31.2500 Du        
  15765 ****         4.0000   4.5000  31.5000 Du        
  15766 ****         4.0000   4.5000  31.7500 Du        
  15767 ****         4.0000   4.5000  32.0000 Du        
  15768 ****         4.0000   4.5000  32.2500 Du        
  15769 ****         4.0000   4.5000  32.5000 Du        
  15770 ****         4.0000   4.5000  32.7500 Du        
  15771 ****         4.0000   4.5000  33.0000 Du        
  15772 ****         4.0000   4.5000  33.2500 Du        
  15773 ****         4.0000   4.5000  33.5000 Du        
  15774 ****         4.0000   4.5000  33.7500 Du        
  15775 ****         4.0000   4.5000  34.0000 Du        
  15776 ****         4.0000   4.5000  34.2500 Du        
  15777 ****         4.0000   4.5000  34.5000 Du        
  15778 ****         4.0000   4.7500  31.2500 Du        
  15779 ****         4.0000   4.7500  31.5000 Du        
  15780 ****         4.0000   4.7500  31.7500 Du        
  15781 ****         4.0000   4.7500  32.0000 Du        
  15782 ****         4.0000   4.7500  32.2500 Du        
  15783 ****         4.0000   4.7500  32.5000 Du        
  15784 ****         4.0000   4.7500  32.7500 Du        
  15785 ****         4.0000   4.7500  33.0000 Du        
  15786 ****         4.0000   4.7500  33.2500 Du        
  15787 ****         4.0000   4.7500  33.5000 Du        
  15788 ****         4.0000   4.7500  33.7500 Du        
  15789 ****         4.0000   4.7500  34.0000 Du        
  15790 ****         4.0000   4.7500  34.2500 Du        
  15791 ****         4.0000   4.7500  34.5000 Du        
  15792 ****         4.0000   4.7500  34.7500 Du        
  15793 ****         4.0000   5.0000  31.5000 Du        
  15794 ****         4.0000   5.0000  31.7500 Du        
  15795 ****         4.0000   5.0000  32.0000 Du        
  15796 ****         4.0000   5.0000  32.2500 Du        
  15797 ****         4.0000   5.0000  32.5000 Du        
  15798 ****         4.0000   5.0000  32.7500 Du        
  15799 ****         4.0000   5.0000  33.0000 Du        
  15800 ****         4.0000   5.0000  33.2500 Du        
  15801 ****         4.0000   5.0000  33.5000 Du        
  15802 ****         4.0000   5.0000  33.7500 Du        
  15803 ****         4.0000   5.0000  34.0000 Du        
  15804 ****         4.0000   5.0000  34.2500 Du        
  15805 ****         4.0000   5.0000  34.5000 Du        
  15806 ****         4.0000   5.0000  34.7500 Du        
  15807 ****         4.0000   5.0000  35.0000 Du        
  15808 ****         4.0000   5.2500  31.7500 Du        
  15809 ****         4.0000   5.2500  32.0000 Du        
  15810 ****         4.0000   5.2500  32.2500 Du        
  15811 ****         4.0000   5.2500  32.5000 Du        
  15812 ****         4.0000   5.2500  32.7500 Du        
  15813 ****         4.0000   5.2500  33.0000 Du        
  15814 ****         4.0000   5.2500  33.2500 Du        
  15815 ****         4.0000   5.2500  33.5000 Du        
  15816 ****         4.0000   5.2500  33.7500 Du        
  15817 ****         4.0000   5.2500  34.0000 Du        
  15818 ****         4.0000   5.2500  34.2500 Du        
  15819 ****         4.0000   5.2500  34.5000 Du        
  15820 ****         4.0000   5.2500  34.7500 Du        
  15821 ****         4.0000   5.2500  35.0000 Du        
  15822 ****         4.0000   5.5000  32.5000 Du        
  15823 ****         4.0000   5.5000  32.7500 Du        
  15824 ****         4.0000   5.5000  33.0000 Du        
  15825 ****         4.0000   5.5000  33.2500 Du        
  15826 ****         4.0000   5.5000  33.5000 Du        
  15827 ****         4.0000   5.5000  33.7500 Du        
  15828 ****         4.0000   5.5000  34.0000 Du        
  15829 ****         4.0000   5.5000  34.2500 Du        
  15830 ****         4.0000   5.5000  34.5000 Du        
  15831 ****         4.0000   5.5000  34.7500 Du        
  15832 ****         4.0000   5.5000  35.0000 Du        
  15833 ****         4.0000   5.7500  32.5000 Du        
  15834 ****         4.0000   5.7500  32.7500 Du        
  15835 ****         4.0000   5.7500  33.0000 Du        
  15836 ****         4.0000   5.7500  33.2500 Du        
  15837 ****         4.0000   5.7500  33.5000 Du        
  15838 ****         4.0000   5.7500  33.7500 Du        
  15839 ****         4.0000   5.7500  34.0000 Du        
  15840 ****         4.0000   5.7500  34.2500 Du        
  15841 ****         4.0000   5.7500  34.5000 Du        
  15842 ****         4.0000   5.7500  34.7500 Du        
  15843 ****         4.0000   5.7500  35.0000 Du        
  15844 ****         4.0000   6.0000  32.5000 Du        
  15845 ****         4.0000   6.0000  32.7500 Du        
  15846 ****         4.0000   6.0000  33.0000 Du        
  15847 ****         4.0000   6.0000  33.2500 Du        
  15848 ****         4.0000   6.0000  33.5000 Du        
  15849 ****         4.0000   6.0000  33.7500 Du        
  15850 ****         4.0000   6.0000  34.0000 Du        
  15851 ****         4.0000   6.0000  34.2500 Du        
  15852 ****         4.0000   6.0000  34.5000 Du        
  15853 ****         4.0000   6.0000  34.7500 Du        
  15854 ****         4.0000   6.0000  35.0000 Du        
  15855 ****         4.0000   6.2500  32.7500 Du        
  15856 ****         4.0000   6.2500  33.0000 Du        
  15857 ****         4.0000   6.2500  33.2500 Du        
  15858 ****         4.0000   6.2500  33.5000 Du        
  15859 ****         4.0000   6.2500  33.7500 Du        
  15860 ****         4.0000   6.2500  34.0000 Du        
  15861 ****         4.0000   6.2500  34.2500 Du        
  15862 ****         4.0000   6.2500  34.5000 Du        
  15863 ****         4.0000   6.2500  34.7500 Du        
  15864 ****         4.0000   6.2500  35.0000 Du        
  15865 ****         4.0000   6.5000  33.7500 Du        
  15866 ****         4.0000   6.5000  34.0000 Du        
  15867 ****         4.0000   6.5000  34.2500 Du        
  15868 ****         4.0000   6.5000  34.5000 Du        
  15869 ****         4.0000   6.5000  34.7500 Du        
  15870 ****         4.0000   6.7500  34.0000 Du        
  15871 ****         4.0000   6.7500  34.2500 Du        
  15872 ****         4.0000   6.7500  34.5000 Du        
  15873 ****         4.0000   6.7500  34.7500 Du        
  15874 ****         4.0000   7.0000  34.2500 Du        
  15875 ****         4.0000   7.0000  34.5000 Du        
  15876 ****         4.0000   7.0000  34.7500 Du        
  15877 ****         4.0000   8.7500  26.7500 Du        
  15878 ****         4.0000   9.0000  26.7500 Du        
  15879 ****         4.0000   9.0000  27.0000 Du        
  15880 ****         4.0000   9.2500  27.0000 Du        
  15881 ****         4.0000   9.2500  27.2500 Du        
  15882 ****         4.0000   9.2500  27.5000 Du        
  15883 ****         4.0000   9.5000  27.2500 Du        
  15884 ****         4.0000   9.5000  27.5000 Du        
  15885 ****         4.0000   9.5000  27.7500 Du        
  15886 ****         4.0000   9.5000  28.0000 Du        
  15887 ****         4.0000   9.7500  27.2500 Du        
  15888 ****         4.0000   9.7500  27.5000 Du        
  15889 ****         4.0000   9.7500  27.7500 Du        
  15890 ****         4.0000   9.7500  28.0000 Du        
  15891 ****         4.0000   9.7500  28.2500 Du        
  15892 ****         4.0000   9.7500  28.5000 Du        
  15893 ****         4.0000  10.0000  27.5000 Du        
  15894 ****         4.0000  10.0000  27.7500 Du        
  15895 ****         4.0000  10.0000  28.0000 Du        
  15896 ****         4.0000  10.0000  28.2500 Du        
  15897 ****         4.0000  10.0000  28.5000 Du        
  15898 ****         4.0000  10.2500  27.7500 Du        
  15899 ****         4.0000  10.2500  28.0000 Du        
  15900 ****         4.0000  10.2500  28.2500 Du        
  15901 ****         4.0000  10.5000  18.2500 Du        
  15902 ****         4.0000  10.5000  21.0000 Du        
  15903 ****         4.0000  10.5000  21.2500 Du        
  15904 ****         4.0000  10.7500  11.0000 Du        
  15905 ****         4.0000  10.7500  11.2500 Du        
  15906 ****         4.0000  10.7500  18.2500 Du        
  15907 ****         4.0000  10.7500  18.5000 Du        
  15908 ****         4.0000  10.7500  18.7500 Du        
  15909 ****         4.0000  10.7500  20.0000 Du        
  15910 ****         4.0000  10.7500  20.2500 Du        
  15911 ****         4.0000  10.7500  20.5000 Du        
  15912 ****         4.0000  10.7500  20.7500 Du        
  15913 ****         4.0000  10.7500  21.0000 Du        
  15914 ****         4.0000  10.7500  21.2500 Du        
  15915 ****         4.0000  10.7500  21.5000 Du        
  15916 ****         4.0000  10.7500  35.7500 Du        
  15917 ****         4.0000  10.7500  36.0000 Du        
  15918 ****         4.0000  11.0000   9.7500 Du        
  15919 ****         4.0000  11.0000  10.7500 Du        
  15920 ****         4.0000  11.0000  11.0000 Du        
  15921 ****         4.0000  11.0000  11.2500 Du        
  15922 ****         4.0000  11.0000  11.7500 Du        
  15923 ****         4.0000  11.0000  12.0000 Du        
  15924 ****         4.0000  11.0000  18.2500 Du        
  15925 ****         4.0000  11.0000  18.5000 Du        
  15926 ****         4.0000  11.0000  18.7500 Du        
  15927 ****         4.0000  11.0000  19.0000 Du        
  15928 ****         4.0000  11.0000  19.2500 Du        
  15929 ****         4.0000  11.0000  19.7500 Du        
  15930 ****         4.0000  11.0000  20.0000 Du        
  15931 ****         4.0000  11.0000  20.2500 Du        
  15932 ****         4.0000  11.0000  20.5000 Du        
  15933 ****         4.0000  11.0000  20.7500 Du        
  15934 ****         4.0000  11.0000  21.0000 Du        
  15935 ****         4.0000  11.0000  21.2500 Du        
  15936 ****         4.0000  11.0000  21.5000 Du        
  15937 ****         4.0000  11.0000  33.0000 Du        
  15938 ****         4.0000  11.0000  33.2500 Du        
  15939 ****         4.0000  11.0000  34.0000 Du        
  15940 ****         4.0000  11.0000  35.7500 Du        
  15941 ****         4.0000  11.0000  36.0000 Du        
  15942 ****         4.0000  11.0000  36.2500 Du        
  15943 ****         4.0000  11.0000  36.5000 Du        
  15944 ****         4.0000  11.2500   9.5000 Du        
  15945 ****         4.0000  11.2500   9.7500 Du        
  15946 ****         4.0000  11.2500  10.0000 Du        
  15947 ****         4.0000  11.2500  10.2500 Du        
  15948 ****         4.0000  11.2500  10.5000 Du        
  15949 ****         4.0000  11.2500  10.7500 Du        
  15950 ****         4.0000  11.2500  11.0000 Du        
  15951 ****         4.0000  11.2500  11.2500 Du        
  15952 ****         4.0000  11.2500  11.7500 Du        
  15953 ****         4.0000  11.2500  18.7500 Du        
  15954 ****         4.0000  11.2500  19.0000 Du        
  15955 ****         4.0000  11.2500  19.2500 Du        
  15956 ****         4.0000  11.2500  19.5000 Du        
  15957 ****         4.0000  11.2500  19.7500 Du        
  15958 ****         4.0000  11.2500  20.0000 Du        
  15959 ****         4.0000  11.2500  20.2500 Du        
  15960 ****         4.0000  11.2500  20.5000 Du        
  15961 ****         4.0000  11.2500  20.7500 Du        
  15962 ****         4.0000  11.2500  21.0000 Du        
  15963 ****         4.0000  11.2500  21.2500 Du        
  15964 ****         4.0000  11.2500  21.5000 Du        
  15965 ****         4.0000  11.2500  33.2500 Du        
  15966 ****         4.0000  11.2500  33.5000 Du        
  15967 ****         4.0000  11.2500  33.7500 Du        
  15968 ****         4.0000  11.2500  34.0000 Du        
  15969 ****         4.0000  11.2500  34.2500 Du        
  15970 ****         4.0000  11.2500  35.2500 Du        
  15971 ****         4.0000  11.2500  35.7500 Du        
  15972 ****         4.0000  11.2500  36.0000 Du        
  15973 ****         4.0000  11.2500  36.2500 Du        
  15974 ****         4.0000  11.2500  36.5000 Du        
  15975 ****         4.0000  11.2500  36.7500 Du        
  15976 ****         4.0000  11.5000   9.2500 Du        
  15977 ****         4.0000  11.5000   9.5000 Du        
  15978 ****         4.0000  11.5000   9.7500 Du        
  15979 ****         4.0000  11.5000  10.0000 Du        
  15980 ****         4.0000  11.5000  10.2500 Du        
  15981 ****         4.0000  11.5000  10.5000 Du        
  15982 ****         4.0000  11.5000  10.7500 Du        
  15983 ****         4.0000  11.5000  11.0000 Du        
  15984 ****         4.0000  11.5000  11.2500 Du        
  15985 ****         4.0000  11.5000  11.5000 Du        
  15986 ****         4.0000  11.5000  18.7500 Du        
  15987 ****         4.0000  11.5000  19.0000 Du        
  15988 ****         4.0000  11.5000  19.2500 Du        
  15989 ****         4.0000  11.5000  19.5000 Du        
  15990 ****         4.0000  11.5000  19.7500 Du        
  15991 ****         4.0000  11.5000  20.0000 Du        
  15992 ****         4.0000  11.5000  20.2500 Du        
  15993 ****         4.0000  11.5000  20.5000 Du        
  15994 ****         4.0000  11.5000  20.7500 Du        
  15995 ****         4.0000  11.5000  21.0000 Du        
  15996 ****         4.0000  11.5000  21.2500 Du        
  15997 ****         4.0000  11.5000  21.5000 Du        
  15998 ****         4.0000  11.5000  21.7500 Du        
  15999 ****         4.0000  11.5000  33.2500 Du        
  16000 ****         4.0000  11.5000  33.5000 Du        
  16001 ****         4.0000  11.5000  33.7500 Du        
  16002 ****         4.0000  11.5000  34.0000 Du        
  16003 ****         4.0000  11.5000  34.2500 Du        
  16004 ****         4.0000  11.5000  34.5000 Du        
  16005 ****         4.0000  11.5000  34.7500 Du        
  16006 ****         4.0000  11.5000  35.0000 Du        
  16007 ****         4.0000  11.5000  35.2500 Du        
  16008 ****         4.0000  11.5000  35.5000 Du        
  16009 ****         4.0000  11.5000  35.7500 Du        
  16010 ****         4.0000  11.5000  36.0000 Du        
  16011 ****         4.0000  11.5000  36.2500 Du        
  16012 ****         4.0000  11.5000  36.5000 Du        
  16013 ****         4.0000  11.5000  36.7500 Du        
  16014 ****         4.0000  11.7500   9.2500 Du        
  16015 ****         4.0000  11.7500   9.5000 Du        
  16016 ****         4.0000  11.7500   9.7500 Du        
  16017 ****         4.0000  11.7500  10.0000 Du        
  16018 ****         4.0000  11.7500  10.2500 Du        
  16019 ****         4.0000  11.7500  18.7500 Du        
  16020 ****         4.0000  11.7500  19.0000 Du        
  16021 ****         4.0000  11.7500  19.2500 Du        
  16022 ****         4.0000  11.7500  19.5000 Du        
  16023 ****         4.0000  11.7500  19.7500 Du        
  16024 ****         4.0000  11.7500  20.0000 Du        
  16025 ****         4.0000  11.7500  20.2500 Du        
  16026 ****         4.0000  11.7500  20.5000 Du        
  16027 ****         4.0000  11.7500  20.7500 Du        
  16028 ****         4.0000  11.7500  21.0000 Du        
  16029 ****         4.0000  11.7500  21.2500 Du        
  16030 ****         4.0000  11.7500  21.5000 Du        
  16031 ****         4.0000  11.7500  21.7500 Du        
  16032 ****         4.0000  11.7500  33.5000 Du        
  16033 ****         4.0000  11.7500  33.7500 Du        
  16034 ****         4.0000  11.7500  34.0000 Du        
  16035 ****         4.0000  11.7500  34.2500 Du        
  16036 ****         4.0000  11.7500  34.5000 Du        
  16037 ****         4.0000  11.7500  34.7500 Du        
  16038 ****         4.0000  11.7500  35.0000 Du        
  16039 ****         4.0000  11.7500  35.2500 Du        
  16040 ****         4.0000  11.7500  35.5000 Du        
  16041 ****         4.0000  11.7500  35.7500 Du        
  16042 ****         4.0000  11.7500  36.0000 Du        
  16043 ****         4.0000  11.7500  36.2500 Du        
  16044 ****         4.0000  11.7500  36.5000 Du        
  16045 ****         4.0000  11.7500  36.7500 Du        
  16046 ****         4.0000  12.0000  18.7500 Du        
  16047 ****         4.0000  12.0000  19.0000 Du        
  16048 ****         4.0000  12.0000  19.2500 Du        
  16049 ****         4.0000  12.0000  19.5000 Du        
  16050 ****         4.0000  12.0000  19.7500 Du        
  16051 ****         4.0000  12.0000  20.0000 Du        
  16052 ****         4.0000  12.0000  20.2500 Du        
  16053 ****         4.0000  12.0000  20.5000 Du        
  16054 ****         4.0000  12.0000  20.7500 Du        
  16055 ****         4.0000  12.0000  21.0000 Du        
  16056 ****         4.0000  12.0000  21.2500 Du        
  16057 ****         4.0000  12.0000  21.5000 Du        
  16058 ****         4.0000  12.0000  21.7500 Du        
  16059 ****         4.0000  12.0000  33.7500 Du        
  16060 ****         4.0000  12.0000  34.0000 Du        
  16061 ****         4.0000  12.0000  34.2500 Du        
  16062 ****         4.0000  12.0000  34.5000 Du        
  16063 ****         4.0000  12.0000  34.7500 Du        
  16064 ****         4.0000  12.0000  35.0000 Du        
  16065 ****         4.0000  12.0000  35.2500 Du        
  16066 ****         4.0000  12.0000  35.5000 Du        
  16067 ****         4.0000  12.0000  35.7500 Du        
  16068 ****         4.0000  12.0000  36.0000 Du        
  16069 ****         4.0000  12.0000  36.2500 Du        
  16070 ****         4.0000  12.0000  36.5000 Du        
  16071 ****         4.0000  12.0000  36.7500 Du        
  16072 ****         4.0000  12.2500  18.7500 Du        
  16073 ****         4.0000  12.2500  19.0000 Du        
  16074 ****         4.0000  12.2500  19.2500 Du        
  16075 ****         4.0000  12.2500  19.5000 Du        
  16076 ****         4.0000  12.2500  19.7500 Du        
  16077 ****         4.0000  12.2500  20.0000 Du        
  16078 ****         4.0000  12.2500  20.2500 Du        
  16079 ****         4.0000  12.2500  20.5000 Du        
  16080 ****         4.0000  12.2500  20.7500 Du        
  16081 ****         4.0000  12.2500  21.0000 Du        
  16082 ****         4.0000  12.2500  21.2500 Du        
  16083 ****         4.0000  12.2500  21.5000 Du        
  16084 ****         4.0000  12.2500  21.7500 Du        
  16085 ****         4.0000  12.2500  22.0000 Du        
  16086 ****         4.0000  12.2500  34.0000 Du        
  16087 ****         4.0000  12.2500  34.2500 Du        
  16088 ****         4.0000  12.2500  34.5000 Du        
  16089 ****         4.0000  12.2500  34.7500 Du        
  16090 ****         4.0000  12.2500  35.0000 Du        
  16091 ****         4.0000  12.2500  35.2500 Du        
  16092 ****         4.0000  12.2500  35.5000 Du        
  16093 ****         4.0000  12.2500  35.7500 Du        
  16094 ****         4.0000  12.2500  36.0000 Du        
  16095 ****         4.0000  12.2500  36.2500 Du        
  16096 ****         4.0000  12.2500  36.5000 Du        
  16097 ****         4.0000  12.2500  36.7500 Du        
  16098 ****         4.0000  12.5000  18.7500 Du        
  16099 ****         4.0000  12.5000  19.0000 Du        
  16100 ****         4.0000  12.5000  19.2500 Du        
  16101 ****         4.0000  12.5000  19.5000 Du        
  16102 ****         4.0000  12.5000  19.7500 Du        
  16103 ****         4.0000  12.5000  20.0000 Du        
  16104 ****         4.0000  12.5000  20.2500 Du        
  16105 ****         4.0000  12.5000  20.5000 Du        
  16106 ****         4.0000  12.5000  20.7500 Du        
  16107 ****         4.0000  12.5000  21.0000 Du        
  16108 ****         4.0000  12.5000  21.2500 Du        
  16109 ****         4.0000  12.5000  21.5000 Du        
  16110 ****         4.0000  12.5000  21.7500 Du        
  16111 ****         4.0000  12.5000  22.0000 Du        
  16112 ****         4.0000  12.5000  34.0000 Du        
  16113 ****         4.0000  12.5000  34.2500 Du        
  16114 ****         4.0000  12.5000  34.5000 Du        
  16115 ****         4.0000  12.5000  34.7500 Du        
  16116 ****         4.0000  12.5000  35.0000 Du        
  16117 ****         4.0000  12.5000  35.2500 Du        
  16118 ****         4.0000  12.5000  35.5000 Du        
  16119 ****         4.0000  12.5000  35.7500 Du        
  16120 ****         4.0000  12.5000  36.0000 Du        
  16121 ****         4.0000  12.5000  36.2500 Du        
  16122 ****         4.0000  12.5000  36.5000 Du        
  16123 ****         4.0000  12.5000  36.7500 Du        
  16124 ****         4.0000  12.7500  19.0000 Du        
  16125 ****         4.0000  12.7500  19.2500 Du        
  16126 ****         4.0000  12.7500  19.5000 Du        
  16127 ****         4.0000  12.7500  19.7500 Du        
  16128 ****         4.0000  12.7500  20.0000 Du        
  16129 ****         4.0000  12.7500  20.2500 Du        
  16130 ****         4.0000  12.7500  20.5000 Du        
  16131 ****         4.0000  12.7500  20.7500 Du        
  16132 ****         4.0000  12.7500  21.0000 Du        
  16133 ****         4.0000  12.7500  21.2500 Du        
  16134 ****         4.0000  12.7500  21.5000 Du        
  16135 ****         4.0000  12.7500  21.7500 Du        
  16136 ****         4.0000  12.7500  22.0000 Du        
  16137 ****         4.0000  12.7500  34.2500 Du        
  16138 ****         4.0000  12.7500  34.5000 Du        
  16139 ****         4.0000  12.7500  34.7500 Du        
  16140 ****         4.0000  12.7500  35.0000 Du        
  16141 ****         4.0000  12.7500  35.2500 Du        
  16142 ****         4.0000  12.7500  35.5000 Du        
  16143 ****         4.0000  12.7500  35.7500 Du        
  16144 ****         4.0000  12.7500  36.0000 Du        
  16145 ****         4.0000  12.7500  36.2500 Du        
  16146 ****         4.0000  12.7500  36.5000 Du        
  16147 ****         4.0000  13.0000  19.0000 Du        
  16148 ****         4.0000  13.0000  19.2500 Du        
  16149 ****         4.0000  13.0000  19.5000 Du        
  16150 ****         4.0000  13.0000  19.7500 Du        
  16151 ****         4.0000  13.0000  20.0000 Du        
  16152 ****         4.0000  13.0000  20.2500 Du        
  16153 ****         4.0000  13.0000  20.5000 Du        
  16154 ****         4.0000  13.0000  20.7500 Du        
  16155 ****         4.0000  13.0000  21.0000 Du        
  16156 ****         4.0000  13.0000  21.2500 Du        
  16157 ****         4.0000  13.0000  21.5000 Du        
  16158 ****         4.0000  13.0000  21.7500 Du        
  16159 ****         4.0000  13.0000  22.0000 Du        
  16160 ****         4.0000  13.0000  34.7500 Du        
  16161 ****         4.0000  13.0000  35.0000 Du        
  16162 ****         4.0000  13.0000  35.2500 Du        
  16163 ****         4.0000  13.0000  35.7500 Du        
  16164 ****         4.0000  13.0000  36.0000 Du        
  16165 ****         4.0000  13.2500  19.0000 Du        
  16166 ****         4.0000  13.2500  19.2500 Du        
  16167 ****         4.0000  13.2500  19.5000 Du        
  16168 ****         4.0000  13.2500  19.7500 Du        
  16169 ****         4.0000  13.2500  20.0000 Du        
  16170 ****         4.0000  13.2500  20.2500 Du        
  16171 ****         4.0000  13.2500  20.5000 Du        
  16172 ****         4.0000  13.2500  20.7500 Du        
  16173 ****         4.0000  13.2500  21.0000 Du        
  16174 ****         4.0000  13.2500  21.2500 Du        
  16175 ****         4.0000  13.2500  21.5000 Du        
  16176 ****         4.0000  13.2500  21.7500 Du        
  16177 ****         4.0000  13.5000  19.0000 Du        
  16178 ****         4.0000  13.5000  19.2500 Du        
  16179 ****         4.0000  13.5000  19.5000 Du        
  16180 ****         4.0000  13.5000  19.7500 Du        
  16181 ****         4.0000  13.5000  20.0000 Du        
  16182 ****         4.0000  13.5000  20.2500 Du        
  16183 ****         4.0000  13.7500  19.0000 Du        
  16184 ****         4.0000  13.7500  19.2500 Du        
  16185 ****         4.0000  13.7500  19.5000 Du        
  16186 ****         4.0000  14.5000  -5.0000 Du        
  16187 ****         4.0000  14.5000  -4.7500 Du        
  16188 ****         4.0000  14.5000  -4.5000 Du        
  16189 ****         4.0000  14.7500  -5.2500 Du        
  16190 ****         4.0000  14.7500  -5.0000 Du        
  16191 ****         4.0000  14.7500  -4.7500 Du        
  16192 ****         4.0000  14.7500  -4.5000 Du        
  16193 ****         4.0000  14.7500  -4.2500 Du        
  16194 ****         4.0000  15.0000  -5.5000 Du        
  16195 ****         4.0000  15.0000  -5.2500 Du        
  16196 ****         4.0000  15.0000  -5.0000 Du        
  16197 ****         4.0000  15.0000  -4.7500 Du        
  16198 ****         4.0000  15.0000  -4.5000 Du        
  16199 ****         4.0000  15.0000  -4.2500 Du        
  16200 ****         4.0000  15.2500  -5.5000 Du        
  16201 ****         4.0000  15.2500  -5.2500 Du        
  16202 ****         4.0000  15.2500  -5.0000 Du        
  16203 ****         4.0000  15.2500  -4.7500 Du        
  16204 ****         4.0000  15.2500  -4.5000 Du        
  16205 ****         4.0000  15.2500  -4.2500 Du        
  16206 ****         4.0000  15.2500  -4.0000 Du        
  16207 ****         4.0000  15.5000  -5.5000 Du        
  16208 ****         4.0000  15.5000  -5.2500 Du        
  16209 ****         4.0000  15.5000  -5.0000 Du        
  16210 ****         4.0000  15.5000  -4.7500 Du        
  16211 ****         4.0000  15.5000  -4.5000 Du        
  16212 ****         4.0000  15.5000  -4.2500 Du        
  16213 ****         4.0000  15.5000  -4.0000 Du        
  16214 ****         4.0000  15.5000  -3.7500 Du        
  16215 ****         4.0000  15.7500  -5.5000 Du        
  16216 ****         4.0000  15.7500  -5.2500 Du        
  16217 ****         4.0000  15.7500  -5.0000 Du        
  16218 ****         4.0000  15.7500  -4.7500 Du        
  16219 ****         4.0000  15.7500  -4.5000 Du        
  16220 ****         4.0000  15.7500  -4.2500 Du        
  16221 ****         4.0000  15.7500  -4.0000 Du        
  16222 ****         4.0000  15.7500  -3.7500 Du        
  16223 ****         4.0000  16.0000  -5.7500 Du        
  16224 ****         4.0000  16.0000  -5.5000 Du        
  16225 ****         4.0000  16.0000  -5.2500 Du        
  16226 ****         4.0000  16.0000  -5.0000 Du        
  16227 ****         4.0000  16.0000  -4.7500 Du        
  16228 ****         4.0000  16.0000  -4.5000 Du        
  16229 ****         4.0000  16.0000  -4.2500 Du        
  16230 ****         4.0000  16.0000  -4.0000 Du        
  16231 ****         4.0000  16.0000  -3.7500 Du        
  16232 ****         4.0000  16.0000  -3.5000 Du        
  16233 ****         4.0000  16.2500  -5.7500 Du        
  16234 ****         4.0000  16.2500  -5.5000 Du        
  16235 ****         4.0000  16.2500  -5.2500 Du        
  16236 ****         4.0000  16.2500  -5.0000 Du        
  16237 ****         4.0000  16.2500  -4.7500 Du        
  16238 ****         4.0000  16.2500  -4.5000 Du        
  16239 ****         4.0000  16.2500  -4.2500 Du        
  16240 ****         4.0000  16.2500  -4.0000 Du        
  16241 ****         4.0000  16.2500  -3.5000 Du        
  16242 ****         4.0000  16.2500  -3.2500 Du        
  16243 ****         4.0000  16.5000  -5.5000 Du        
  16244 ****         4.0000  16.5000  -5.2500 Du        
  16245 ****         4.0000  16.5000  -5.0000 Du        
  16246 ****         4.0000  16.5000  -4.7500 Du        
  16247 ****         4.0000  16.5000  -2.5000 Du        
  16248 ****         4.0000  16.5000  -2.2500 Du        
  16249 ****         4.0000  16.5000  -2.0000 Du        
  16250 ****         4.0000  16.5000  -1.7500 Du        
  16251 ****         4.0000  16.7500  -5.2500 Du        
  16252 ****         4.0000  16.7500  -2.2500 Du        
  16253 ****         4.0000  16.7500  -2.0000 Du        
  16254 ****         4.0000  16.7500  -1.7500 Du        
  16255 ****         4.0000  16.7500  -1.5000 Du        
  16256 ****         4.0000  16.7500  -1.2500 Du        
  16257 ****         4.0000  17.0000  -2.0000 Du        
  16258 ****         4.0000  17.0000  -1.7500 Du        
  16259 ****         4.0000  17.0000  -1.5000 Du        
  16260 ****         4.0000  17.0000  -1.2500 Du        
  16261 ****         4.2500   4.2500  31.5000 Du        
  16262 ****         4.2500   4.2500  31.7500 Du        
  16263 ****         4.2500   4.2500  32.0000 Du        
  16264 ****         4.2500   4.2500  32.2500 Du        
  16265 ****         4.2500   4.2500  32.5000 Du        
  16266 ****         4.2500   4.2500  32.7500 Du        
  16267 ****         4.2500   4.2500  33.0000 Du        
  16268 ****         4.2500   4.2500  33.2500 Du        
  16269 ****         4.2500   4.2500  33.5000 Du        
  16270 ****         4.2500   4.2500  33.7500 Du        
  16271 ****         4.2500   4.2500  34.0000 Du        
  16272 ****         4.2500   4.2500  34.2500 Du        
  16273 ****         4.2500   4.2500  34.5000 Du        
  16274 ****         4.2500   4.5000  31.2500 Du        
  16275 ****         4.2500   4.5000  31.5000 Du        
  16276 ****         4.2500   4.5000  31.7500 Du        
  16277 ****         4.2500   4.5000  32.0000 Du        
  16278 ****         4.2500   4.5000  32.2500 Du        
  16279 ****         4.2500   4.5000  32.5000 Du        
  16280 ****         4.2500   4.5000  32.7500 Du        
  16281 ****         4.2500   4.5000  33.0000 Du        
  16282 ****         4.2500   4.5000  33.2500 Du        
  16283 ****         4.2500   4.5000  33.5000 Du        
  16284 ****         4.2500   4.5000  33.7500 Du        
  16285 ****         4.2500   4.5000  34.0000 Du        
  16286 ****         4.2500   4.5000  34.2500 Du        
  16287 ****         4.2500   4.5000  34.5000 Du        
  16288 ****         4.2500   4.7500  31.2500 Du        
  16289 ****         4.2500   4.7500  31.5000 Du        
  16290 ****         4.2500   4.7500  31.7500 Du        
  16291 ****         4.2500   4.7500  32.0000 Du        
  16292 ****         4.2500   4.7500  32.2500 Du        
  16293 ****         4.2500   4.7500  32.5000 Du        
  16294 ****         4.2500   4.7500  32.7500 Du        
  16295 ****         4.2500   4.7500  33.0000 Du        
  16296 ****         4.2500   4.7500  33.2500 Du        
  16297 ****         4.2500   4.7500  33.5000 Du        
  16298 ****         4.2500   4.7500  33.7500 Du        
  16299 ****         4.2500   4.7500  34.0000 Du        
  16300 ****         4.2500   4.7500  34.2500 Du        
  16301 ****         4.2500   4.7500  34.5000 Du        
  16302 ****         4.2500   4.7500  34.7500 Du        
  16303 ****         4.2500   5.0000  31.5000 Du        
  16304 ****         4.2500   5.0000  31.7500 Du        
  16305 ****         4.2500   5.0000  32.0000 Du        
  16306 ****         4.2500   5.0000  32.2500 Du        
  16307 ****         4.2500   5.0000  32.5000 Du        
  16308 ****         4.2500   5.0000  32.7500 Du        
  16309 ****         4.2500   5.0000  33.0000 Du        
  16310 ****         4.2500   5.0000  33.2500 Du        
  16311 ****         4.2500   5.0000  33.5000 Du        
  16312 ****         4.2500   5.0000  33.7500 Du        
  16313 ****         4.2500   5.0000  34.0000 Du        
  16314 ****         4.2500   5.0000  34.2500 Du        
  16315 ****         4.2500   5.0000  34.5000 Du        
  16316 ****         4.2500   5.0000  34.7500 Du        
  16317 ****         4.2500   5.2500  31.7500 Du        
  16318 ****         4.2500   5.2500  32.0000 Du        
  16319 ****         4.2500   5.2500  32.2500 Du        
  16320 ****         4.2500   5.2500  32.5000 Du        
  16321 ****         4.2500   5.2500  32.7500 Du        
  16322 ****         4.2500   5.2500  33.0000 Du        
  16323 ****         4.2500   5.2500  33.2500 Du        
  16324 ****         4.2500   5.2500  33.5000 Du        
  16325 ****         4.2500   5.2500  33.7500 Du        
  16326 ****         4.2500   5.2500  34.0000 Du        
  16327 ****         4.2500   5.2500  34.2500 Du        
  16328 ****         4.2500   5.2500  34.5000 Du        
  16329 ****         4.2500   5.2500  34.7500 Du        
  16330 ****         4.2500   5.2500  35.0000 Du        
  16331 ****         4.2500   5.5000  32.2500 Du        
  16332 ****         4.2500   5.5000  32.5000 Du        
  16333 ****         4.2500   5.5000  32.7500 Du        
  16334 ****         4.2500   5.5000  33.0000 Du        
  16335 ****         4.2500   5.5000  33.2500 Du        
  16336 ****         4.2500   5.5000  33.5000 Du        
  16337 ****         4.2500   5.5000  33.7500 Du        
  16338 ****         4.2500   5.5000  34.0000 Du        
  16339 ****         4.2500   5.5000  34.2500 Du        
  16340 ****         4.2500   5.5000  34.5000 Du        
  16341 ****         4.2500   5.5000  34.7500 Du        
  16342 ****         4.2500   5.5000  35.0000 Du        
  16343 ****         4.2500   5.7500  32.5000 Du        
  16344 ****         4.2500   5.7500  32.7500 Du        
  16345 ****         4.2500   5.7500  33.0000 Du        
  16346 ****         4.2500   5.7500  33.2500 Du        
  16347 ****         4.2500   5.7500  33.5000 Du        
  16348 ****         4.2500   5.7500  33.7500 Du        
  16349 ****         4.2500   5.7500  34.0000 Du        
  16350 ****         4.2500   5.7500  34.2500 Du        
  16351 ****         4.2500   5.7500  34.5000 Du        
  16352 ****         4.2500   5.7500  34.7500 Du        
  16353 ****         4.2500   5.7500  35.0000 Du        
  16354 ****         4.2500   6.0000  32.5000 Du        
  16355 ****         4.2500   6.0000  32.7500 Du        
  16356 ****         4.2500   6.0000  33.0000 Du        
  16357 ****         4.2500   6.0000  33.2500 Du        
  16358 ****         4.2500   6.0000  33.5000 Du        
  16359 ****         4.2500   6.0000  33.7500 Du        
  16360 ****         4.2500   6.0000  34.0000 Du        
  16361 ****         4.2500   6.0000  34.2500 Du        
  16362 ****         4.2500   6.0000  34.5000 Du        
  16363 ****         4.2500   6.0000  34.7500 Du        
  16364 ****         4.2500   6.2500  32.7500 Du        
  16365 ****         4.2500   6.2500  33.0000 Du        
  16366 ****         4.2500   6.2500  33.2500 Du        
  16367 ****         4.2500   6.2500  33.5000 Du        
  16368 ****         4.2500   6.2500  33.7500 Du        
  16369 ****         4.2500   6.2500  34.0000 Du        
  16370 ****         4.2500   6.2500  34.2500 Du        
  16371 ****         4.2500   6.2500  34.5000 Du        
  16372 ****         4.2500   6.2500  34.7500 Du        
  16373 ****         4.2500   6.5000  33.5000 Du        
  16374 ****         4.2500   6.5000  33.7500 Du        
  16375 ****         4.2500   6.5000  34.0000 Du        
  16376 ****         4.2500   6.5000  34.2500 Du        
  16377 ****         4.2500   6.5000  34.5000 Du        
  16378 ****         4.2500   6.5000  34.7500 Du        
  16379 ****         4.2500   6.7500  33.7500 Du        
  16380 ****         4.2500   6.7500  34.0000 Du        
  16381 ****         4.2500   6.7500  34.2500 Du        
  16382 ****         4.2500   6.7500  34.5000 Du        
  16383 ****         4.2500   6.7500  34.7500 Du        
  16384 ****         4.2500   7.0000  34.0000 Du        
  16385 ****         4.2500   7.0000  34.2500 Du        
  16386 ****         4.2500   7.0000  34.5000 Du        
  16387 ****         4.2500   7.0000  34.7500 Du        
  16388 ****         4.2500   7.2500  34.5000 Du        
  16389 ****         4.2500   9.7500  27.7500 Du        
  16390 ****         4.2500   9.7500  28.0000 Du        
  16391 ****         4.2500   9.7500  28.2500 Du        
  16392 ****         4.2500  10.0000  27.7500 Du        
  16393 ****         4.2500  10.0000  28.0000 Du        
  16394 ****         4.2500  10.0000  28.2500 Du        
  16395 ****         4.2500  10.5000  18.0000 Du        
  16396 ****         4.2500  10.5000  18.2500 Du        
  16397 ****         4.2500  10.5000  20.7500 Du        
  16398 ****         4.2500  10.5000  21.0000 Du        
  16399 ****         4.2500  10.7500  11.2500 Du        
  16400 ****         4.2500  10.7500  12.0000 Du        
  16401 ****         4.2500  10.7500  18.2500 Du        
  16402 ****         4.2500  10.7500  18.5000 Du        
  16403 ****         4.2500  10.7500  19.0000 Du        
  16404 ****         4.2500  10.7500  19.7500 Du        
  16405 ****         4.2500  10.7500  20.0000 Du        
  16406 ****         4.2500  10.7500  20.2500 Du        
  16407 ****         4.2500  10.7500  20.5000 Du        
  16408 ****         4.2500  10.7500  20.7500 Du        
  16409 ****         4.2500  10.7500  21.0000 Du        
  16410 ****         4.2500  10.7500  21.2500 Du        
  16411 ****         4.2500  11.0000  10.7500 Du        
  16412 ****         4.2500  11.0000  11.0000 Du        
  16413 ****         4.2500  11.0000  11.2500 Du        
  16414 ****         4.2500  11.0000  11.5000 Du        
  16415 ****         4.2500  11.0000  11.7500 Du        
  16416 ****         4.2500  11.0000  12.0000 Du        
  16417 ****         4.2500  11.0000  12.2500 Du        
  16418 ****         4.2500  11.0000  18.2500 Du        
  16419 ****         4.2500  11.0000  18.5000 Du        
  16420 ****         4.2500  11.0000  18.7500 Du        
  16421 ****         4.2500  11.0000  19.0000 Du        
  16422 ****         4.2500  11.0000  19.2500 Du        
  16423 ****         4.2500  11.0000  19.5000 Du        
  16424 ****         4.2500  11.0000  19.7500 Du        
  16425 ****         4.2500  11.0000  20.0000 Du        
  16426 ****         4.2500  11.0000  20.2500 Du        
  16427 ****         4.2500  11.0000  20.5000 Du        
  16428 ****         4.2500  11.0000  20.7500 Du        
  16429 ****         4.2500  11.0000  21.0000 Du        
  16430 ****         4.2500  11.0000  21.2500 Du        
  16431 ****         4.2500  11.0000  33.0000 Du        
  16432 ****         4.2500  11.0000  33.2500 Du        
  16433 ****         4.2500  11.0000  33.5000 Du        
  16434 ****         4.2500  11.0000  33.7500 Du        
  16435 ****         4.2500  11.0000  34.0000 Du        
  16436 ****         4.2500  11.0000  35.2500 Du        
  16437 ****         4.2500  11.0000  35.7500 Du        
  16438 ****         4.2500  11.0000  36.0000 Du        
  16439 ****         4.2500  11.0000  36.2500 Du        
  16440 ****         4.2500  11.2500   9.5000 Du        
  16441 ****         4.2500  11.2500   9.7500 Du        
  16442 ****         4.2500  11.2500  10.0000 Du        
  16443 ****         4.2500  11.2500  10.2500 Du        
  16444 ****         4.2500  11.2500  10.5000 Du        
  16445 ****         4.2500  11.2500  10.7500 Du        
  16446 ****         4.2500  11.2500  11.0000 Du        
  16447 ****         4.2500  11.2500  11.2500 Du        
  16448 ****         4.2500  11.2500  11.5000 Du        
  16449 ****         4.2500  11.2500  11.7500 Du        
  16450 ****         4.2500  11.2500  12.0000 Du        
  16451 ****         4.2500  11.2500  18.5000 Du        
  16452 ****         4.2500  11.2500  18.7500 Du        
  16453 ****         4.2500  11.2500  19.0000 Du        
  16454 ****         4.2500  11.2500  19.2500 Du        
  16455 ****         4.2500  11.2500  19.5000 Du        
  16456 ****         4.2500  11.2500  19.7500 Du        
  16457 ****         4.2500  11.2500  20.0000 Du        
  16458 ****         4.2500  11.2500  20.2500 Du        
  16459 ****         4.2500  11.2500  20.5000 Du        
  16460 ****         4.2500  11.2500  20.7500 Du        
  16461 ****         4.2500  11.2500  21.0000 Du        
  16462 ****         4.2500  11.2500  21.2500 Du        
  16463 ****         4.2500  11.2500  21.5000 Du        
  16464 ****         4.2500  11.2500  33.0000 Du        
  16465 ****         4.2500  11.2500  33.2500 Du        
  16466 ****         4.2500  11.2500  33.5000 Du        
  16467 ****         4.2500  11.2500  33.7500 Du        
  16468 ****         4.2500  11.2500  34.0000 Du        
  16469 ****         4.2500  11.2500  34.2500 Du        
  16470 ****         4.2500  11.2500  35.0000 Du        
  16471 ****         4.2500  11.2500  35.2500 Du        
  16472 ****         4.2500  11.2500  35.7500 Du        
  16473 ****         4.2500  11.2500  36.0000 Du        
  16474 ****         4.2500  11.2500  36.2500 Du        
  16475 ****         4.2500  11.2500  36.5000 Du        
  16476 ****         4.2500  11.5000   9.2500 Du        
  16477 ****         4.2500  11.5000   9.5000 Du        
  16478 ****         4.2500  11.5000   9.7500 Du        
  16479 ****         4.2500  11.5000  10.0000 Du        
  16480 ****         4.2500  11.5000  10.2500 Du        
  16481 ****         4.2500  11.5000  10.5000 Du        
  16482 ****         4.2500  11.5000  10.7500 Du        
  16483 ****         4.2500  11.5000  11.0000 Du        
  16484 ****         4.2500  11.5000  11.2500 Du        
  16485 ****         4.2500  11.5000  11.5000 Du        
  16486 ****         4.2500  11.5000  11.7500 Du        
  16487 ****         4.2500  11.5000  12.0000 Du        
  16488 ****         4.2500  11.5000  18.5000 Du        
  16489 ****         4.2500  11.5000  18.7500 Du        
  16490 ****         4.2500  11.5000  19.0000 Du        
  16491 ****         4.2500  11.5000  19.2500 Du        
  16492 ****         4.2500  11.5000  19.5000 Du        
  16493 ****         4.2500  11.5000  19.7500 Du        
  16494 ****         4.2500  11.5000  20.0000 Du        
  16495 ****         4.2500  11.5000  20.2500 Du        
  16496 ****         4.2500  11.5000  20.5000 Du        
  16497 ****         4.2500  11.5000  20.7500 Du        
  16498 ****         4.2500  11.5000  21.0000 Du        
  16499 ****         4.2500  11.5000  21.2500 Du        
  16500 ****         4.2500  11.5000  21.5000 Du        
  16501 ****         4.2500  11.5000  33.2500 Du        
  16502 ****         4.2500  11.5000  33.5000 Du        
  16503 ****         4.2500  11.5000  33.7500 Du        
  16504 ****         4.2500  11.5000  34.0000 Du        
  16505 ****         4.2500  11.5000  34.2500 Du        
  16506 ****         4.2500  11.5000  34.5000 Du        
  16507 ****         4.2500  11.5000  34.7500 Du        
  16508 ****         4.2500  11.5000  35.0000 Du        
  16509 ****         4.2500  11.5000  35.2500 Du        
  16510 ****         4.2500  11.5000  35.5000 Du        
  16511 ****         4.2500  11.5000  35.7500 Du        
  16512 ****         4.2500  11.5000  36.0000 Du        
  16513 ****         4.2500  11.5000  36.2500 Du        
  16514 ****         4.2500  11.5000  36.5000 Du        
  16515 ****         4.2500  11.5000  36.7500 Du        
  16516 ****         4.2500  11.7500   9.2500 Du        
  16517 ****         4.2500  11.7500   9.5000 Du        
  16518 ****         4.2500  11.7500   9.7500 Du        
  16519 ****         4.2500  11.7500  10.0000 Du        
  16520 ****         4.2500  11.7500  10.2500 Du        
  16521 ****         4.2500  11.7500  10.5000 Du        
  16522 ****         4.2500  11.7500  10.7500 Du        
  16523 ****         4.2500  11.7500  11.0000 Du        
  16524 ****         4.2500  11.7500  11.2500 Du        
  16525 ****         4.2500  11.7500  11.5000 Du        
  16526 ****         4.2500  11.7500  11.7500 Du        
  16527 ****         4.2500  11.7500  18.7500 Du        
  16528 ****         4.2500  11.7500  19.0000 Du        
  16529 ****         4.2500  11.7500  19.2500 Du        
  16530 ****         4.2500  11.7500  19.5000 Du        
  16531 ****         4.2500  11.7500  19.7500 Du        
  16532 ****         4.2500  11.7500  20.0000 Du        
  16533 ****         4.2500  11.7500  20.2500 Du        
  16534 ****         4.2500  11.7500  20.5000 Du        
  16535 ****         4.2500  11.7500  20.7500 Du        
  16536 ****         4.2500  11.7500  21.0000 Du        
  16537 ****         4.2500  11.7500  21.2500 Du        
  16538 ****         4.2500  11.7500  21.5000 Du        
  16539 ****         4.2500  11.7500  21.7500 Du        
  16540 ****         4.2500  11.7500  33.5000 Du        
  16541 ****         4.2500  11.7500  33.7500 Du        
  16542 ****         4.2500  11.7500  34.0000 Du        
  16543 ****         4.2500  11.7500  34.2500 Du        
  16544 ****         4.2500  11.7500  34.5000 Du        
  16545 ****         4.2500  11.7500  34.7500 Du        
  16546 ****         4.2500  11.7500  35.0000 Du        
  16547 ****         4.2500  11.7500  35.2500 Du        
  16548 ****         4.2500  11.7500  35.5000 Du        
  16549 ****         4.2500  11.7500  35.7500 Du        
  16550 ****         4.2500  11.7500  36.0000 Du        
  16551 ****         4.2500  11.7500  36.2500 Du        
  16552 ****         4.2500  11.7500  36.5000 Du        
  16553 ****         4.2500  11.7500  36.7500 Du        
  16554 ****         4.2500  12.0000   9.7500 Du        
  16555 ****         4.2500  12.0000  10.0000 Du        
  16556 ****         4.2500  12.0000  10.2500 Du        
  16557 ****         4.2500  12.0000  18.7500 Du        
  16558 ****         4.2500  12.0000  19.0000 Du        
  16559 ****         4.2500  12.0000  19.2500 Du        
  16560 ****         4.2500  12.0000  19.5000 Du        
  16561 ****         4.2500  12.0000  19.7500 Du        
  16562 ****         4.2500  12.0000  20.0000 Du        
  16563 ****         4.2500  12.0000  20.2500 Du        
  16564 ****         4.2500  12.0000  20.5000 Du        
  16565 ****         4.2500  12.0000  20.7500 Du        
  16566 ****         4.2500  12.0000  21.0000 Du        
  16567 ****         4.2500  12.0000  21.2500 Du        
  16568 ****         4.2500  12.0000  21.5000 Du        
  16569 ****         4.2500  12.0000  21.7500 Du        
  16570 ****         4.2500  12.0000  33.7500 Du        
  16571 ****         4.2500  12.0000  34.0000 Du        
  16572 ****         4.2500  12.0000  34.2500 Du        
  16573 ****         4.2500  12.0000  34.5000 Du        
  16574 ****         4.2500  12.0000  34.7500 Du        
  16575 ****         4.2500  12.0000  35.0000 Du        
  16576 ****         4.2500  12.0000  35.2500 Du        
  16577 ****         4.2500  12.0000  35.5000 Du        
  16578 ****         4.2500  12.0000  35.7500 Du        
  16579 ****         4.2500  12.0000  36.0000 Du        
  16580 ****         4.2500  12.0000  36.2500 Du        
  16581 ****         4.2500  12.0000  36.5000 Du        
  16582 ****         4.2500  12.0000  36.7500 Du        
  16583 ****         4.2500  12.2500  18.7500 Du        
  16584 ****         4.2500  12.2500  19.0000 Du        
  16585 ****         4.2500  12.2500  19.2500 Du        
  16586 ****         4.2500  12.2500  19.5000 Du        
  16587 ****         4.2500  12.2500  19.7500 Du        
  16588 ****         4.2500  12.2500  20.0000 Du        
  16589 ****         4.2500  12.2500  20.2500 Du        
  16590 ****         4.2500  12.2500  20.5000 Du        
  16591 ****         4.2500  12.2500  20.7500 Du        
  16592 ****         4.2500  12.2500  21.0000 Du        
  16593 ****         4.2500  12.2500  21.2500 Du        
  16594 ****         4.2500  12.2500  21.5000 Du        
  16595 ****         4.2500  12.2500  21.7500 Du        
  16596 ****         4.2500  12.2500  34.0000 Du        
  16597 ****         4.2500  12.2500  34.2500 Du        
  16598 ****         4.2500  12.2500  34.5000 Du        
  16599 ****         4.2500  12.2500  34.7500 Du        
  16600 ****         4.2500  12.2500  35.0000 Du        
  16601 ****         4.2500  12.2500  35.2500 Du        
  16602 ****         4.2500  12.2500  35.5000 Du        
  16603 ****         4.2500  12.2500  35.7500 Du        
  16604 ****         4.2500  12.2500  36.0000 Du        
  16605 ****         4.2500  12.2500  36.2500 Du        
  16606 ****         4.2500  12.2500  36.5000 Du        
  16607 ****         4.2500  12.2500  36.7500 Du        
  16608 ****         4.2500  12.5000  18.7500 Du        
  16609 ****         4.2500  12.5000  19.0000 Du        
  16610 ****         4.2500  12.5000  19.2500 Du        
  16611 ****         4.2500  12.5000  19.5000 Du        
  16612 ****         4.2500  12.5000  19.7500 Du        
  16613 ****         4.2500  12.5000  20.0000 Du        
  16614 ****         4.2500  12.5000  20.2500 Du        
  16615 ****         4.2500  12.5000  20.5000 Du        
  16616 ****         4.2500  12.5000  20.7500 Du        
  16617 ****         4.2500  12.5000  21.0000 Du        
  16618 ****         4.2500  12.5000  21.2500 Du        
  16619 ****         4.2500  12.5000  21.5000 Du        
  16620 ****         4.2500  12.5000  21.7500 Du        
  16621 ****         4.2500  12.5000  22.0000 Du        
  16622 ****         4.2500  12.5000  34.0000 Du        
  16623 ****         4.2500  12.5000  34.2500 Du        
  16624 ****         4.2500  12.5000  34.5000 Du        
  16625 ****         4.2500  12.5000  34.7500 Du        
  16626 ****         4.2500  12.5000  35.0000 Du        
  16627 ****         4.2500  12.5000  35.2500 Du        
  16628 ****         4.2500  12.5000  35.5000 Du        
  16629 ****         4.2500  12.5000  35.7500 Du        
  16630 ****         4.2500  12.5000  36.0000 Du        
  16631 ****         4.2500  12.5000  36.2500 Du        
  16632 ****         4.2500  12.5000  36.5000 Du        
  16633 ****         4.2500  12.5000  36.7500 Du        
  16634 ****         4.2500  12.7500  18.7500 Du        
  16635 ****         4.2500  12.7500  19.0000 Du        
  16636 ****         4.2500  12.7500  19.2500 Du        
  16637 ****         4.2500  12.7500  19.5000 Du        
  16638 ****         4.2500  12.7500  19.7500 Du        
  16639 ****         4.2500  12.7500  20.0000 Du        
  16640 ****         4.2500  12.7500  20.2500 Du        
  16641 ****         4.2500  12.7500  20.5000 Du        
  16642 ****         4.2500  12.7500  20.7500 Du        
  16643 ****         4.2500  12.7500  21.0000 Du        
  16644 ****         4.2500  12.7500  21.2500 Du        
  16645 ****         4.2500  12.7500  21.5000 Du        
  16646 ****         4.2500  12.7500  21.7500 Du        
  16647 ****         4.2500  12.7500  22.0000 Du        
  16648 ****         4.2500  12.7500  34.2500 Du        
  16649 ****         4.2500  12.7500  34.5000 Du        
  16650 ****         4.2500  12.7500  34.7500 Du        
  16651 ****         4.2500  12.7500  35.0000 Du        
  16652 ****         4.2500  12.7500  35.2500 Du        
  16653 ****         4.2500  12.7500  35.5000 Du        
  16654 ****         4.2500  12.7500  35.7500 Du        
  16655 ****         4.2500  12.7500  36.0000 Du        
  16656 ****         4.2500  12.7500  36.2500 Du        
  16657 ****         4.2500  12.7500  36.5000 Du        
  16658 ****         4.2500  13.0000  19.0000 Du        
  16659 ****         4.2500  13.0000  19.2500 Du        
  16660 ****         4.2500  13.0000  19.5000 Du        
  16661 ****         4.2500  13.0000  19.7500 Du        
  16662 ****         4.2500  13.0000  20.0000 Du        
  16663 ****         4.2500  13.0000  20.2500 Du        
  16664 ****         4.2500  13.0000  20.5000 Du        
  16665 ****         4.2500  13.0000  20.7500 Du        
  16666 ****         4.2500  13.0000  21.0000 Du        
  16667 ****         4.2500  13.0000  21.2500 Du        
  16668 ****         4.2500  13.0000  21.5000 Du        
  16669 ****         4.2500  13.0000  21.7500 Du        
  16670 ****         4.2500  13.0000  22.0000 Du        
  16671 ****         4.2500  13.0000  34.7500 Du        
  16672 ****         4.2500  13.0000  35.0000 Du        
  16673 ****         4.2500  13.0000  35.2500 Du        
  16674 ****         4.2500  13.2500  19.0000 Du        
  16675 ****         4.2500  13.2500  19.2500 Du        
  16676 ****         4.2500  13.2500  19.5000 Du        
  16677 ****         4.2500  13.2500  19.7500 Du        
  16678 ****         4.2500  13.2500  20.0000 Du        
  16679 ****         4.2500  13.2500  20.2500 Du        
  16680 ****         4.2500  13.2500  20.5000 Du        
  16681 ****         4.2500  13.2500  20.7500 Du        
  16682 ****         4.2500  13.2500  21.0000 Du        
  16683 ****         4.2500  13.2500  21.2500 Du        
  16684 ****         4.2500  13.2500  21.5000 Du        
  16685 ****         4.2500  13.2500  21.7500 Du        
  16686 ****         4.2500  13.2500  22.0000 Du        
  16687 ****         4.2500  13.5000  19.0000 Du        
  16688 ****         4.2500  13.5000  19.2500 Du        
  16689 ****         4.2500  13.5000  19.5000 Du        
  16690 ****         4.2500  13.5000  19.7500 Du        
  16691 ****         4.2500  13.5000  20.0000 Du        
  16692 ****         4.2500  13.5000  20.2500 Du        
  16693 ****         4.2500  13.5000  20.5000 Du        
  16694 ****         4.2500  13.5000  20.7500 Du        
  16695 ****         4.2500  13.7500  19.0000 Du        
  16696 ****         4.2500  13.7500  19.2500 Du        
  16697 ****         4.2500  13.7500  19.5000 Du        
  16698 ****         4.2500  13.7500  19.7500 Du        
  16699 ****         4.2500  14.0000  19.0000 Du        
  16700 ****         4.2500  14.0000  19.2500 Du        
  16701 ****         4.2500  15.5000  -4.5000 Du        
  16702 ****         4.5000   2.0000  27.7500 Du        
  16703 ****         4.5000   2.0000  28.0000 Du        
  16704 ****         4.5000   2.2500  27.7500 Du        
  16705 ****         4.5000   2.2500  28.0000 Du        
  16706 ****         4.5000   2.2500  28.2500 Du        
  16707 ****         4.5000   2.5000  27.7500 Du        
  16708 ****         4.5000   2.5000  28.0000 Du        
  16709 ****         4.5000   2.5000  28.2500 Du        
  16710 ****         4.5000   2.5000  28.5000 Du        
  16711 ****         4.5000   2.7500  28.0000 Du        
  16712 ****         4.5000   2.7500  28.2500 Du        
  16713 ****         4.5000   2.7500  28.5000 Du        
  16714 ****         4.5000   3.0000  28.0000 Du        
  16715 ****         4.5000   3.0000  28.2500 Du        
  16716 ****         4.5000   3.0000  28.5000 Du        
  16717 ****         4.5000   3.0000  28.7500 Du        
  16718 ****         4.5000   3.2500  28.0000 Du        
  16719 ****         4.5000   3.2500  28.2500 Du        
  16720 ****         4.5000   3.2500  28.5000 Du        
  16721 ****         4.5000   3.2500  28.7500 Du        
  16722 ****         4.5000   3.2500  29.0000 Du        
  16723 ****         4.5000   3.5000  28.5000 Du        
  16724 ****         4.5000   3.5000  28.7500 Du        
  16725 ****         4.5000   3.5000  29.0000 Du        
  16726 ****         4.5000   4.2500  31.5000 Du        
  16727 ****         4.5000   4.2500  31.7500 Du        
  16728 ****         4.5000   4.2500  32.0000 Du        
  16729 ****         4.5000   4.2500  32.2500 Du        
  16730 ****         4.5000   4.2500  32.5000 Du        
  16731 ****         4.5000   4.2500  32.7500 Du        
  16732 ****         4.5000   4.2500  33.0000 Du        
  16733 ****         4.5000   4.2500  33.2500 Du        
  16734 ****         4.5000   4.2500  33.5000 Du        
  16735 ****         4.5000   4.2500  33.7500 Du        
  16736 ****         4.5000   4.2500  34.0000 Du        
  16737 ****         4.5000   4.2500  34.2500 Du        
  16738 ****         4.5000   4.5000  31.5000 Du        
  16739 ****         4.5000   4.5000  31.7500 Du        
  16740 ****         4.5000   4.5000  32.0000 Du        
  16741 ****         4.5000   4.5000  32.2500 Du        
  16742 ****         4.5000   4.5000  32.5000 Du        
  16743 ****         4.5000   4.5000  32.7500 Du        
  16744 ****         4.5000   4.5000  33.0000 Du        
  16745 ****         4.5000   4.5000  33.2500 Du        
  16746 ****         4.5000   4.5000  33.5000 Du        
  16747 ****         4.5000   4.5000  33.7500 Du        
  16748 ****         4.5000   4.5000  34.0000 Du        
  16749 ****         4.5000   4.5000  34.2500 Du        
  16750 ****         4.5000   4.5000  34.5000 Du        
  16751 ****         4.5000   4.7500  31.5000 Du        
  16752 ****         4.5000   4.7500  31.7500 Du        
  16753 ****         4.5000   4.7500  32.0000 Du        
  16754 ****         4.5000   4.7500  32.2500 Du        
  16755 ****         4.5000   4.7500  32.5000 Du        
  16756 ****         4.5000   4.7500  32.7500 Du        
  16757 ****         4.5000   4.7500  33.0000 Du        
  16758 ****         4.5000   4.7500  33.2500 Du        
  16759 ****         4.5000   4.7500  33.5000 Du        
  16760 ****         4.5000   4.7500  33.7500 Du        
  16761 ****         4.5000   4.7500  34.0000 Du        
  16762 ****         4.5000   4.7500  34.2500 Du        
  16763 ****         4.5000   4.7500  34.5000 Du        
  16764 ****         4.5000   4.7500  34.7500 Du        
  16765 ****         4.5000   5.0000  31.7500 Du        
  16766 ****         4.5000   5.0000  32.0000 Du        
  16767 ****         4.5000   5.0000  32.2500 Du        
  16768 ****         4.5000   5.0000  32.5000 Du        
  16769 ****         4.5000   5.0000  32.7500 Du        
  16770 ****         4.5000   5.0000  33.0000 Du        
  16771 ****         4.5000   5.0000  33.2500 Du        
  16772 ****         4.5000   5.0000  33.5000 Du        
  16773 ****         4.5000   5.0000  33.7500 Du        
  16774 ****         4.5000   5.0000  34.0000 Du        
  16775 ****         4.5000   5.0000  34.2500 Du        
  16776 ****         4.5000   5.0000  34.5000 Du        
  16777 ****         4.5000   5.0000  34.7500 Du        
  16778 ****         4.5000   5.2500  31.7500 Du        
  16779 ****         4.5000   5.2500  32.0000 Du        
  16780 ****         4.5000   5.2500  32.2500 Du        
  16781 ****         4.5000   5.2500  32.5000 Du        
  16782 ****         4.5000   5.2500  32.7500 Du        
  16783 ****         4.5000   5.2500  33.0000 Du        
  16784 ****         4.5000   5.2500  33.2500 Du        
  16785 ****         4.5000   5.2500  33.5000 Du        
  16786 ****         4.5000   5.2500  33.7500 Du        
  16787 ****         4.5000   5.2500  34.0000 Du        
  16788 ****         4.5000   5.2500  34.2500 Du        
  16789 ****         4.5000   5.2500  34.5000 Du        
  16790 ****         4.5000   5.2500  34.7500 Du        
  16791 ****         4.5000   5.5000  32.2500 Du        
  16792 ****         4.5000   5.5000  32.5000 Du        
  16793 ****         4.5000   5.5000  32.7500 Du        
  16794 ****         4.5000   5.5000  33.0000 Du        
  16795 ****         4.5000   5.5000  33.2500 Du        
  16796 ****         4.5000   5.5000  33.5000 Du        
  16797 ****         4.5000   5.5000  33.7500 Du        
  16798 ****         4.5000   5.5000  34.0000 Du        
  16799 ****         4.5000   5.5000  34.2500 Du        
  16800 ****         4.5000   5.5000  34.5000 Du        
  16801 ****         4.5000   5.5000  34.7500 Du        
  16802 ****         4.5000   5.7500  32.5000 Du        
  16803 ****         4.5000   5.7500  32.7500 Du        
  16804 ****         4.5000   5.7500  33.0000 Du        
  16805 ****         4.5000   5.7500  33.2500 Du        
  16806 ****         4.5000   5.7500  33.5000 Du        
  16807 ****         4.5000   5.7500  33.7500 Du        
  16808 ****         4.5000   5.7500  34.0000 Du        
  16809 ****         4.5000   5.7500  34.2500 Du        
  16810 ****         4.5000   5.7500  34.5000 Du        
  16811 ****         4.5000   5.7500  34.7500 Du        
  16812 ****         4.5000   6.0000  32.5000 Du        
  16813 ****         4.5000   6.0000  32.7500 Du        
  16814 ****         4.5000   6.0000  33.0000 Du        
  16815 ****         4.5000   6.0000  33.2500 Du        
  16816 ****         4.5000   6.0000  33.5000 Du        
  16817 ****         4.5000   6.0000  33.7500 Du        
  16818 ****         4.5000   6.0000  34.0000 Du        
  16819 ****         4.5000   6.0000  34.2500 Du        
  16820 ****         4.5000   6.0000  34.5000 Du        
  16821 ****         4.5000   6.0000  34.7500 Du        
  16822 ****         4.5000   6.2500  32.5000 Du        
  16823 ****         4.5000   6.2500  32.7500 Du        
  16824 ****         4.5000   6.2500  33.0000 Du        
  16825 ****         4.5000   6.2500  33.2500 Du        
  16826 ****         4.5000   6.2500  33.5000 Du        
  16827 ****         4.5000   6.2500  33.7500 Du        
  16828 ****         4.5000   6.2500  34.0000 Du        
  16829 ****         4.5000   6.2500  34.2500 Du        
  16830 ****         4.5000   6.2500  34.5000 Du        
  16831 ****         4.5000   6.2500  34.7500 Du        
  16832 ****         4.5000   6.5000  32.7500 Du        
  16833 ****         4.5000   6.5000  33.0000 Du        
  16834 ****         4.5000   6.5000  33.2500 Du        
  16835 ****         4.5000   6.5000  33.5000 Du        
  16836 ****         4.5000   6.5000  33.7500 Du        
  16837 ****         4.5000   6.5000  34.0000 Du        
  16838 ****         4.5000   6.5000  34.2500 Du        
  16839 ****         4.5000   6.5000  34.5000 Du        
  16840 ****         4.5000   6.5000  34.7500 Du        
  16841 ****         4.5000   6.7500  33.0000 Du        
  16842 ****         4.5000   6.7500  33.2500 Du        
  16843 ****         4.5000   6.7500  33.5000 Du        
  16844 ****         4.5000   6.7500  33.7500 Du        
  16845 ****         4.5000   6.7500  34.0000 Du        
  16846 ****         4.5000   6.7500  34.2500 Du        
  16847 ****         4.5000   6.7500  34.5000 Du        
  16848 ****         4.5000   6.7500  34.7500 Du        
  16849 ****         4.5000   7.0000  33.2500 Du        
  16850 ****         4.5000   7.0000  33.5000 Du        
  16851 ****         4.5000   7.0000  33.7500 Du        
  16852 ****         4.5000   7.0000  34.0000 Du        
  16853 ****         4.5000   7.0000  34.2500 Du        
  16854 ****         4.5000   7.0000  34.5000 Du        
  16855 ****         4.5000   7.2500  33.5000 Du        
  16856 ****         4.5000   7.2500  33.7500 Du        
  16857 ****         4.5000   7.2500  34.0000 Du        
  16858 ****         4.5000   7.2500  34.2500 Du        
  16859 ****         4.5000   7.2500  34.5000 Du        
  16860 ****         4.5000   7.5000  34.5000 Du        
  16861 ****         4.5000   7.7500  34.5000 Du        
  16862 ****         4.5000  10.5000  32.5000 Du        
  16863 ****         4.5000  10.5000  32.7500 Du        
  16864 ****         4.5000  10.5000  33.0000 Du        
  16865 ****         4.5000  10.7500  11.7500 Du        
  16866 ****         4.5000  10.7500  20.2500 Du        
  16867 ****         4.5000  10.7500  20.5000 Du        
  16868 ****         4.5000  10.7500  20.7500 Du        
  16869 ****         4.5000  10.7500  21.0000 Du        
  16870 ****         4.5000  10.7500  32.5000 Du        
  16871 ****         4.5000  10.7500  32.7500 Du        
  16872 ****         4.5000  10.7500  33.0000 Du        
  16873 ****         4.5000  10.7500  35.5000 Du        
  16874 ****         4.5000  11.0000  11.5000 Du        
  16875 ****         4.5000  11.0000  11.7500 Du        
  16876 ****         4.5000  11.0000  12.0000 Du        
  16877 ****         4.5000  11.0000  19.2500 Du        
  16878 ****         4.5000  11.0000  20.0000 Du        
  16879 ****         4.5000  11.0000  20.2500 Du        
  16880 ****         4.5000  11.0000  20.5000 Du        
  16881 ****         4.5000  11.0000  20.7500 Du        
  16882 ****         4.5000  11.0000  21.0000 Du        
  16883 ****         4.5000  11.0000  21.2500 Du        
  16884 ****         4.5000  11.0000  32.7500 Du        
  16885 ****         4.5000  11.0000  33.0000 Du        
  16886 ****         4.5000  11.0000  33.2500 Du        
  16887 ****         4.5000  11.0000  33.7500 Du        
  16888 ****         4.5000  11.0000  34.0000 Du        
  16889 ****         4.5000  11.0000  35.0000 Du        
  16890 ****         4.5000  11.0000  35.2500 Du        
  16891 ****         4.5000  11.0000  35.7500 Du        
  16892 ****         4.5000  11.0000  36.0000 Du        
  16893 ****         4.5000  11.2500   9.5000 Du        
  16894 ****         4.5000  11.2500   9.7500 Du        
  16895 ****         4.5000  11.2500  10.0000 Du        
  16896 ****         4.5000  11.2500  10.2500 Du        
  16897 ****         4.5000  11.2500  10.5000 Du        
  16898 ****         4.5000  11.2500  10.7500 Du        
  16899 ****         4.5000  11.2500  11.0000 Du        
  16900 ****         4.5000  11.2500  11.2500 Du        
  16901 ****         4.5000  11.2500  11.5000 Du        
  16902 ****         4.5000  11.2500  11.7500 Du        
  16903 ****         4.5000  11.2500  12.0000 Du        
  16904 ****         4.5000  11.2500  19.0000 Du        
  16905 ****         4.5000  11.2500  19.2500 Du        
  16906 ****         4.5000  11.2500  19.7500 Du        
  16907 ****         4.5000  11.2500  20.0000 Du        
  16908 ****         4.5000  11.2500  20.2500 Du        
  16909 ****         4.5000  11.2500  20.5000 Du        
  16910 ****         4.5000  11.2500  20.7500 Du        
  16911 ****         4.5000  11.2500  21.0000 Du        
  16912 ****         4.5000  11.2500  21.2500 Du        
  16913 ****         4.5000  11.2500  32.7500 Du        
  16914 ****         4.5000  11.2500  33.0000 Du        
  16915 ****         4.5000  11.2500  33.2500 Du        
  16916 ****         4.5000  11.2500  33.5000 Du        
  16917 ****         4.5000  11.2500  33.7500 Du        
  16918 ****         4.5000  11.2500  34.0000 Du        
  16919 ****         4.5000  11.2500  34.2500 Du        
  16920 ****         4.5000  11.2500  35.0000 Du        
  16921 ****         4.5000  11.2500  35.2500 Du        
  16922 ****         4.5000  11.2500  35.5000 Du        
  16923 ****         4.5000  11.2500  35.7500 Du        
  16924 ****         4.5000  11.2500  36.0000 Du        
  16925 ****         4.5000  11.2500  36.2500 Du        
  16926 ****         4.5000  11.5000   9.5000 Du        
  16927 ****         4.5000  11.5000   9.7500 Du        
  16928 ****         4.5000  11.5000  10.0000 Du        
  16929 ****         4.5000  11.5000  10.2500 Du        
  16930 ****         4.5000  11.5000  10.5000 Du        
  16931 ****         4.5000  11.5000  10.7500 Du        
  16932 ****         4.5000  11.5000  11.0000 Du        
  16933 ****         4.5000  11.5000  11.2500 Du        
  16934 ****         4.5000  11.5000  11.5000 Du        
  16935 ****         4.5000  11.5000  11.7500 Du        
  16936 ****         4.5000  11.5000  12.0000 Du        
  16937 ****         4.5000  11.5000  12.2500 Du        
  16938 ****         4.5000  11.5000  18.7500 Du        
  16939 ****         4.5000  11.5000  19.0000 Du        
  16940 ****         4.5000  11.5000  19.2500 Du        
  16941 ****         4.5000  11.5000  19.5000 Du        
  16942 ****         4.5000  11.5000  19.7500 Du        
  16943 ****         4.5000  11.5000  20.0000 Du        
  16944 ****         4.5000  11.5000  20.2500 Du        
  16945 ****         4.5000  11.5000  20.5000 Du        
  16946 ****         4.5000  11.5000  20.7500 Du        
  16947 ****         4.5000  11.5000  21.0000 Du        
  16948 ****         4.5000  11.5000  21.2500 Du        
  16949 ****         4.5000  11.5000  21.5000 Du        
  16950 ****         4.5000  11.5000  33.0000 Du        
  16951 ****         4.5000  11.5000  33.2500 Du        
  16952 ****         4.5000  11.5000  33.5000 Du        
  16953 ****         4.5000  11.5000  33.7500 Du        
  16954 ****         4.5000  11.5000  34.0000 Du        
  16955 ****         4.5000  11.5000  34.2500 Du        
  16956 ****         4.5000  11.5000  34.5000 Du        
  16957 ****         4.5000  11.5000  34.7500 Du        
  16958 ****         4.5000  11.5000  35.0000 Du        
  16959 ****         4.5000  11.5000  35.2500 Du        
  16960 ****         4.5000  11.5000  35.5000 Du        
  16961 ****         4.5000  11.5000  35.7500 Du        
  16962 ****         4.5000  11.5000  36.0000 Du        
  16963 ****         4.5000  11.5000  36.2500 Du        
  16964 ****         4.5000  11.5000  36.5000 Du        
  16965 ****         4.5000  11.7500   9.5000 Du        
  16966 ****         4.5000  11.7500   9.7500 Du        
  16967 ****         4.5000  11.7500  10.0000 Du        
  16968 ****         4.5000  11.7500  10.2500 Du        
  16969 ****         4.5000  11.7500  10.5000 Du        
  16970 ****         4.5000  11.7500  10.7500 Du        
  16971 ****         4.5000  11.7500  11.0000 Du        
  16972 ****         4.5000  11.7500  11.2500 Du        
  16973 ****         4.5000  11.7500  11.5000 Du        
  16974 ****         4.5000  11.7500  11.7500 Du        
  16975 ****         4.5000  11.7500  12.0000 Du        
  16976 ****         4.5000  11.7500  19.0000 Du        
  16977 ****         4.5000  11.7500  19.2500 Du        
  16978 ****         4.5000  11.7500  19.5000 Du        
  16979 ****         4.5000  11.7500  19.7500 Du        
  16980 ****         4.5000  11.7500  20.0000 Du        
  16981 ****         4.5000  11.7500  20.2500 Du        
  16982 ****         4.5000  11.7500  20.5000 Du        
  16983 ****         4.5000  11.7500  20.7500 Du        
  16984 ****         4.5000  11.7500  21.0000 Du        
  16985 ****         4.5000  11.7500  21.2500 Du        
  16986 ****         4.5000  11.7500  21.5000 Du        
  16987 ****         4.5000  11.7500  33.5000 Du        
  16988 ****         4.5000  11.7500  33.7500 Du        
  16989 ****         4.5000  11.7500  34.0000 Du        
  16990 ****         4.5000  11.7500  34.2500 Du        
  16991 ****         4.5000  11.7500  34.5000 Du        
  16992 ****         4.5000  11.7500  34.7500 Du        
  16993 ****         4.5000  11.7500  35.0000 Du        
  16994 ****         4.5000  11.7500  35.2500 Du        
  16995 ****         4.5000  11.7500  35.5000 Du        
  16996 ****         4.5000  11.7500  35.7500 Du        
  16997 ****         4.5000  11.7500  36.0000 Du        
  16998 ****         4.5000  11.7500  36.2500 Du        
  16999 ****         4.5000  11.7500  36.5000 Du        
  17000 ****         4.5000  11.7500  36.7500 Du        
  17001 ****         4.5000  12.0000   9.7500 Du        
  17002 ****         4.5000  12.0000  10.0000 Du        
  17003 ****         4.5000  12.0000  10.2500 Du        
  17004 ****         4.5000  12.0000  10.5000 Du        
  17005 ****         4.5000  12.0000  10.7500 Du        
  17006 ****         4.5000  12.0000  11.0000 Du        
  17007 ****         4.5000  12.0000  11.2500 Du        
  17008 ****         4.5000  12.0000  11.5000 Du        
  17009 ****         4.5000  12.0000  11.7500 Du        
  17010 ****         4.5000  12.0000  12.0000 Du        
  17011 ****         4.5000  12.0000  19.0000 Du        
  17012 ****         4.5000  12.0000  19.2500 Du        
  17013 ****         4.5000  12.0000  19.5000 Du        
  17014 ****         4.5000  12.0000  19.7500 Du        
  17015 ****         4.5000  12.0000  20.0000 Du        
  17016 ****         4.5000  12.0000  20.2500 Du        
  17017 ****         4.5000  12.0000  20.5000 Du        
  17018 ****         4.5000  12.0000  20.7500 Du        
  17019 ****         4.5000  12.0000  21.0000 Du        
  17020 ****         4.5000  12.0000  21.2500 Du        
  17021 ****         4.5000  12.0000  21.5000 Du        
  17022 ****         4.5000  12.0000  21.7500 Du        
  17023 ****         4.5000  12.0000  33.7500 Du        
  17024 ****         4.5000  12.0000  34.0000 Du        
  17025 ****         4.5000  12.0000  34.2500 Du        
  17026 ****         4.5000  12.0000  34.5000 Du        
  17027 ****         4.5000  12.0000  34.7500 Du        
  17028 ****         4.5000  12.0000  35.0000 Du        
  17029 ****         4.5000  12.0000  35.2500 Du        
  17030 ****         4.5000  12.0000  35.5000 Du        
  17031 ****         4.5000  12.0000  35.7500 Du        
  17032 ****         4.5000  12.0000  36.0000 Du        
  17033 ****         4.5000  12.0000  36.2500 Du        
  17034 ****         4.5000  12.0000  36.5000 Du        
  17035 ****         4.5000  12.0000  36.7500 Du        
  17036 ****         4.5000  12.2500  19.0000 Du        
  17037 ****         4.5000  12.2500  19.2500 Du        
  17038 ****         4.5000  12.2500  19.5000 Du        
  17039 ****         4.5000  12.2500  19.7500 Du        
  17040 ****         4.5000  12.2500  20.0000 Du        
  17041 ****         4.5000  12.2500  20.2500 Du        
  17042 ****         4.5000  12.2500  20.5000 Du        
  17043 ****         4.5000  12.2500  20.7500 Du        
  17044 ****         4.5000  12.2500  21.0000 Du        
  17045 ****         4.5000  12.2500  21.2500 Du        
  17046 ****         4.5000  12.2500  21.5000 Du        
  17047 ****         4.5000  12.2500  21.7500 Du        
  17048 ****         4.5000  12.2500  34.0000 Du        
  17049 ****         4.5000  12.2500  34.2500 Du        
  17050 ****         4.5000  12.2500  34.5000 Du        
  17051 ****         4.5000  12.2500  34.7500 Du        
  17052 ****         4.5000  12.2500  35.0000 Du        
  17053 ****         4.5000  12.2500  35.2500 Du        
  17054 ****         4.5000  12.2500  35.5000 Du        
  17055 ****         4.5000  12.2500  35.7500 Du        
  17056 ****         4.5000  12.2500  36.0000 Du        
  17057 ****         4.5000  12.2500  36.2500 Du        
  17058 ****         4.5000  12.2500  36.5000 Du        
  17059 ****         4.5000  12.2500  36.7500 Du        
  17060 ****         4.5000  12.5000  19.0000 Du        
  17061 ****         4.5000  12.5000  19.2500 Du        
  17062 ****         4.5000  12.5000  19.5000 Du        
  17063 ****         4.5000  12.5000  19.7500 Du        
  17064 ****         4.5000  12.5000  20.0000 Du        
  17065 ****         4.5000  12.5000  20.2500 Du        
  17066 ****         4.5000  12.5000  20.5000 Du        
  17067 ****         4.5000  12.5000  20.7500 Du        
  17068 ****         4.5000  12.5000  21.0000 Du        
  17069 ****         4.5000  12.5000  21.2500 Du        
  17070 ****         4.5000  12.5000  21.5000 Du        
  17071 ****         4.5000  12.5000  21.7500 Du        
  17072 ****         4.5000  12.5000  34.2500 Du        
  17073 ****         4.5000  12.5000  34.5000 Du        
  17074 ****         4.5000  12.5000  34.7500 Du        
  17075 ****         4.5000  12.5000  35.0000 Du        
  17076 ****         4.5000  12.5000  35.2500 Du        
  17077 ****         4.5000  12.5000  35.5000 Du        
  17078 ****         4.5000  12.5000  35.7500 Du        
  17079 ****         4.5000  12.5000  36.0000 Du        
  17080 ****         4.5000  12.5000  36.2500 Du        
  17081 ****         4.5000  12.5000  36.5000 Du        
  17082 ****         4.5000  12.5000  36.7500 Du        
  17083 ****         4.5000  12.7500  19.0000 Du        
  17084 ****         4.5000  12.7500  19.2500 Du        
  17085 ****         4.5000  12.7500  19.5000 Du        
  17086 ****         4.5000  12.7500  19.7500 Du        
  17087 ****         4.5000  12.7500  20.0000 Du        
  17088 ****         4.5000  12.7500  20.2500 Du        
  17089 ****         4.5000  12.7500  20.5000 Du        
  17090 ****         4.5000  12.7500  20.7500 Du        
  17091 ****         4.5000  12.7500  21.0000 Du        
  17092 ****         4.5000  12.7500  21.2500 Du        
  17093 ****         4.5000  12.7500  21.5000 Du        
  17094 ****         4.5000  12.7500  21.7500 Du        
  17095 ****         4.5000  12.7500  22.0000 Du        
  17096 ****         4.5000  12.7500  34.2500 Du        
  17097 ****         4.5000  12.7500  34.5000 Du        
  17098 ****         4.5000  12.7500  34.7500 Du        
  17099 ****         4.5000  12.7500  35.0000 Du        
  17100 ****         4.5000  12.7500  35.2500 Du        
  17101 ****         4.5000  12.7500  35.5000 Du        
  17102 ****         4.5000  12.7500  35.7500 Du        
  17103 ****         4.5000  12.7500  36.0000 Du        
  17104 ****         4.5000  12.7500  36.2500 Du        
  17105 ****         4.5000  12.7500  36.5000 Du        
  17106 ****         4.5000  13.0000  19.0000 Du        
  17107 ****         4.5000  13.0000  19.2500 Du        
  17108 ****         4.5000  13.0000  19.5000 Du        
  17109 ****         4.5000  13.0000  19.7500 Du        
  17110 ****         4.5000  13.0000  20.0000 Du        
  17111 ****         4.5000  13.0000  20.2500 Du        
  17112 ****         4.5000  13.0000  20.5000 Du        
  17113 ****         4.5000  13.0000  20.7500 Du        
  17114 ****         4.5000  13.0000  21.0000 Du        
  17115 ****         4.5000  13.0000  21.2500 Du        
  17116 ****         4.5000  13.0000  21.5000 Du        
  17117 ****         4.5000  13.0000  21.7500 Du        
  17118 ****         4.5000  13.0000  22.0000 Du        
  17119 ****         4.5000  13.0000  34.7500 Du        
  17120 ****         4.5000  13.0000  35.0000 Du        
  17121 ****         4.5000  13.0000  35.2500 Du        
  17122 ****         4.5000  13.2500  19.0000 Du        
  17123 ****         4.5000  13.2500  19.2500 Du        
  17124 ****         4.5000  13.2500  19.5000 Du        
  17125 ****         4.5000  13.2500  19.7500 Du        
  17126 ****         4.5000  13.2500  20.0000 Du        
  17127 ****         4.5000  13.2500  20.2500 Du        
  17128 ****         4.5000  13.2500  20.5000 Du        
  17129 ****         4.5000  13.2500  20.7500 Du        
  17130 ****         4.5000  13.2500  21.0000 Du        
  17131 ****         4.5000  13.2500  21.2500 Du        
  17132 ****         4.5000  13.2500  21.5000 Du        
  17133 ****         4.5000  13.2500  21.7500 Du        
  17134 ****         4.5000  13.2500  22.0000 Du        
  17135 ****         4.5000  13.5000  19.0000 Du        
  17136 ****         4.5000  13.5000  19.2500 Du        
  17137 ****         4.5000  13.5000  19.5000 Du        
  17138 ****         4.5000  13.5000  19.7500 Du        
  17139 ****         4.5000  13.5000  20.0000 Du        
  17140 ****         4.5000  13.5000  20.2500 Du        
  17141 ****         4.5000  13.5000  20.5000 Du        
  17142 ****         4.5000  13.5000  20.7500 Du        
  17143 ****         4.5000  13.5000  21.0000 Du        
  17144 ****         4.5000  13.5000  21.2500 Du        
  17145 ****         4.5000  13.5000  21.5000 Du        
  17146 ****         4.5000  13.5000  21.7500 Du        
  17147 ****         4.5000  13.7500  19.0000 Du        
  17148 ****         4.5000  13.7500  19.2500 Du        
  17149 ****         4.5000  13.7500  19.5000 Du        
  17150 ****         4.5000  13.7500  19.7500 Du        
  17151 ****         4.5000  13.7500  20.0000 Du        
  17152 ****         4.5000  13.7500  20.2500 Du        
  17153 ****         4.5000  14.0000  19.0000 Du        
  17154 ****         4.5000  14.0000  19.2500 Du        
  17155 ****         4.5000  14.0000  19.5000 Du        
  17156 ****         4.7500   1.7500  27.7500 Du        
  17157 ****         4.7500   1.7500  28.0000 Du        
  17158 ****         4.7500   2.0000  27.7500 Du        
  17159 ****         4.7500   2.0000  28.0000 Du        
  17160 ****         4.7500   2.0000  28.2500 Du        
  17161 ****         4.7500   2.2500  27.5000 Du        
  17162 ****         4.7500   2.2500  27.7500 Du        
  17163 ****         4.7500   2.2500  28.0000 Du        
  17164 ****         4.7500   2.2500  28.2500 Du        
  17165 ****         4.7500   2.5000  27.5000 Du        
  17166 ****         4.7500   2.5000  27.7500 Du        
  17167 ****         4.7500   2.5000  28.0000 Du        
  17168 ****         4.7500   2.5000  28.2500 Du        
  17169 ****         4.7500   2.5000  28.5000 Du        
  17170 ****         4.7500   2.7500  27.5000 Du        
  17171 ****         4.7500   2.7500  27.7500 Du        
  17172 ****         4.7500   2.7500  28.0000 Du        
  17173 ****         4.7500   2.7500  28.2500 Du        
  17174 ****         4.7500   2.7500  28.5000 Du        
  17175 ****         4.7500   2.7500  28.7500 Du        
  17176 ****         4.7500   3.0000  27.7500 Du        
  17177 ****         4.7500   3.0000  28.0000 Du        
  17178 ****         4.7500   3.0000  28.2500 Du        
  17179 ****         4.7500   3.0000  28.5000 Du        
  17180 ****         4.7500   3.0000  28.7500 Du        
  17181 ****         4.7500   3.2500  27.5000 Du        
  17182 ****         4.7500   3.2500  27.7500 Du        
  17183 ****         4.7500   3.2500  28.0000 Du        
  17184 ****         4.7500   3.2500  28.2500 Du        
  17185 ****         4.7500   3.2500  28.5000 Du        
  17186 ****         4.7500   3.2500  28.7500 Du        
  17187 ****         4.7500   3.2500  29.0000 Du        
  17188 ****         4.7500   3.5000  27.7500 Du        
  17189 ****         4.7500   3.5000  28.0000 Du        
  17190 ****         4.7500   3.5000  28.2500 Du        
  17191 ****         4.7500   3.5000  28.5000 Du        
  17192 ****         4.7500   3.5000  28.7500 Du        
  17193 ****         4.7500   4.2500  31.5000 Du        
  17194 ****         4.7500   4.2500  31.7500 Du        
  17195 ****         4.7500   4.2500  32.0000 Du        
  17196 ****         4.7500   4.2500  32.2500 Du        
  17197 ****         4.7500   4.2500  32.5000 Du        
  17198 ****         4.7500   4.2500  32.7500 Du        
  17199 ****         4.7500   4.2500  33.0000 Du        
  17200 ****         4.7500   4.2500  33.2500 Du        
  17201 ****         4.7500   4.2500  33.5000 Du        
  17202 ****         4.7500   4.5000  31.7500 Du        
  17203 ****         4.7500   4.5000  32.0000 Du        
  17204 ****         4.7500   4.5000  32.2500 Du        
  17205 ****         4.7500   4.5000  32.5000 Du        
  17206 ****         4.7500   4.5000  32.7500 Du        
  17207 ****         4.7500   4.5000  33.0000 Du        
  17208 ****         4.7500   4.5000  33.2500 Du        
  17209 ****         4.7500   4.5000  33.5000 Du        
  17210 ****         4.7500   4.5000  33.7500 Du        
  17211 ****         4.7500   4.5000  34.0000 Du        
  17212 ****         4.7500   4.5000  34.2500 Du        
  17213 ****         4.7500   4.7500  31.7500 Du        
  17214 ****         4.7500   4.7500  32.0000 Du        
  17215 ****         4.7500   4.7500  32.2500 Du        
  17216 ****         4.7500   4.7500  32.5000 Du        
  17217 ****         4.7500   4.7500  32.7500 Du        
  17218 ****         4.7500   4.7500  33.0000 Du        
  17219 ****         4.7500   4.7500  33.2500 Du        
  17220 ****         4.7500   4.7500  33.5000 Du        
  17221 ****         4.7500   4.7500  33.7500 Du        
  17222 ****         4.7500   4.7500  34.0000 Du        
  17223 ****         4.7500   4.7500  34.2500 Du        
  17224 ****         4.7500   4.7500  34.5000 Du        
  17225 ****         4.7500   5.0000  31.7500 Du        
  17226 ****         4.7500   5.0000  32.0000 Du        
  17227 ****         4.7500   5.0000  32.2500 Du        
  17228 ****         4.7500   5.0000  32.5000 Du        
  17229 ****         4.7500   5.0000  32.7500 Du        
  17230 ****         4.7500   5.0000  33.0000 Du        
  17231 ****         4.7500   5.0000  33.2500 Du        
  17232 ****         4.7500   5.0000  33.5000 Du        
  17233 ****         4.7500   5.0000  33.7500 Du        
  17234 ****         4.7500   5.0000  34.0000 Du        
  17235 ****         4.7500   5.0000  34.2500 Du        
  17236 ****         4.7500   5.0000  34.5000 Du        
  17237 ****         4.7500   5.2500  32.0000 Du        
  17238 ****         4.7500   5.2500  32.2500 Du        
  17239 ****         4.7500   5.2500  32.5000 Du        
  17240 ****         4.7500   5.2500  32.7500 Du        
  17241 ****         4.7500   5.2500  33.0000 Du        
  17242 ****         4.7500   5.2500  33.2500 Du        
  17243 ****         4.7500   5.2500  33.5000 Du        
  17244 ****         4.7500   5.2500  33.7500 Du        
  17245 ****         4.7500   5.2500  34.0000 Du        
  17246 ****         4.7500   5.2500  34.2500 Du        
  17247 ****         4.7500   5.2500  34.5000 Du        
  17248 ****         4.7500   5.5000  32.5000 Du        
  17249 ****         4.7500   5.5000  32.7500 Du        
  17250 ****         4.7500   5.5000  33.0000 Du        
  17251 ****         4.7500   5.5000  33.2500 Du        
  17252 ****         4.7500   5.5000  33.5000 Du        
  17253 ****         4.7500   5.5000  33.7500 Du        
  17254 ****         4.7500   5.5000  34.0000 Du        
  17255 ****         4.7500   5.5000  34.2500 Du        
  17256 ****         4.7500   5.5000  34.5000 Du        
  17257 ****         4.7500   5.7500  32.5000 Du        
  17258 ****         4.7500   5.7500  32.7500 Du        
  17259 ****         4.7500   5.7500  33.0000 Du        
  17260 ****         4.7500   5.7500  33.2500 Du        
  17261 ****         4.7500   5.7500  33.5000 Du        
  17262 ****         4.7500   5.7500  33.7500 Du        
  17263 ****         4.7500   5.7500  34.0000 Du        
  17264 ****         4.7500   5.7500  34.2500 Du        
  17265 ****         4.7500   5.7500  34.5000 Du        
  17266 ****         4.7500   6.0000  32.5000 Du        
  17267 ****         4.7500   6.0000  32.7500 Du        
  17268 ****         4.7500   6.0000  33.0000 Du        
  17269 ****         4.7500   6.0000  33.2500 Du        
  17270 ****         4.7500   6.0000  33.5000 Du        
  17271 ****         4.7500   6.0000  33.7500 Du        
  17272 ****         4.7500   6.0000  34.0000 Du        
  17273 ****         4.7500   6.0000  34.2500 Du        
  17274 ****         4.7500   6.0000  34.5000 Du        
  17275 ****         4.7500   6.2500  32.7500 Du        
  17276 ****         4.7500   6.2500  33.0000 Du        
  17277 ****         4.7500   6.2500  33.2500 Du        
  17278 ****         4.7500   6.2500  33.5000 Du        
  17279 ****         4.7500   6.2500  33.7500 Du        
  17280 ****         4.7500   6.2500  34.0000 Du        
  17281 ****         4.7500   6.2500  34.2500 Du        
  17282 ****         4.7500   6.2500  34.5000 Du        
  17283 ****         4.7500   6.5000  33.0000 Du        
  17284 ****         4.7500   6.5000  33.2500 Du        
  17285 ****         4.7500   6.5000  33.5000 Du        
  17286 ****         4.7500   6.5000  33.7500 Du        
  17287 ****         4.7500   6.5000  34.0000 Du        
  17288 ****         4.7500   6.5000  34.2500 Du        
  17289 ****         4.7500   6.5000  34.5000 Du        
  17290 ****         4.7500   6.7500  33.0000 Du        
  17291 ****         4.7500   6.7500  33.2500 Du        
  17292 ****         4.7500   6.7500  33.5000 Du        
  17293 ****         4.7500   6.7500  33.7500 Du        
  17294 ****         4.7500   6.7500  34.0000 Du        
  17295 ****         4.7500   6.7500  34.2500 Du        
  17296 ****         4.7500   6.7500  34.5000 Du        
  17297 ****         4.7500   7.0000  33.0000 Du        
  17298 ****         4.7500   7.0000  33.2500 Du        
  17299 ****         4.7500   7.0000  33.5000 Du        
  17300 ****         4.7500   7.0000  33.7500 Du        
  17301 ****         4.7500   7.0000  34.0000 Du        
  17302 ****         4.7500   7.0000  34.2500 Du        
  17303 ****         4.7500   7.0000  34.5000 Du        
  17304 ****         4.7500   7.2500  33.2500 Du        
  17305 ****         4.7500   7.2500  33.5000 Du        
  17306 ****         4.7500   7.2500  33.7500 Du        
  17307 ****         4.7500   7.2500  34.0000 Du        
  17308 ****         4.7500   7.2500  34.2500 Du        
  17309 ****         4.7500   7.2500  34.5000 Du        
  17310 ****         4.7500   7.5000  33.7500 Du        
  17311 ****         4.7500   7.5000  34.0000 Du        
  17312 ****         4.7500   7.5000  34.2500 Du        
  17313 ****         4.7500   7.5000  34.5000 Du        
  17314 ****         4.7500   7.7500  33.7500 Du        
  17315 ****         4.7500   7.7500  34.0000 Du        
  17316 ****         4.7500   7.7500  34.2500 Du        
  17317 ****         4.7500   7.7500  34.5000 Du        
  17318 ****         4.7500   8.0000  34.2500 Du        
  17319 ****         4.7500   8.0000  34.5000 Du        
  17320 ****         4.7500   9.0000  35.0000 Du        
  17321 ****         4.7500  10.0000  31.7500 Du        
  17322 ****         4.7500  10.2500  31.7500 Du        
  17323 ****         4.7500  10.5000  31.7500 Du        
  17324 ****         4.7500  10.5000  32.0000 Du        
  17325 ****         4.7500  10.5000  32.2500 Du        
  17326 ****         4.7500  10.5000  32.5000 Du        
  17327 ****         4.7500  10.5000  32.7500 Du        
  17328 ****         4.7500  10.5000  33.0000 Du        
  17329 ****         4.7500  10.7500  11.7500 Du        
  17330 ****         4.7500  10.7500  12.0000 Du        
  17331 ****         4.7500  10.7500  20.5000 Du        
  17332 ****         4.7500  10.7500  20.7500 Du        
  17333 ****         4.7500  10.7500  21.0000 Du        
  17334 ****         4.7500  10.7500  21.2500 Du        
  17335 ****         4.7500  10.7500  32.5000 Du        
  17336 ****         4.7500  10.7500  32.7500 Du        
  17337 ****         4.7500  10.7500  33.0000 Du        
  17338 ****         4.7500  10.7500  33.2500 Du        
  17339 ****         4.7500  10.7500  35.7500 Du        
  17340 ****         4.7500  11.0000  11.2500 Du        
  17341 ****         4.7500  11.0000  11.5000 Du        
  17342 ****         4.7500  11.0000  11.7500 Du        
  17343 ****         4.7500  11.0000  12.0000 Du        
  17344 ****         4.7500  11.0000  12.2500 Du        
  17345 ****         4.7500  11.0000  20.5000 Du        
  17346 ****         4.7500  11.0000  20.7500 Du        
  17347 ****         4.7500  11.0000  21.0000 Du        
  17348 ****         4.7500  11.0000  21.2500 Du        
  17349 ****         4.7500  11.0000  32.5000 Du        
  17350 ****         4.7500  11.0000  32.7500 Du        
  17351 ****         4.7500  11.0000  33.0000 Du        
  17352 ****         4.7500  11.0000  33.2500 Du        
  17353 ****         4.7500  11.0000  33.5000 Du        
  17354 ****         4.7500  11.0000  33.7500 Du        
  17355 ****         4.7500  11.0000  34.0000 Du        
  17356 ****         4.7500  11.0000  34.2500 Du        
  17357 ****         4.7500  11.0000  35.0000 Du        
  17358 ****         4.7500  11.0000  35.2500 Du        
  17359 ****         4.7500  11.0000  35.5000 Du        
  17360 ****         4.7500  11.0000  35.7500 Du        
  17361 ****         4.7500  11.0000  36.0000 Du        
  17362 ****         4.7500  11.2500   9.7500 Du        
  17363 ****         4.7500  11.2500  10.0000 Du        
  17364 ****         4.7500  11.2500  10.2500 Du        
  17365 ****         4.7500  11.2500  10.5000 Du        
  17366 ****         4.7500  11.2500  10.7500 Du        
  17367 ****         4.7500  11.2500  11.0000 Du        
  17368 ****         4.7500  11.2500  11.2500 Du        
  17369 ****         4.7500  11.2500  11.5000 Du        
  17370 ****         4.7500  11.2500  11.7500 Du        
  17371 ****         4.7500  11.2500  12.0000 Du        
  17372 ****         4.7500  11.2500  12.2500 Du        
  17373 ****         4.7500  11.2500  20.5000 Du        
  17374 ****         4.7500  11.2500  20.7500 Du        
  17375 ****         4.7500  11.2500  21.0000 Du        
  17376 ****         4.7500  11.2500  21.2500 Du        
  17377 ****         4.7500  11.2500  32.7500 Du        
  17378 ****         4.7500  11.2500  33.0000 Du        
  17379 ****         4.7500  11.2500  33.2500 Du        
  17380 ****         4.7500  11.2500  33.5000 Du        
  17381 ****         4.7500  11.2500  33.7500 Du        
  17382 ****         4.7500  11.2500  34.0000 Du        
  17383 ****         4.7500  11.2500  34.2500 Du        
  17384 ****         4.7500  11.2500  34.5000 Du        
  17385 ****         4.7500  11.2500  34.7500 Du        
  17386 ****         4.7500  11.2500  35.0000 Du        
  17387 ****         4.7500  11.2500  35.2500 Du        
  17388 ****         4.7500  11.2500  35.5000 Du        
  17389 ****         4.7500  11.2500  35.7500 Du        
  17390 ****         4.7500  11.2500  36.0000 Du        
  17391 ****         4.7500  11.2500  36.2500 Du        
  17392 ****         4.7500  11.5000   9.5000 Du        
  17393 ****         4.7500  11.5000   9.7500 Du        
  17394 ****         4.7500  11.5000  10.0000 Du        
  17395 ****         4.7500  11.5000  10.2500 Du        
  17396 ****         4.7500  11.5000  10.5000 Du        
  17397 ****         4.7500  11.5000  10.7500 Du        
  17398 ****         4.7500  11.5000  11.0000 Du        
  17399 ****         4.7500  11.5000  11.2500 Du        
  17400 ****         4.7500  11.5000  11.5000 Du        
  17401 ****         4.7500  11.5000  11.7500 Du        
  17402 ****         4.7500  11.5000  12.0000 Du        
  17403 ****         4.7500  11.5000  12.2500 Du        
  17404 ****         4.7500  11.5000  20.2500 Du        
  17405 ****         4.7500  11.5000  20.5000 Du        
  17406 ****         4.7500  11.5000  20.7500 Du        
  17407 ****         4.7500  11.5000  21.0000 Du        
  17408 ****         4.7500  11.5000  21.2500 Du        
  17409 ****         4.7500  11.5000  33.2500 Du        
  17410 ****         4.7500  11.5000  33.5000 Du        
  17411 ****         4.7500  11.5000  33.7500 Du        
  17412 ****         4.7500  11.5000  34.0000 Du        
  17413 ****         4.7500  11.5000  34.2500 Du        
  17414 ****         4.7500  11.5000  34.5000 Du        
  17415 ****         4.7500  11.5000  34.7500 Du        
  17416 ****         4.7500  11.5000  35.0000 Du        
  17417 ****         4.7500  11.5000  35.2500 Du        
  17418 ****         4.7500  11.5000  35.5000 Du        
  17419 ****         4.7500  11.5000  35.7500 Du        
  17420 ****         4.7500  11.5000  36.0000 Du        
  17421 ****         4.7500  11.5000  36.2500 Du        
  17422 ****         4.7500  11.5000  36.5000 Du        
  17423 ****         4.7500  11.7500   9.5000 Du        
  17424 ****         4.7500  11.7500   9.7500 Du        
  17425 ****         4.7500  11.7500  10.0000 Du        
  17426 ****         4.7500  11.7500  10.2500 Du        
  17427 ****         4.7500  11.7500  10.5000 Du        
  17428 ****         4.7500  11.7500  10.7500 Du        
  17429 ****         4.7500  11.7500  11.0000 Du        
  17430 ****         4.7500  11.7500  11.2500 Du        
  17431 ****         4.7500  11.7500  11.5000 Du        
  17432 ****         4.7500  11.7500  11.7500 Du        
  17433 ****         4.7500  11.7500  12.0000 Du        
  17434 ****         4.7500  11.7500  12.2500 Du        
  17435 ****         4.7500  11.7500  20.0000 Du        
  17436 ****         4.7500  11.7500  20.2500 Du        
  17437 ****         4.7500  11.7500  20.5000 Du        
  17438 ****         4.7500  11.7500  20.7500 Du        
  17439 ****         4.7500  11.7500  21.0000 Du        
  17440 ****         4.7500  11.7500  21.2500 Du        
  17441 ****         4.7500  11.7500  21.5000 Du        
  17442 ****         4.7500  11.7500  33.5000 Du        
  17443 ****         4.7500  11.7500  33.7500 Du        
  17444 ****         4.7500  11.7500  34.0000 Du        
  17445 ****         4.7500  11.7500  34.2500 Du        
  17446 ****         4.7500  11.7500  34.5000 Du        
  17447 ****         4.7500  11.7500  34.7500 Du        
  17448 ****         4.7500  11.7500  35.0000 Du        
  17449 ****         4.7500  11.7500  35.2500 Du        
  17450 ****         4.7500  11.7500  35.5000 Du        
  17451 ****         4.7500  11.7500  35.7500 Du        
  17452 ****         4.7500  11.7500  36.0000 Du        
  17453 ****         4.7500  11.7500  36.2500 Du        
  17454 ****         4.7500  11.7500  36.5000 Du        
  17455 ****         4.7500  11.7500  36.7500 Du        
  17456 ****         4.7500  12.0000   9.7500 Du        
  17457 ****         4.7500  12.0000  10.0000 Du        
  17458 ****         4.7500  12.0000  10.2500 Du        
  17459 ****         4.7500  12.0000  10.5000 Du        
  17460 ****         4.7500  12.0000  10.7500 Du        
  17461 ****         4.7500  12.0000  11.0000 Du        
  17462 ****         4.7500  12.0000  11.2500 Du        
  17463 ****         4.7500  12.0000  11.5000 Du        
  17464 ****         4.7500  12.0000  11.7500 Du        
  17465 ****         4.7500  12.0000  12.0000 Du        
  17466 ****         4.7500  12.0000  20.0000 Du        
  17467 ****         4.7500  12.0000  20.2500 Du        
  17468 ****         4.7500  12.0000  20.5000 Du        
  17469 ****         4.7500  12.0000  20.7500 Du        
  17470 ****         4.7500  12.0000  21.0000 Du        
  17471 ****         4.7500  12.0000  21.2500 Du        
  17472 ****         4.7500  12.0000  21.5000 Du        
  17473 ****         4.7500  12.0000  33.7500 Du        
  17474 ****         4.7500  12.0000  34.0000 Du        
  17475 ****         4.7500  12.0000  34.2500 Du        
  17476 ****         4.7500  12.0000  34.5000 Du        
  17477 ****         4.7500  12.0000  34.7500 Du        
  17478 ****         4.7500  12.0000  35.0000 Du        
  17479 ****         4.7500  12.0000  35.2500 Du        
  17480 ****         4.7500  12.0000  35.5000 Du        
  17481 ****         4.7500  12.0000  35.7500 Du        
  17482 ****         4.7500  12.0000  36.0000 Du        
  17483 ****         4.7500  12.0000  36.2500 Du        
  17484 ****         4.7500  12.0000  36.5000 Du        
  17485 ****         4.7500  12.0000  36.7500 Du        
  17486 ****         4.7500  12.2500  10.0000 Du        
  17487 ****         4.7500  12.2500  10.2500 Du        
  17488 ****         4.7500  12.2500  10.5000 Du        
  17489 ****         4.7500  12.2500  10.7500 Du        
  17490 ****         4.7500  12.2500  11.0000 Du        
  17491 ****         4.7500  12.2500  11.2500 Du        
  17492 ****         4.7500  12.2500  11.5000 Du        
  17493 ****         4.7500  12.2500  11.7500 Du        
  17494 ****         4.7500  12.2500  12.0000 Du        
  17495 ****         4.7500  12.2500  20.0000 Du        
  17496 ****         4.7500  12.2500  20.2500 Du        
  17497 ****         4.7500  12.2500  20.5000 Du        
  17498 ****         4.7500  12.2500  20.7500 Du        
  17499 ****         4.7500  12.2500  21.0000 Du        
  17500 ****         4.7500  12.2500  21.2500 Du        
  17501 ****         4.7500  12.2500  21.5000 Du        
  17502 ****         4.7500  12.2500  21.7500 Du        
  17503 ****         4.7500  12.2500  34.0000 Du        
  17504 ****         4.7500  12.2500  34.2500 Du        
  17505 ****         4.7500  12.2500  34.5000 Du        
  17506 ****         4.7500  12.2500  34.7500 Du        
  17507 ****         4.7500  12.2500  35.0000 Du        
  17508 ****         4.7500  12.2500  35.2500 Du        
  17509 ****         4.7500  12.2500  35.5000 Du        
  17510 ****         4.7500  12.2500  35.7500 Du        
  17511 ****         4.7500  12.2500  36.0000 Du        
  17512 ****         4.7500  12.2500  36.2500 Du        
  17513 ****         4.7500  12.2500  36.5000 Du        
  17514 ****         4.7500  12.2500  36.7500 Du        
  17515 ****         4.7500  12.5000  10.7500 Du        
  17516 ****         4.7500  12.5000  19.2500 Du        
  17517 ****         4.7500  12.5000  19.7500 Du        
  17518 ****         4.7500  12.5000  20.0000 Du        
  17519 ****         4.7500  12.5000  20.2500 Du        
  17520 ****         4.7500  12.5000  20.5000 Du        
  17521 ****         4.7500  12.5000  20.7500 Du        
  17522 ****         4.7500  12.5000  21.0000 Du        
  17523 ****         4.7500  12.5000  21.2500 Du        
  17524 ****         4.7500  12.5000  21.5000 Du        
  17525 ****         4.7500  12.5000  21.7500 Du        
  17526 ****         4.7500  12.5000  34.2500 Du        
  17527 ****         4.7500  12.5000  34.5000 Du        
  17528 ****         4.7500  12.5000  34.7500 Du        
  17529 ****         4.7500  12.5000  35.0000 Du        
  17530 ****         4.7500  12.5000  35.2500 Du        
  17531 ****         4.7500  12.5000  35.5000 Du        
  17532 ****         4.7500  12.5000  35.7500 Du        
  17533 ****         4.7500  12.5000  36.0000 Du        
  17534 ****         4.7500  12.5000  36.2500 Du        
  17535 ****         4.7500  12.5000  36.5000 Du        
  17536 ****         4.7500  12.5000  36.7500 Du        
  17537 ****         4.7500  12.7500  19.2500 Du        
  17538 ****         4.7500  12.7500  19.5000 Du        
  17539 ****         4.7500  12.7500  19.7500 Du        
  17540 ****         4.7500  12.7500  20.0000 Du        
  17541 ****         4.7500  12.7500  20.2500 Du        
  17542 ****         4.7500  12.7500  20.5000 Du        
  17543 ****         4.7500  12.7500  20.7500 Du        
  17544 ****         4.7500  12.7500  21.0000 Du        
  17545 ****         4.7500  12.7500  21.2500 Du        
  17546 ****         4.7500  12.7500  21.5000 Du        
  17547 ****         4.7500  12.7500  21.7500 Du        
  17548 ****         4.7500  12.7500  22.0000 Du        
  17549 ****         4.7500  12.7500  34.5000 Du        
  17550 ****         4.7500  12.7500  34.7500 Du        
  17551 ****         4.7500  12.7500  35.0000 Du        
  17552 ****         4.7500  12.7500  35.2500 Du        
  17553 ****         4.7500  12.7500  35.5000 Du        
  17554 ****         4.7500  12.7500  35.7500 Du        
  17555 ****         4.7500  12.7500  36.0000 Du        
  17556 ****         4.7500  12.7500  36.2500 Du        
  17557 ****         4.7500  12.7500  36.5000 Du        
  17558 ****         4.7500  13.0000  19.0000 Du        
  17559 ****         4.7500  13.0000  19.2500 Du        
  17560 ****         4.7500  13.0000  19.5000 Du        
  17561 ****         4.7500  13.0000  19.7500 Du        
  17562 ****         4.7500  13.0000  20.0000 Du        
  17563 ****         4.7500  13.0000  20.2500 Du        
  17564 ****         4.7500  13.0000  20.5000 Du        
  17565 ****         4.7500  13.0000  20.7500 Du        
  17566 ****         4.7500  13.0000  21.0000 Du        
  17567 ****         4.7500  13.0000  21.2500 Du        
  17568 ****         4.7500  13.0000  21.5000 Du        
  17569 ****         4.7500  13.0000  21.7500 Du        
  17570 ****         4.7500  13.0000  22.0000 Du        
  17571 ****         4.7500  13.0000  34.7500 Du        
  17572 ****         4.7500  13.0000  35.0000 Du        
  17573 ****         4.7500  13.0000  35.2500 Du        
  17574 ****         4.7500  13.0000  35.5000 Du        
  17575 ****         4.7500  13.0000  35.7500 Du        
  17576 ****         4.7500  13.0000  36.0000 Du        
  17577 ****         4.7500  13.2500  19.0000 Du        
  17578 ****         4.7500  13.2500  19.2500 Du        
  17579 ****         4.7500  13.2500  19.5000 Du        
  17580 ****         4.7500  13.2500  19.7500 Du        
  17581 ****         4.7500  13.2500  20.0000 Du        
  17582 ****         4.7500  13.2500  20.2500 Du        
  17583 ****         4.7500  13.2500  20.5000 Du        
  17584 ****         4.7500  13.2500  20.7500 Du        
  17585 ****         4.7500  13.2500  21.0000 Du        
  17586 ****         4.7500  13.2500  21.2500 Du        
  17587 ****         4.7500  13.2500  21.5000 Du        
  17588 ****         4.7500  13.2500  21.7500 Du        
  17589 ****         4.7500  13.2500  22.0000 Du        
  17590 ****         4.7500  13.5000  19.0000 Du        
  17591 ****         4.7500  13.5000  19.2500 Du        
  17592 ****         4.7500  13.5000  19.5000 Du        
  17593 ****         4.7500  13.5000  19.7500 Du        
  17594 ****         4.7500  13.5000  20.0000 Du        
  17595 ****         4.7500  13.5000  20.2500 Du        
  17596 ****         4.7500  13.5000  20.5000 Du        
  17597 ****         4.7500  13.5000  20.7500 Du        
  17598 ****         4.7500  13.5000  21.0000 Du        
  17599 ****         4.7500  13.5000  21.2500 Du        
  17600 ****         4.7500  13.5000  21.5000 Du        
  17601 ****         4.7500  13.5000  21.7500 Du        
  17602 ****         4.7500  13.5000  22.0000 Du        
  17603 ****         4.7500  13.7500  19.0000 Du        
  17604 ****         4.7500  13.7500  19.2500 Du        
  17605 ****         4.7500  13.7500  19.5000 Du        
  17606 ****         4.7500  13.7500  19.7500 Du        
  17607 ****         4.7500  13.7500  20.0000 Du        
  17608 ****         4.7500  13.7500  20.2500 Du        
  17609 ****         4.7500  13.7500  20.5000 Du        
  17610 ****         4.7500  13.7500  20.7500 Du        
  17611 ****         4.7500  13.7500  21.0000 Du        
  17612 ****         4.7500  13.7500  21.2500 Du        
  17613 ****         4.7500  13.7500  21.5000 Du        
  17614 ****         4.7500  14.0000  19.2500 Du        
  17615 ****         4.7500  14.0000  19.5000 Du        
  17616 ****         4.7500  14.0000  19.7500 Du        
  17617 ****         5.0000   1.5000  27.7500 Du        
  17618 ****         5.0000   1.7500  27.5000 Du        
  17619 ****         5.0000   1.7500  27.7500 Du        
  17620 ****         5.0000   1.7500  28.0000 Du        
  17621 ****         5.0000   2.0000  27.5000 Du        
  17622 ****         5.0000   2.0000  27.7500 Du        
  17623 ****         5.0000   2.0000  28.0000 Du        
  17624 ****         5.0000   2.0000  28.2500 Du        
  17625 ****         5.0000   2.2500  27.2500 Du        
  17626 ****         5.0000   2.2500  27.5000 Du        
  17627 ****         5.0000   2.2500  27.7500 Du        
  17628 ****         5.0000   2.2500  28.0000 Du        
  17629 ****         5.0000   2.2500  28.2500 Du        
  17630 ****         5.0000   2.5000  27.5000 Du        
  17631 ****         5.0000   2.5000  27.7500 Du        
  17632 ****         5.0000   2.5000  28.0000 Du        
  17633 ****         5.0000   2.5000  28.2500 Du        
  17634 ****         5.0000   2.5000  28.5000 Du        
  17635 ****         5.0000   2.7500  27.2500 Du        
  17636 ****         5.0000   2.7500  27.5000 Du        
  17637 ****         5.0000   2.7500  27.7500 Du        
  17638 ****         5.0000   2.7500  28.0000 Du        
  17639 ****         5.0000   2.7500  28.2500 Du        
  17640 ****         5.0000   2.7500  28.5000 Du        
  17641 ****         5.0000   2.7500  28.7500 Du        
  17642 ****         5.0000   3.0000  27.2500 Du        
  17643 ****         5.0000   3.0000  27.5000 Du        
  17644 ****         5.0000   3.0000  27.7500 Du        
  17645 ****         5.0000   3.0000  28.0000 Du        
  17646 ****         5.0000   3.0000  28.2500 Du        
  17647 ****         5.0000   3.0000  28.5000 Du        
  17648 ****         5.0000   3.0000  28.7500 Du        
  17649 ****         5.0000   3.2500  27.2500 Du        
  17650 ****         5.0000   3.2500  27.5000 Du        
  17651 ****         5.0000   3.2500  27.7500 Du        
  17652 ****         5.0000   3.2500  28.0000 Du        
  17653 ****         5.0000   3.2500  28.2500 Du        
  17654 ****         5.0000   3.2500  28.5000 Du        
  17655 ****         5.0000   3.2500  28.7500 Du        
  17656 ****         5.0000   3.5000  27.5000 Du        
  17657 ****         5.0000   3.5000  27.7500 Du        
  17658 ****         5.0000   3.5000  28.0000 Du        
  17659 ****         5.0000   3.5000  28.2500 Du        
  17660 ****         5.0000   4.2500  32.2500 Du        
  17661 ****         5.0000   4.5000  32.0000 Du        
  17662 ****         5.0000   4.5000  32.2500 Du        
  17663 ****         5.0000   4.5000  32.5000 Du        
  17664 ****         5.0000   4.5000  32.7500 Du        
  17665 ****         5.0000   4.5000  33.0000 Du        
  17666 ****         5.0000   4.7500  32.0000 Du        
  17667 ****         5.0000   4.7500  32.2500 Du        
  17668 ****         5.0000   4.7500  32.5000 Du        
  17669 ****         5.0000   4.7500  32.7500 Du        
  17670 ****         5.0000   4.7500  33.0000 Du        
  17671 ****         5.0000   4.7500  33.2500 Du        
  17672 ****         5.0000   4.7500  33.5000 Du        
  17673 ****         5.0000   5.0000  32.2500 Du        
  17674 ****         5.0000   5.0000  32.5000 Du        
  17675 ****         5.0000   5.0000  32.7500 Du        
  17676 ****         5.0000   5.0000  33.0000 Du        
  17677 ****         5.0000   5.0000  33.2500 Du        
  17678 ****         5.0000   5.0000  33.5000 Du        
  17679 ****         5.0000   5.0000  33.7500 Du        
  17680 ****         5.0000   5.0000  34.0000 Du        
  17681 ****         5.0000   5.2500  32.5000 Du        
  17682 ****         5.0000   5.2500  32.7500 Du        
  17683 ****         5.0000   5.2500  33.0000 Du        
  17684 ****         5.0000   5.2500  33.2500 Du        
  17685 ****         5.0000   5.2500  33.5000 Du        
  17686 ****         5.0000   5.2500  33.7500 Du        
  17687 ****         5.0000   5.2500  34.0000 Du        
  17688 ****         5.0000   5.5000  32.7500 Du        
  17689 ****         5.0000   5.5000  33.0000 Du        
  17690 ****         5.0000   5.5000  33.2500 Du        
  17691 ****         5.0000   5.5000  33.5000 Du        
  17692 ****         5.0000   5.5000  33.7500 Du        
  17693 ****         5.0000   5.5000  34.0000 Du        
  17694 ****         5.0000   5.5000  34.2500 Du        
  17695 ****         5.0000   5.7500  32.7500 Du        
  17696 ****         5.0000   5.7500  33.0000 Du        
  17697 ****         5.0000   5.7500  33.2500 Du        
  17698 ****         5.0000   5.7500  33.5000 Du        
  17699 ****         5.0000   5.7500  33.7500 Du        
  17700 ****         5.0000   5.7500  34.0000 Du        
  17701 ****         5.0000   5.7500  34.2500 Du        
  17702 ****         5.0000   6.0000  32.7500 Du        
  17703 ****         5.0000   6.0000  33.0000 Du        
  17704 ****         5.0000   6.0000  33.2500 Du        
  17705 ****         5.0000   6.0000  33.5000 Du        
  17706 ****         5.0000   6.0000  33.7500 Du        
  17707 ****         5.0000   6.0000  34.0000 Du        
  17708 ****         5.0000   6.0000  34.2500 Du        
  17709 ****         5.0000   6.2500  33.0000 Du        
  17710 ****         5.0000   6.2500  33.2500 Du        
  17711 ****         5.0000   6.2500  33.5000 Du        
  17712 ****         5.0000   6.2500  33.7500 Du        
  17713 ****         5.0000   6.2500  34.0000 Du        
  17714 ****         5.0000   6.2500  34.2500 Du        
  17715 ****         5.0000   6.5000  33.0000 Du        
  17716 ****         5.0000   6.5000  33.2500 Du        
  17717 ****         5.0000   6.5000  33.5000 Du        
  17718 ****         5.0000   6.5000  33.7500 Du        
  17719 ****         5.0000   6.5000  34.0000 Du        
  17720 ****         5.0000   6.5000  34.2500 Du        
  17721 ****         5.0000   6.7500  33.0000 Du        
  17722 ****         5.0000   6.7500  33.2500 Du        
  17723 ****         5.0000   6.7500  33.5000 Du        
  17724 ****         5.0000   6.7500  33.7500 Du        
  17725 ****         5.0000   6.7500  34.0000 Du        
  17726 ****         5.0000   6.7500  34.2500 Du        
  17727 ****         5.0000   6.7500  34.5000 Du        
  17728 ****         5.0000   7.0000  33.0000 Du        
  17729 ****         5.0000   7.0000  33.2500 Du        
  17730 ****         5.0000   7.0000  33.5000 Du        
  17731 ****         5.0000   7.0000  33.7500 Du        
  17732 ****         5.0000   7.0000  34.0000 Du        
  17733 ****         5.0000   7.0000  34.2500 Du        
  17734 ****         5.0000   7.0000  34.5000 Du        
  17735 ****         5.0000   7.2500  33.2500 Du        
  17736 ****         5.0000   7.2500  33.5000 Du        
  17737 ****         5.0000   7.2500  33.7500 Du        
  17738 ****         5.0000   7.2500  34.0000 Du        
  17739 ****         5.0000   7.2500  34.2500 Du        
  17740 ****         5.0000   7.2500  34.5000 Du        
  17741 ****         5.0000   7.5000  33.5000 Du        
  17742 ****         5.0000   7.5000  33.7500 Du        
  17743 ****         5.0000   7.5000  34.0000 Du        
  17744 ****         5.0000   7.5000  34.2500 Du        
  17745 ****         5.0000   7.7500  33.7500 Du        
  17746 ****         5.0000   7.7500  34.0000 Du        
  17747 ****         5.0000   7.7500  34.2500 Du        
  17748 ****         5.0000   7.7500  34.5000 Du        
  17749 ****         5.0000   8.0000  33.7500 Du        
  17750 ****         5.0000   8.0000  34.0000 Du        
  17751 ****         5.0000   8.0000  34.2500 Du        
  17752 ****         5.0000   8.0000  34.5000 Du        
  17753 ****         5.0000   8.2500  34.5000 Du        
  17754 ****         5.0000   9.0000  35.0000 Du        
  17755 ****         5.0000   9.2500  35.0000 Du        
  17756 ****         5.0000  10.0000  31.7500 Du        
  17757 ****         5.0000  10.0000  32.0000 Du        
  17758 ****         5.0000  10.0000  32.2500 Du        
  17759 ****         5.0000  10.2500  31.7500 Du        
  17760 ****         5.0000  10.2500  32.0000 Du        
  17761 ****         5.0000  10.2500  32.2500 Du        
  17762 ****         5.0000  10.5000  31.7500 Du        
  17763 ****         5.0000  10.5000  32.0000 Du        
  17764 ****         5.0000  10.5000  32.2500 Du        
  17765 ****         5.0000  10.5000  32.5000 Du        
  17766 ****         5.0000  10.5000  32.7500 Du        
  17767 ****         5.0000  10.7500  11.7500 Du        
  17768 ****         5.0000  10.7500  20.7500 Du        
  17769 ****         5.0000  10.7500  32.0000 Du        
  17770 ****         5.0000  10.7500  32.2500 Du        
  17771 ****         5.0000  10.7500  32.5000 Du        
  17772 ****         5.0000  10.7500  32.7500 Du        
  17773 ****         5.0000  10.7500  33.0000 Du        
  17774 ****         5.0000  10.7500  33.2500 Du        
  17775 ****         5.0000  10.7500  35.0000 Du        
  17776 ****         5.0000  10.7500  35.2500 Du        
  17777 ****         5.0000  10.7500  35.5000 Du        
  17778 ****         5.0000  10.7500  35.7500 Du        
  17779 ****         5.0000  11.0000  11.5000 Du        
  17780 ****         5.0000  11.0000  11.7500 Du        
  17781 ****         5.0000  11.0000  12.0000 Du        
  17782 ****         5.0000  11.0000  12.2500 Du        
  17783 ****         5.0000  11.0000  20.7500 Du        
  17784 ****         5.0000  11.0000  21.0000 Du        
  17785 ****         5.0000  11.0000  32.5000 Du        
  17786 ****         5.0000  11.0000  32.7500 Du        
  17787 ****         5.0000  11.0000  33.0000 Du        
  17788 ****         5.0000  11.0000  33.2500 Du        
  17789 ****         5.0000  11.0000  33.7500 Du        
  17790 ****         5.0000  11.0000  34.0000 Du        
  17791 ****         5.0000  11.0000  34.5000 Du        
  17792 ****         5.0000  11.0000  34.7500 Du        
  17793 ****         5.0000  11.0000  35.0000 Du        
  17794 ****         5.0000  11.0000  35.2500 Du        
  17795 ****         5.0000  11.0000  35.5000 Du        
  17796 ****         5.0000  11.0000  35.7500 Du        
  17797 ****         5.0000  11.0000  36.0000 Du        
  17798 ****         5.0000  11.2500  10.0000 Du        
  17799 ****         5.0000  11.2500  10.2500 Du        
  17800 ****         5.0000  11.2500  10.5000 Du        
  17801 ****         5.0000  11.2500  10.7500 Du        
  17802 ****         5.0000  11.2500  11.0000 Du        
  17803 ****         5.0000  11.2500  11.2500 Du        
  17804 ****         5.0000  11.2500  11.5000 Du        
  17805 ****         5.0000  11.2500  11.7500 Du        
  17806 ****         5.0000  11.2500  12.0000 Du        
  17807 ****         5.0000  11.2500  12.2500 Du        
  17808 ****         5.0000  11.2500  20.7500 Du        
  17809 ****         5.0000  11.2500  21.0000 Du        
  17810 ****         5.0000  11.2500  32.7500 Du        
  17811 ****         5.0000  11.2500  33.0000 Du        
  17812 ****         5.0000  11.2500  33.2500 Du        
  17813 ****         5.0000  11.2500  34.0000 Du        
  17814 ****         5.0000  11.2500  34.2500 Du        
  17815 ****         5.0000  11.2500  34.7500 Du        
  17816 ****         5.0000  11.2500  35.0000 Du        
  17817 ****         5.0000  11.2500  35.2500 Du        
  17818 ****         5.0000  11.2500  35.5000 Du        
  17819 ****         5.0000  11.2500  35.7500 Du        
  17820 ****         5.0000  11.2500  36.0000 Du        
  17821 ****         5.0000  11.2500  36.2500 Du        
  17822 ****         5.0000  11.5000   9.7500 Du        
  17823 ****         5.0000  11.5000  10.0000 Du        
  17824 ****         5.0000  11.5000  10.2500 Du        
  17825 ****         5.0000  11.5000  10.5000 Du        
  17826 ****         5.0000  11.5000  10.7500 Du        
  17827 ****         5.0000  11.5000  11.0000 Du        
  17828 ****         5.0000  11.5000  11.2500 Du        
  17829 ****         5.0000  11.5000  11.5000 Du        
  17830 ****         5.0000  11.5000  11.7500 Du        
  17831 ****         5.0000  11.5000  12.0000 Du        
  17832 ****         5.0000  11.5000  12.2500 Du        
  17833 ****         5.0000  11.5000  20.7500 Du        
  17834 ****         5.0000  11.5000  21.0000 Du        
  17835 ****         5.0000  11.5000  21.2500 Du        
  17836 ****         5.0000  11.5000  34.5000 Du        
  17837 ****         5.0000  11.5000  34.7500 Du        
  17838 ****         5.0000  11.5000  35.0000 Du        
  17839 ****         5.0000  11.5000  35.2500 Du        
  17840 ****         5.0000  11.5000  35.5000 Du        
  17841 ****         5.0000  11.5000  35.7500 Du        
  17842 ****         5.0000  11.5000  36.0000 Du        
  17843 ****         5.0000  11.5000  36.2500 Du        
  17844 ****         5.0000  11.5000  36.5000 Du        
  17845 ****         5.0000  11.7500   9.5000 Du        
  17846 ****         5.0000  11.7500   9.7500 Du        
  17847 ****         5.0000  11.7500  10.0000 Du        
  17848 ****         5.0000  11.7500  10.2500 Du        
  17849 ****         5.0000  11.7500  10.5000 Du        
  17850 ****         5.0000  11.7500  10.7500 Du        
  17851 ****         5.0000  11.7500  11.0000 Du        
  17852 ****         5.0000  11.7500  11.2500 Du        
  17853 ****         5.0000  11.7500  11.5000 Du        
  17854 ****         5.0000  11.7500  11.7500 Du        
  17855 ****         5.0000  11.7500  12.0000 Du        
  17856 ****         5.0000  11.7500  12.2500 Du        
  17857 ****         5.0000  11.7500  20.7500 Du        
  17858 ****         5.0000  11.7500  21.0000 Du        
  17859 ****         5.0000  11.7500  21.2500 Du        
  17860 ****         5.0000  11.7500  34.5000 Du        
  17861 ****         5.0000  11.7500  34.7500 Du        
  17862 ****         5.0000  11.7500  35.0000 Du        
  17863 ****         5.0000  11.7500  35.2500 Du        
  17864 ****         5.0000  11.7500  35.5000 Du        
  17865 ****         5.0000  11.7500  35.7500 Du        
  17866 ****         5.0000  11.7500  36.0000 Du        
  17867 ****         5.0000  11.7500  36.2500 Du        
  17868 ****         5.0000  11.7500  36.5000 Du        
  17869 ****         5.0000  11.7500  36.7500 Du        
  17870 ****         5.0000  12.0000   9.5000 Du        
  17871 ****         5.0000  12.0000   9.7500 Du        
  17872 ****         5.0000  12.0000  10.0000 Du        
  17873 ****         5.0000  12.0000  10.2500 Du        
  17874 ****         5.0000  12.0000  10.5000 Du        
  17875 ****         5.0000  12.0000  10.7500 Du        
  17876 ****         5.0000  12.0000  11.0000 Du        
  17877 ****         5.0000  12.0000  11.2500 Du        
  17878 ****         5.0000  12.0000  11.5000 Du        
  17879 ****         5.0000  12.0000  11.7500 Du        
  17880 ****         5.0000  12.0000  12.0000 Du        
  17881 ****         5.0000  12.0000  20.7500 Du        
  17882 ****         5.0000  12.0000  21.0000 Du        
  17883 ****         5.0000  12.0000  21.2500 Du        
  17884 ****         5.0000  12.0000  21.5000 Du        
  17885 ****         5.0000  12.0000  34.5000 Du        
  17886 ****         5.0000  12.0000  34.7500 Du        
  17887 ****         5.0000  12.0000  35.0000 Du        
  17888 ****         5.0000  12.0000  35.2500 Du        
  17889 ****         5.0000  12.0000  35.5000 Du        
  17890 ****         5.0000  12.0000  35.7500 Du        
  17891 ****         5.0000  12.0000  36.0000 Du        
  17892 ****         5.0000  12.0000  36.2500 Du        
  17893 ****         5.0000  12.0000  36.5000 Du        
  17894 ****         5.0000  12.0000  36.7500 Du        
  17895 ****         5.0000  12.2500   9.7500 Du        
  17896 ****         5.0000  12.2500  10.0000 Du        
  17897 ****         5.0000  12.2500  10.2500 Du        
  17898 ****         5.0000  12.2500  10.5000 Du        
  17899 ****         5.0000  12.2500  10.7500 Du        
  17900 ****         5.0000  12.2500  11.0000 Du        
  17901 ****         5.0000  12.2500  11.2500 Du        
  17902 ****         5.0000  12.2500  11.5000 Du        
  17903 ****         5.0000  12.2500  11.7500 Du        
  17904 ****         5.0000  12.2500  12.0000 Du        
  17905 ****         5.0000  12.2500  20.7500 Du        
  17906 ****         5.0000  12.2500  21.0000 Du        
  17907 ****         5.0000  12.2500  21.2500 Du        
  17908 ****         5.0000  12.2500  21.5000 Du        
  17909 ****         5.0000  12.2500  34.5000 Du        
  17910 ****         5.0000  12.2500  34.7500 Du        
  17911 ****         5.0000  12.2500  35.0000 Du        
  17912 ****         5.0000  12.2500  35.2500 Du        
  17913 ****         5.0000  12.2500  35.5000 Du        
  17914 ****         5.0000  12.2500  35.7500 Du        
  17915 ****         5.0000  12.2500  36.0000 Du        
  17916 ****         5.0000  12.2500  36.2500 Du        
  17917 ****         5.0000  12.2500  36.5000 Du        
  17918 ****         5.0000  12.2500  36.7500 Du        
  17919 ****         5.0000  12.5000  10.2500 Du        
  17920 ****         5.0000  12.5000  10.5000 Du        
  17921 ****         5.0000  12.5000  10.7500 Du        
  17922 ****         5.0000  12.5000  11.0000 Du        
  17923 ****         5.0000  12.5000  11.2500 Du        
  17924 ****         5.0000  12.5000  11.5000 Du        
  17925 ****         5.0000  12.5000  11.7500 Du        
  17926 ****         5.0000  12.5000  20.5000 Du        
  17927 ****         5.0000  12.5000  20.7500 Du        
  17928 ****         5.0000  12.5000  21.0000 Du        
  17929 ****         5.0000  12.5000  21.2500 Du        
  17930 ****         5.0000  12.5000  21.5000 Du        
  17931 ****         5.0000  12.5000  21.7500 Du        
  17932 ****         5.0000  12.5000  34.5000 Du        
  17933 ****         5.0000  12.5000  34.7500 Du        
  17934 ****         5.0000  12.5000  35.0000 Du        
  17935 ****         5.0000  12.5000  35.2500 Du        
  17936 ****         5.0000  12.5000  35.5000 Du        
  17937 ****         5.0000  12.5000  35.7500 Du        
  17938 ****         5.0000  12.5000  36.0000 Du        
  17939 ****         5.0000  12.5000  36.2500 Du        
  17940 ****         5.0000  12.5000  36.5000 Du        
  17941 ****         5.0000  12.5000  36.7500 Du        
  17942 ****         5.0000  12.7500  11.0000 Du        
  17943 ****         5.0000  12.7500  11.2500 Du        
  17944 ****         5.0000  12.7500  11.5000 Du        
  17945 ****         5.0000  12.7500  20.2500 Du        
  17946 ****         5.0000  12.7500  20.5000 Du        
  17947 ****         5.0000  12.7500  20.7500 Du        
  17948 ****         5.0000  12.7500  21.0000 Du        
  17949 ****         5.0000  12.7500  21.2500 Du        
  17950 ****         5.0000  12.7500  21.5000 Du        
  17951 ****         5.0000  12.7500  21.7500 Du        
  17952 ****         5.0000  12.7500  22.0000 Du        
  17953 ****         5.0000  12.7500  34.7500 Du        
  17954 ****         5.0000  12.7500  35.0000 Du        
  17955 ****         5.0000  12.7500  35.2500 Du        
  17956 ****         5.0000  12.7500  35.5000 Du        
  17957 ****         5.0000  12.7500  35.7500 Du        
  17958 ****         5.0000  12.7500  36.0000 Du        
  17959 ****         5.0000  12.7500  36.2500 Du        
  17960 ****         5.0000  12.7500  36.5000 Du        
  17961 ****         5.0000  12.7500  36.7500 Du        
  17962 ****         5.0000  13.0000  20.2500 Du        
  17963 ****         5.0000  13.0000  20.5000 Du        
  17964 ****         5.0000  13.0000  20.7500 Du        
  17965 ****         5.0000  13.0000  21.0000 Du        
  17966 ****         5.0000  13.0000  21.2500 Du        
  17967 ****         5.0000  13.0000  21.5000 Du        
  17968 ****         5.0000  13.0000  21.7500 Du        
  17969 ****         5.0000  13.0000  22.0000 Du        
  17970 ****         5.0000  13.0000  35.0000 Du        
  17971 ****         5.0000  13.0000  35.2500 Du        
  17972 ****         5.0000  13.0000  35.5000 Du        
  17973 ****         5.0000  13.0000  35.7500 Du        
  17974 ****         5.0000  13.0000  36.0000 Du        
  17975 ****         5.0000  13.0000  36.2500 Du        
  17976 ****         5.0000  13.2500  20.0000 Du        
  17977 ****         5.0000  13.2500  20.2500 Du        
  17978 ****         5.0000  13.2500  20.5000 Du        
  17979 ****         5.0000  13.2500  20.7500 Du        
  17980 ****         5.0000  13.2500  21.0000 Du        
  17981 ****         5.0000  13.2500  21.2500 Du        
  17982 ****         5.0000  13.2500  21.5000 Du        
  17983 ****         5.0000  13.2500  21.7500 Du        
  17984 ****         5.0000  13.2500  22.0000 Du        
  17985 ****         5.0000  13.5000  19.5000 Du        
  17986 ****         5.0000  13.5000  19.7500 Du        
  17987 ****         5.0000  13.5000  20.0000 Du        
  17988 ****         5.0000  13.5000  20.2500 Du        
  17989 ****         5.0000  13.5000  20.5000 Du        
  17990 ****         5.0000  13.5000  20.7500 Du        
  17991 ****         5.0000  13.5000  21.0000 Du        
  17992 ****         5.0000  13.5000  21.2500 Du        
  17993 ****         5.0000  13.5000  21.5000 Du        
  17994 ****         5.0000  13.5000  21.7500 Du        
  17995 ****         5.0000  13.5000  22.0000 Du        
  17996 ****         5.0000  13.7500  19.5000 Du        
  17997 ****         5.0000  13.7500  19.7500 Du        
  17998 ****         5.0000  13.7500  20.0000 Du        
  17999 ****         5.0000  13.7500  20.2500 Du        
  18000 ****         5.0000  13.7500  20.5000 Du        
  18001 ****         5.0000  13.7500  20.7500 Du        
  18002 ****         5.0000  13.7500  21.0000 Du        
  18003 ****         5.0000  13.7500  21.2500 Du        
  18004 ****         5.0000  13.7500  21.5000 Du        
  18005 ****         5.0000  13.7500  21.7500 Du        
  18006 ****         5.2500   1.7500  27.5000 Du        
  18007 ****         5.2500   1.7500  27.7500 Du        
  18008 ****         5.2500   1.7500  28.0000 Du        
  18009 ****         5.2500   2.0000  27.5000 Du        
  18010 ****         5.2500   2.0000  27.7500 Du        
  18011 ****         5.2500   2.0000  28.0000 Du        
  18012 ****         5.2500   2.2500  27.2500 Du        
  18013 ****         5.2500   2.2500  27.5000 Du        
  18014 ****         5.2500   2.2500  27.7500 Du        
  18015 ****         5.2500   2.2500  28.0000 Du        
  18016 ****         5.2500   2.2500  28.2500 Du        
  18017 ****         5.2500   2.5000  27.2500 Du        
  18018 ****         5.2500   2.5000  27.5000 Du        
  18019 ****         5.2500   2.5000  27.7500 Du        
  18020 ****         5.2500   2.5000  28.0000 Du        
  18021 ****         5.2500   2.5000  28.2500 Du        
  18022 ****         5.2500   2.5000  28.5000 Du        
  18023 ****         5.2500   2.7500  27.0000 Du        
  18024 ****         5.2500   2.7500  27.2500 Du        
  18025 ****         5.2500   2.7500  27.5000 Du        
  18026 ****         5.2500   2.7500  27.7500 Du        
  18027 ****         5.2500   2.7500  28.0000 Du        
  18028 ****         5.2500   2.7500  28.2500 Du        
  18029 ****         5.2500   2.7500  28.5000 Du        
  18030 ****         5.2500   3.0000  27.0000 Du        
  18031 ****         5.2500   3.0000  27.2500 Du        
  18032 ****         5.2500   3.0000  27.5000 Du        
  18033 ****         5.2500   3.0000  27.7500 Du        
  18034 ****         5.2500   3.0000  28.0000 Du        
  18035 ****         5.2500   3.0000  28.2500 Du        
  18036 ****         5.2500   3.0000  28.5000 Du        
  18037 ****         5.2500   3.0000  28.7500 Du        
  18038 ****         5.2500   3.2500  27.0000 Du        
  18039 ****         5.2500   3.2500  27.2500 Du        
  18040 ****         5.2500   3.2500  27.5000 Du        
  18041 ****         5.2500   3.2500  27.7500 Du        
  18042 ****         5.2500   3.2500  28.0000 Du        
  18043 ****         5.2500   3.2500  28.2500 Du        
  18044 ****         5.2500   3.2500  28.5000 Du        
  18045 ****         5.2500   3.5000  27.5000 Du        
  18046 ****         5.2500   3.5000  27.7500 Du        
  18047 ****         5.2500   3.5000  28.0000 Du        
  18048 ****         5.2500   6.0000  33.2500 Du        
  18049 ****         5.2500   6.0000  33.5000 Du        
  18050 ****         5.2500   6.0000  33.7500 Du        
  18051 ****         5.2500   6.2500  33.2500 Du        
  18052 ****         5.2500   6.2500  33.5000 Du        
  18053 ****         5.2500   6.2500  33.7500 Du        
  18054 ****         5.2500   6.2500  34.0000 Du        
  18055 ****         5.2500   6.5000  33.2500 Du        
  18056 ****         5.2500   6.5000  33.5000 Du        
  18057 ****         5.2500   6.5000  33.7500 Du        
  18058 ****         5.2500   6.5000  34.0000 Du        
  18059 ****         5.2500   6.7500  33.2500 Du        
  18060 ****         5.2500   6.7500  33.5000 Du        
  18061 ****         5.2500   6.7500  33.7500 Du        
  18062 ****         5.2500   6.7500  34.0000 Du        
  18063 ****         5.2500   6.7500  34.2500 Du        
  18064 ****         5.2500   7.0000  33.2500 Du        
  18065 ****         5.2500   7.0000  33.5000 Du        
  18066 ****         5.2500   7.0000  33.7500 Du        
  18067 ****         5.2500   7.0000  34.0000 Du        
  18068 ****         5.2500   7.0000  34.2500 Du        
  18069 ****         5.2500   7.2500  33.2500 Du        
  18070 ****         5.2500   7.2500  33.5000 Du        
  18071 ****         5.2500   7.2500  33.7500 Du        
  18072 ****         5.2500   7.2500  34.0000 Du        
  18073 ****         5.2500   7.2500  34.2500 Du        
  18074 ****         5.2500   7.5000  33.5000 Du        
  18075 ****         5.2500   7.5000  33.7500 Du        
  18076 ****         5.2500   7.5000  34.0000 Du        
  18077 ****         5.2500   7.5000  34.2500 Du        
  18078 ****         5.2500   7.7500  33.5000 Du        
  18079 ****         5.2500   7.7500  33.7500 Du        
  18080 ****         5.2500   7.7500  34.0000 Du        
  18081 ****         5.2500   7.7500  34.2500 Du        
  18082 ****         5.2500   8.0000  33.5000 Du        
  18083 ****         5.2500   8.0000  33.7500 Du        
  18084 ****         5.2500   8.0000  34.0000 Du        
  18085 ****         5.2500   8.0000  34.2500 Du        
  18086 ****         5.2500   8.0000  34.5000 Du        
  18087 ****         5.2500   8.2500  33.7500 Du        
  18088 ****         5.2500   8.2500  34.0000 Du        
  18089 ****         5.2500   8.2500  34.2500 Du        
  18090 ****         5.2500   8.2500  34.5000 Du        
  18091 ****         5.2500   9.7500  32.0000 Du        
  18092 ****         5.2500  10.0000  31.7500 Du        
  18093 ****         5.2500  10.0000  32.0000 Du        
  18094 ****         5.2500  10.0000  32.2500 Du        
  18095 ****         5.2500  10.2500  31.5000 Du        
  18096 ****         5.2500  10.2500  31.7500 Du        
  18097 ****         5.2500  10.2500  32.0000 Du        
  18098 ****         5.2500  10.2500  32.2500 Du        
  18099 ****         5.2500  10.5000  31.5000 Du        
  18100 ****         5.2500  10.5000  31.7500 Du        
  18101 ****         5.2500  10.5000  32.0000 Du        
  18102 ****         5.2500  10.5000  32.2500 Du        
  18103 ****         5.2500  10.7500  31.7500 Du        
  18104 ****         5.2500  10.7500  32.0000 Du        
  18105 ****         5.2500  10.7500  32.2500 Du        
  18106 ****         5.2500  10.7500  35.2500 Du        
  18107 ****         5.2500  10.7500  35.5000 Du        
  18108 ****         5.2500  10.7500  35.7500 Du        
  18109 ****         5.2500  11.0000  11.7500 Du        
  18110 ****         5.2500  11.0000  12.0000 Du        
  18111 ****         5.2500  11.0000  35.0000 Du        
  18112 ****         5.2500  11.0000  35.2500 Du        
  18113 ****         5.2500  11.0000  35.5000 Du        
  18114 ****         5.2500  11.0000  35.7500 Du        
  18115 ****         5.2500  11.0000  36.0000 Du        
  18116 ****         5.2500  11.2500  10.7500 Du        
  18117 ****         5.2500  11.2500  11.0000 Du        
  18118 ****         5.2500  11.2500  11.2500 Du        
  18119 ****         5.2500  11.2500  11.5000 Du        
  18120 ****         5.2500  11.2500  11.7500 Du        
  18121 ****         5.2500  11.2500  12.0000 Du        
  18122 ****         5.2500  11.2500  12.2500 Du        
  18123 ****         5.2500  11.2500  35.0000 Du        
  18124 ****         5.2500  11.2500  35.2500 Du        
  18125 ****         5.2500  11.2500  35.5000 Du        
  18126 ****         5.2500  11.2500  35.7500 Du        
  18127 ****         5.2500  11.2500  36.0000 Du        
  18128 ****         5.2500  11.2500  36.2500 Du        
  18129 ****         5.2500  11.5000   9.7500 Du        
  18130 ****         5.2500  11.5000  10.0000 Du        
  18131 ****         5.2500  11.5000  10.2500 Du        
  18132 ****         5.2500  11.5000  10.5000 Du        
  18133 ****         5.2500  11.5000  10.7500 Du        
  18134 ****         5.2500  11.5000  11.0000 Du        
  18135 ****         5.2500  11.5000  11.2500 Du        
  18136 ****         5.2500  11.5000  11.5000 Du        
  18137 ****         5.2500  11.5000  11.7500 Du        
  18138 ****         5.2500  11.5000  12.0000 Du        
  18139 ****         5.2500  11.5000  12.2500 Du        
  18140 ****         5.2500  11.5000  35.2500 Du        
  18141 ****         5.2500  11.5000  35.5000 Du        
  18142 ****         5.2500  11.5000  35.7500 Du        
  18143 ****         5.2500  11.5000  36.0000 Du        
  18144 ****         5.2500  11.5000  36.2500 Du        
  18145 ****         5.2500  11.5000  36.5000 Du        
  18146 ****         5.2500  11.7500   9.5000 Du        
  18147 ****         5.2500  11.7500   9.7500 Du        
  18148 ****         5.2500  11.7500  10.0000 Du        
  18149 ****         5.2500  11.7500  10.2500 Du        
  18150 ****         5.2500  11.7500  10.5000 Du        
  18151 ****         5.2500  11.7500  10.7500 Du        
  18152 ****         5.2500  11.7500  11.0000 Du        
  18153 ****         5.2500  11.7500  11.2500 Du        
  18154 ****         5.2500  11.7500  11.5000 Du        
  18155 ****         5.2500  11.7500  11.7500 Du        
  18156 ****         5.2500  11.7500  12.0000 Du        
  18157 ****         5.2500  11.7500  12.2500 Du        
  18158 ****         5.2500  11.7500  35.2500 Du        
  18159 ****         5.2500  11.7500  35.5000 Du        
  18160 ****         5.2500  11.7500  35.7500 Du        
  18161 ****         5.2500  11.7500  36.0000 Du        
  18162 ****         5.2500  11.7500  36.2500 Du        
  18163 ****         5.2500  11.7500  36.5000 Du        
  18164 ****         5.2500  11.7500  36.7500 Du        
  18165 ****         5.2500  12.0000   9.5000 Du        
  18166 ****         5.2500  12.0000   9.7500 Du        
  18167 ****         5.2500  12.0000  10.0000 Du        
  18168 ****         5.2500  12.0000  10.2500 Du        
  18169 ****         5.2500  12.0000  10.5000 Du        
  18170 ****         5.2500  12.0000  10.7500 Du        
  18171 ****         5.2500  12.0000  11.0000 Du        
  18172 ****         5.2500  12.0000  11.2500 Du        
  18173 ****         5.2500  12.0000  11.5000 Du        
  18174 ****         5.2500  12.0000  11.7500 Du        
  18175 ****         5.2500  12.0000  12.0000 Du        
  18176 ****         5.2500  12.0000  35.2500 Du        
  18177 ****         5.2500  12.0000  35.5000 Du        
  18178 ****         5.2500  12.0000  35.7500 Du        
  18179 ****         5.2500  12.0000  36.0000 Du        
  18180 ****         5.2500  12.0000  36.2500 Du        
  18181 ****         5.2500  12.0000  36.5000 Du        
  18182 ****         5.2500  12.0000  36.7500 Du        
  18183 ****         5.2500  12.2500   9.7500 Du        
  18184 ****         5.2500  12.2500  10.0000 Du        
  18185 ****         5.2500  12.2500  10.2500 Du        
  18186 ****         5.2500  12.2500  10.5000 Du        
  18187 ****         5.2500  12.2500  10.7500 Du        
  18188 ****         5.2500  12.2500  11.0000 Du        
  18189 ****         5.2500  12.2500  11.2500 Du        
  18190 ****         5.2500  12.2500  11.5000 Du        
  18191 ****         5.2500  12.2500  11.7500 Du        
  18192 ****         5.2500  12.2500  12.0000 Du        
  18193 ****         5.2500  12.2500  21.2500 Du        
  18194 ****         5.2500  12.2500  21.5000 Du        
  18195 ****         5.2500  12.2500  35.2500 Du        
  18196 ****         5.2500  12.2500  35.5000 Du        
  18197 ****         5.2500  12.2500  35.7500 Du        
  18198 ****         5.2500  12.2500  36.0000 Du        
  18199 ****         5.2500  12.2500  36.2500 Du        
  18200 ****         5.2500  12.2500  36.5000 Du        
  18201 ****         5.2500  12.2500  36.7500 Du        
  18202 ****         5.2500  12.5000  10.2500 Du        
  18203 ****         5.2500  12.5000  10.5000 Du        
  18204 ****         5.2500  12.5000  10.7500 Du        
  18205 ****         5.2500  12.5000  11.0000 Du        
  18206 ****         5.2500  12.5000  11.2500 Du        
  18207 ****         5.2500  12.5000  11.5000 Du        
  18208 ****         5.2500  12.5000  11.7500 Du        
  18209 ****         5.2500  12.5000  12.0000 Du        
  18210 ****         5.2500  12.5000  21.0000 Du        
  18211 ****         5.2500  12.5000  21.2500 Du        
  18212 ****         5.2500  12.5000  21.5000 Du        
  18213 ****         5.2500  12.5000  21.7500 Du        
  18214 ****         5.2500  12.5000  35.2500 Du        
  18215 ****         5.2500  12.5000  35.5000 Du        
  18216 ****         5.2500  12.5000  35.7500 Du        
  18217 ****         5.2500  12.5000  36.0000 Du        
  18218 ****         5.2500  12.5000  36.2500 Du        
  18219 ****         5.2500  12.5000  36.5000 Du        
  18220 ****         5.2500  12.5000  36.7500 Du        
  18221 ****         5.2500  12.7500  10.7500 Du        
  18222 ****         5.2500  12.7500  11.0000 Du        
  18223 ****         5.2500  12.7500  11.2500 Du        
  18224 ****         5.2500  12.7500  11.5000 Du        
  18225 ****         5.2500  12.7500  11.7500 Du        
  18226 ****         5.2500  12.7500  21.0000 Du        
  18227 ****         5.2500  12.7500  21.2500 Du        
  18228 ****         5.2500  12.7500  21.5000 Du        
  18229 ****         5.2500  12.7500  21.7500 Du        
  18230 ****         5.2500  12.7500  35.2500 Du        
  18231 ****         5.2500  12.7500  35.5000 Du        
  18232 ****         5.2500  12.7500  35.7500 Du        
  18233 ****         5.2500  12.7500  36.0000 Du        
  18234 ****         5.2500  12.7500  36.2500 Du        
  18235 ****         5.2500  12.7500  36.5000 Du        
  18236 ****         5.2500  12.7500  36.7500 Du        
  18237 ****         5.2500  13.0000  11.2500 Du        
  18238 ****         5.2500  13.0000  11.5000 Du        
  18239 ****         5.2500  13.0000  20.7500 Du        
  18240 ****         5.2500  13.0000  21.0000 Du        
  18241 ****         5.2500  13.0000  21.2500 Du        
  18242 ****         5.2500  13.0000  21.5000 Du        
  18243 ****         5.2500  13.0000  21.7500 Du        
  18244 ****         5.2500  13.0000  22.0000 Du        
  18245 ****         5.2500  13.0000  35.7500 Du        
  18246 ****         5.2500  13.0000  36.0000 Du        
  18247 ****         5.2500  13.0000  36.2500 Du        
  18248 ****         5.2500  13.2500  20.7500 Du        
  18249 ****         5.2500  13.2500  21.0000 Du        
  18250 ****         5.2500  13.2500  21.2500 Du        
  18251 ****         5.2500  13.2500  21.5000 Du        
  18252 ****         5.2500  13.2500  21.7500 Du        
  18253 ****         5.2500  13.2500  22.0000 Du        
  18254 ****         5.2500  13.5000  20.5000 Du        
  18255 ****         5.2500  13.5000  20.7500 Du        
  18256 ****         5.2500  13.5000  21.0000 Du        
  18257 ****         5.2500  13.5000  21.2500 Du        
  18258 ****         5.2500  13.5000  21.5000 Du        
  18259 ****         5.2500  13.5000  21.7500 Du        
  18260 ****         5.2500  13.5000  22.0000 Du        
  18261 ****         5.2500  13.7500  20.7500 Du        
  18262 ****         5.2500  13.7500  21.0000 Du        
  18263 ****         5.2500  13.7500  21.2500 Du        
  18264 ****         5.2500  13.7500  21.5000 Du        
  18265 ****         5.2500  13.7500  21.7500 Du        
  18266 ****         5.2500  13.7500  22.0000 Du        
  18267 ****         5.2500  14.0000  21.2500 Du        
  18268 ****         5.2500  14.0000  21.5000 Du        
  18269 ****         5.2500  14.0000  21.7500 Du        
  18270 ****         5.5000   2.2500  27.5000 Du        
  18271 ****         5.5000   2.2500  27.7500 Du        
  18272 ****         5.5000   2.2500  28.0000 Du        
  18273 ****         5.5000   2.5000  27.5000 Du        
  18274 ****         5.5000   2.5000  27.7500 Du        
  18275 ****         5.5000   2.5000  28.0000 Du        
  18276 ****         5.5000   2.5000  28.2500 Du        
  18277 ****         5.5000   2.7500  27.2500 Du        
  18278 ****         5.5000   2.7500  27.5000 Du        
  18279 ****         5.5000   2.7500  27.7500 Du        
  18280 ****         5.5000   2.7500  28.0000 Du        
  18281 ****         5.5000   2.7500  28.2500 Du        
  18282 ****         5.5000   2.7500  28.5000 Du        
  18283 ****         5.5000   3.0000  27.0000 Du        
  18284 ****         5.5000   3.0000  27.2500 Du        
  18285 ****         5.5000   3.0000  27.5000 Du        
  18286 ****         5.5000   3.0000  27.7500 Du        
  18287 ****         5.5000   3.0000  28.0000 Du        
  18288 ****         5.5000   3.0000  28.2500 Du        
  18289 ****         5.5000   3.0000  28.5000 Du        
  18290 ****         5.5000   3.2500  27.0000 Du        
  18291 ****         5.5000   3.2500  27.2500 Du        
  18292 ****         5.5000   3.2500  27.5000 Du        
  18293 ****         5.5000   3.2500  27.7500 Du        
  18294 ****         5.5000   3.2500  28.0000 Du        
  18295 ****         5.5000   3.2500  28.2500 Du        
  18296 ****         5.5000   3.5000  27.2500 Du        
  18297 ****         5.5000   3.5000  27.5000 Du        
  18298 ****         5.5000   3.5000  27.7500 Du        
  18299 ****         5.5000   3.5000  28.0000 Du        
  18300 ****         5.5000   6.7500  33.5000 Du        
  18301 ****         5.5000   6.7500  33.7500 Du        
  18302 ****         5.5000   6.7500  34.0000 Du        
  18303 ****         5.5000   7.0000  33.5000 Du        
  18304 ****         5.5000   7.0000  33.7500 Du        
  18305 ****         5.5000   7.0000  34.0000 Du        
  18306 ****         5.5000   7.2500  33.5000 Du        
  18307 ****         5.5000   7.2500  33.7500 Du        
  18308 ****         5.5000   7.2500  34.0000 Du        
  18309 ****         5.5000   7.2500  34.2500 Du        
  18310 ****         5.5000   7.5000  33.5000 Du        
  18311 ****         5.5000   7.5000  33.7500 Du        
  18312 ****         5.5000   7.5000  34.0000 Du        
  18313 ****         5.5000   7.7500  33.5000 Du        
  18314 ****         5.5000   7.7500  33.7500 Du        
  18315 ****         5.5000   7.7500  34.0000 Du        
  18316 ****         5.5000   7.7500  34.2500 Du        
  18317 ****         5.5000   8.0000  33.2500 Du        
  18318 ****         5.5000   8.0000  33.5000 Du        
  18319 ****         5.5000   8.0000  33.7500 Du        
  18320 ****         5.5000   8.0000  34.0000 Du        
  18321 ****         5.5000   8.0000  34.2500 Du        
  18322 ****         5.5000   8.0000  34.5000 Du        
  18323 ****         5.5000   8.2500  33.2500 Du        
  18324 ****         5.5000   8.2500  33.5000 Du        
  18325 ****         5.5000   8.2500  33.7500 Du        
  18326 ****         5.5000   8.2500  34.0000 Du        
  18327 ****         5.5000   8.2500  34.2500 Du        
  18328 ****         5.5000   8.2500  34.5000 Du        
  18329 ****         5.5000   8.5000  33.5000 Du        
  18330 ****         5.5000   8.5000  33.7500 Du        
  18331 ****         5.5000   8.5000  34.0000 Du        
  18332 ****         5.5000   8.5000  34.2500 Du        
  18333 ****         5.5000   8.5000  34.5000 Du        
  18334 ****         5.5000   8.7500  33.2500 Du        
  18335 ****         5.5000   8.7500  33.5000 Du        
  18336 ****         5.5000   8.7500  33.7500 Du        
  18337 ****         5.5000   8.7500  34.0000 Du        
  18338 ****         5.5000   8.7500  34.2500 Du        
  18339 ****         5.5000   8.7500  34.5000 Du        
  18340 ****         5.5000   9.0000  32.7500 Du        
  18341 ****         5.5000   9.0000  33.0000 Du        
  18342 ****         5.5000   9.0000  33.2500 Du        
  18343 ****         5.5000   9.0000  33.7500 Du        
  18344 ****         5.5000   9.0000  34.0000 Du        
  18345 ****         5.5000   9.0000  34.2500 Du        
  18346 ****         5.5000   9.0000  34.5000 Du        
  18347 ****         5.5000   9.2500  32.5000 Du        
  18348 ****         5.5000   9.2500  32.7500 Du        
  18349 ****         5.5000   9.2500  33.0000 Du        
  18350 ****         5.5000   9.2500  33.2500 Du        
  18351 ****         5.5000   9.2500  34.0000 Du        
  18352 ****         5.5000   9.2500  34.5000 Du        
  18353 ****         5.5000   9.2500  34.7500 Du        
  18354 ****         5.5000   9.5000  32.2500 Du        
  18355 ****         5.5000   9.5000  32.5000 Du        
  18356 ****         5.5000   9.5000  32.7500 Du        
  18357 ****         5.5000   9.5000  34.2500 Du        
  18358 ****         5.5000   9.7500  32.0000 Du        
  18359 ****         5.5000   9.7500  32.2500 Du        
  18360 ****         5.5000   9.7500  32.5000 Du        
  18361 ****         5.5000   9.7500  32.7500 Du        
  18362 ****         5.5000   9.7500  33.0000 Du        
  18363 ****         5.5000  10.0000  31.7500 Du        
  18364 ****         5.5000  10.0000  32.0000 Du        
  18365 ****         5.5000  10.0000  32.2500 Du        
  18366 ****         5.5000  10.0000  32.5000 Du        
  18367 ****         5.5000  10.0000  32.7500 Du        
  18368 ****         5.5000  10.2500  31.2500 Du        
  18369 ****         5.5000  10.2500  31.5000 Du        
  18370 ****         5.5000  10.2500  31.7500 Du        
  18371 ****         5.5000  10.2500  32.0000 Du        
  18372 ****         5.5000  10.2500  32.2500 Du        
  18373 ****         5.5000  10.5000  31.2500 Du        
  18374 ****         5.5000  10.5000  31.5000 Du        
  18375 ****         5.5000  10.5000  31.7500 Du        
  18376 ****         5.5000  10.5000  32.0000 Du        
  18377 ****         5.5000  10.5000  32.2500 Du        
  18378 ****         5.5000  10.7500  31.5000 Du        
  18379 ****         5.5000  10.7500  31.7500 Du        
  18380 ****         5.5000  10.7500  32.0000 Du        
  18381 ****         5.5000  10.7500  35.2500 Du        
  18382 ****         5.5000  10.7500  35.5000 Du        
  18383 ****         5.5000  10.7500  35.7500 Du        
  18384 ****         5.5000  11.0000  11.7500 Du        
  18385 ****         5.5000  11.0000  12.0000 Du        
  18386 ****         5.5000  11.0000  35.2500 Du        
  18387 ****         5.5000  11.0000  35.5000 Du        
  18388 ****         5.5000  11.0000  35.7500 Du        
  18389 ****         5.5000  11.0000  36.0000 Du        
  18390 ****         5.5000  11.2500  11.5000 Du        
  18391 ****         5.5000  11.2500  11.7500 Du        
  18392 ****         5.5000  11.2500  12.0000 Du        
  18393 ****         5.5000  11.2500  12.2500 Du        
  18394 ****         5.5000  11.2500  35.5000 Du        
  18395 ****         5.5000  11.2500  35.7500 Du        
  18396 ****         5.5000  11.2500  36.0000 Du        
  18397 ****         5.5000  11.2500  36.2500 Du        
  18398 ****         5.5000  11.5000  10.2500 Du        
  18399 ****         5.5000  11.5000  10.5000 Du        
  18400 ****         5.5000  11.5000  10.7500 Du        
  18401 ****         5.5000  11.5000  11.0000 Du        
  18402 ****         5.5000  11.5000  11.2500 Du        
  18403 ****         5.5000  11.5000  11.5000 Du        
  18404 ****         5.5000  11.5000  11.7500 Du        
  18405 ****         5.5000  11.5000  12.0000 Du        
  18406 ****         5.5000  11.5000  12.2500 Du        
  18407 ****         5.5000  11.5000  35.7500 Du        
  18408 ****         5.5000  11.5000  36.0000 Du        
  18409 ****         5.5000  11.5000  36.2500 Du        
  18410 ****         5.5000  11.5000  36.5000 Du        
  18411 ****         5.5000  11.7500   9.7500 Du        
  18412 ****         5.5000  11.7500  10.0000 Du        
  18413 ****         5.5000  11.7500  10.2500 Du        
  18414 ****         5.5000  11.7500  10.5000 Du        
  18415 ****         5.5000  11.7500  10.7500 Du        
  18416 ****         5.5000  11.7500  11.0000 Du        
  18417 ****         5.5000  11.7500  11.2500 Du        
  18418 ****         5.5000  11.7500  11.5000 Du        
  18419 ****         5.5000  11.7500  11.7500 Du        
  18420 ****         5.5000  11.7500  12.0000 Du        
  18421 ****         5.5000  11.7500  12.2500 Du        
  18422 ****         5.5000  11.7500  35.7500 Du        
  18423 ****         5.5000  11.7500  36.0000 Du        
  18424 ****         5.5000  11.7500  36.2500 Du        
  18425 ****         5.5000  11.7500  36.5000 Du        
  18426 ****         5.5000  11.7500  36.7500 Du        
  18427 ****         5.5000  12.0000   9.7500 Du        
  18428 ****         5.5000  12.0000  10.0000 Du        
  18429 ****         5.5000  12.0000  10.2500 Du        
  18430 ****         5.5000  12.0000  10.5000 Du        
  18431 ****         5.5000  12.0000  10.7500 Du        
  18432 ****         5.5000  12.0000  11.0000 Du        
  18433 ****         5.5000  12.0000  11.2500 Du        
  18434 ****         5.5000  12.0000  11.5000 Du        
  18435 ****         5.5000  12.0000  11.7500 Du        
  18436 ****         5.5000  12.0000  12.0000 Du        
  18437 ****         5.5000  12.0000  35.7500 Du        
  18438 ****         5.5000  12.0000  36.0000 Du        
  18439 ****         5.5000  12.0000  36.2500 Du        
  18440 ****         5.5000  12.0000  36.5000 Du        
  18441 ****         5.5000  12.0000  36.7500 Du        
  18442 ****         5.5000  12.2500   9.7500 Du        
  18443 ****         5.5000  12.2500  10.0000 Du        
  18444 ****         5.5000  12.2500  10.2500 Du        
  18445 ****         5.5000  12.2500  10.5000 Du        
  18446 ****         5.5000  12.2500  10.7500 Du        
  18447 ****         5.5000  12.2500  11.0000 Du        
  18448 ****         5.5000  12.2500  11.2500 Du        
  18449 ****         5.5000  12.2500  11.5000 Du        
  18450 ****         5.5000  12.2500  11.7500 Du        
  18451 ****         5.5000  12.2500  12.0000 Du        
  18452 ****         5.5000  12.2500  35.7500 Du        
  18453 ****         5.5000  12.2500  36.0000 Du        
  18454 ****         5.5000  12.2500  36.2500 Du        
  18455 ****         5.5000  12.2500  36.5000 Du        
  18456 ****         5.5000  12.2500  36.7500 Du        
  18457 ****         5.5000  12.5000  10.0000 Du        
  18458 ****         5.5000  12.5000  10.2500 Du        
  18459 ****         5.5000  12.5000  10.5000 Du        
  18460 ****         5.5000  12.5000  10.7500 Du        
  18461 ****         5.5000  12.5000  11.0000 Du        
  18462 ****         5.5000  12.5000  11.2500 Du        
  18463 ****         5.5000  12.5000  11.5000 Du        
  18464 ****         5.5000  12.5000  11.7500 Du        
  18465 ****         5.5000  12.5000  35.7500 Du        
  18466 ****         5.5000  12.5000  36.0000 Du        
  18467 ****         5.5000  12.5000  36.2500 Du        
  18468 ****         5.5000  12.5000  36.5000 Du        
  18469 ****         5.5000  12.5000  36.7500 Du        
  18470 ****         5.5000  12.7500  10.5000 Du        
  18471 ****         5.5000  12.7500  10.7500 Du        
  18472 ****         5.5000  12.7500  11.0000 Du        
  18473 ****         5.5000  12.7500  11.2500 Du        
  18474 ****         5.5000  12.7500  11.5000 Du        
  18475 ****         5.5000  12.7500  11.7500 Du        
  18476 ****         5.5000  12.7500  21.2500 Du        
  18477 ****         5.5000  12.7500  21.5000 Du        
  18478 ****         5.5000  12.7500  21.7500 Du        
  18479 ****         5.5000  12.7500  36.0000 Du        
  18480 ****         5.5000  12.7500  36.2500 Du        
  18481 ****         5.5000  12.7500  36.5000 Du        
  18482 ****         5.5000  12.7500  36.7500 Du        
  18483 ****         5.5000  13.0000  11.0000 Du        
  18484 ****         5.5000  13.0000  11.2500 Du        
  18485 ****         5.5000  13.0000  11.5000 Du        
  18486 ****         5.5000  13.0000  11.7500 Du        
  18487 ****         5.5000  13.0000  21.2500 Du        
  18488 ****         5.5000  13.0000  21.5000 Du        
  18489 ****         5.5000  13.0000  21.7500 Du        
  18490 ****         5.5000  13.0000  22.0000 Du        
  18491 ****         5.5000  13.0000  36.2500 Du        
  18492 ****         5.5000  13.0000  36.5000 Du        
  18493 ****         5.5000  13.2500  11.2500 Du        
  18494 ****         5.5000  13.2500  11.5000 Du        
  18495 ****         5.5000  13.2500  21.2500 Du        
  18496 ****         5.5000  13.2500  21.5000 Du        
  18497 ****         5.5000  13.2500  21.7500 Du        
  18498 ****         5.5000  13.2500  22.0000 Du        
  18499 ****         5.5000  13.5000  21.2500 Du        
  18500 ****         5.5000  13.5000  21.5000 Du        
  18501 ****         5.5000  13.5000  21.7500 Du        
  18502 ****         5.5000  13.5000  22.0000 Du        
  18503 ****         5.5000  13.7500  21.2500 Du        
  18504 ****         5.5000  13.7500  21.5000 Du        
  18505 ****         5.5000  13.7500  21.7500 Du        
  18506 ****         5.5000  13.7500  22.0000 Du        
  18507 ****         5.5000  14.0000  21.7500 Du        
  18508 ****         5.7500   2.5000  27.5000 Du        
  18509 ****         5.7500   2.5000  27.7500 Du        
  18510 ****         5.7500   2.7500  27.5000 Du        
  18511 ****         5.7500   2.7500  27.7500 Du        
  18512 ****         5.7500   2.7500  28.0000 Du        
  18513 ****         5.7500   3.0000  27.0000 Du        
  18514 ****         5.7500   3.0000  27.2500 Du        
  18515 ****         5.7500   3.0000  27.5000 Du        
  18516 ****         5.7500   3.0000  27.7500 Du        
  18517 ****         5.7500   3.0000  28.0000 Du        
  18518 ****         5.7500   3.0000  28.2500 Du        
  18519 ****         5.7500   3.2500  27.0000 Du        
  18520 ****         5.7500   3.2500  27.2500 Du        
  18521 ****         5.7500   3.2500  27.5000 Du        
  18522 ****         5.7500   3.2500  27.7500 Du        
  18523 ****         5.7500   3.2500  28.0000 Du        
  18524 ****         5.7500   3.5000  27.0000 Du        
  18525 ****         5.7500   3.5000  27.2500 Du        
  18526 ****         5.7500   3.5000  27.5000 Du        
  18527 ****         5.7500   3.7500  27.0000 Du        
  18528 ****         5.7500   7.2500  33.7500 Du        
  18529 ****         5.7500   7.2500  34.0000 Du        
  18530 ****         5.7500   7.5000  33.7500 Du        
  18531 ****         5.7500   7.5000  34.0000 Du        
  18532 ****         5.7500   7.7500  33.5000 Du        
  18533 ****         5.7500   7.7500  33.7500 Du        
  18534 ****         5.7500   7.7500  34.0000 Du        
  18535 ****         5.7500   8.0000  33.5000 Du        
  18536 ****         5.7500   8.0000  33.7500 Du        
  18537 ****         5.7500   8.0000  34.0000 Du        
  18538 ****         5.7500   8.0000  34.2500 Du        
  18539 ****         5.7500   8.2500  33.2500 Du        
  18540 ****         5.7500   8.2500  33.5000 Du        
  18541 ****         5.7500   8.2500  33.7500 Du        
  18542 ****         5.7500   8.2500  34.0000 Du        
  18543 ****         5.7500   8.2500  34.2500 Du        
  18544 ****         5.7500   8.5000  33.2500 Du        
  18545 ****         5.7500   8.5000  33.5000 Du        
  18546 ****         5.7500   8.5000  33.7500 Du        
  18547 ****         5.7500   8.5000  34.0000 Du        
  18548 ****         5.7500   8.5000  34.2500 Du        
  18549 ****         5.7500   8.5000  34.5000 Du        
  18550 ****         5.7500   8.7500  33.0000 Du        
  18551 ****         5.7500   8.7500  33.2500 Du        
  18552 ****         5.7500   8.7500  33.5000 Du        
  18553 ****         5.7500   8.7500  33.7500 Du        
  18554 ****         5.7500   8.7500  34.0000 Du        
  18555 ****         5.7500   8.7500  34.2500 Du        
  18556 ****         5.7500   8.7500  34.5000 Du        
  18557 ****         5.7500   9.0000  32.7500 Du        
  18558 ****         5.7500   9.0000  33.0000 Du        
  18559 ****         5.7500   9.0000  33.2500 Du        
  18560 ****         5.7500   9.0000  33.5000 Du        
  18561 ****         5.7500   9.0000  33.7500 Du        
  18562 ****         5.7500   9.0000  34.0000 Du        
  18563 ****         5.7500   9.0000  34.2500 Du        
  18564 ****         5.7500   9.0000  34.5000 Du        
  18565 ****         5.7500   9.0000  34.7500 Du        
  18566 ****         5.7500   9.2500  32.5000 Du        
  18567 ****         5.7500   9.2500  32.7500 Du        
  18568 ****         5.7500   9.2500  33.0000 Du        
  18569 ****         5.7500   9.2500  33.2500 Du        
  18570 ****         5.7500   9.2500  33.5000 Du        
  18571 ****         5.7500   9.2500  33.7500 Du        
  18572 ****         5.7500   9.2500  34.0000 Du        
  18573 ****         5.7500   9.2500  34.2500 Du        
  18574 ****         5.7500   9.2500  34.5000 Du        
  18575 ****         5.7500   9.2500  34.7500 Du        
  18576 ****         5.7500   9.2500  35.0000 Du        
  18577 ****         5.7500   9.5000  32.2500 Du        
  18578 ****         5.7500   9.5000  32.5000 Du        
  18579 ****         5.7500   9.5000  32.7500 Du        
  18580 ****         5.7500   9.5000  33.0000 Du        
  18581 ****         5.7500   9.5000  33.2500 Du        
  18582 ****         5.7500   9.5000  33.7500 Du        
  18583 ****         5.7500   9.5000  34.0000 Du        
  18584 ****         5.7500   9.5000  34.2500 Du        
  18585 ****         5.7500   9.5000  34.5000 Du        
  18586 ****         5.7500   9.5000  34.7500 Du        
  18587 ****         5.7500   9.5000  35.0000 Du        
  18588 ****         5.7500   9.7500  32.0000 Du        
  18589 ****         5.7500   9.7500  32.2500 Du        
  18590 ****         5.7500   9.7500  32.5000 Du        
  18591 ****         5.7500   9.7500  32.7500 Du        
  18592 ****         5.7500   9.7500  33.0000 Du        
  18593 ****         5.7500   9.7500  34.0000 Du        
  18594 ****         5.7500   9.7500  34.2500 Du        
  18595 ****         5.7500   9.7500  34.5000 Du        
  18596 ****         5.7500   9.7500  34.7500 Du        
  18597 ****         5.7500   9.7500  35.0000 Du        
  18598 ****         5.7500  10.0000  31.7500 Du        
  18599 ****         5.7500  10.0000  32.0000 Du        
  18600 ****         5.7500  10.0000  32.2500 Du        
  18601 ****         5.7500  10.0000  32.5000 Du        
  18602 ****         5.7500  10.0000  34.7500 Du        
  18603 ****         5.7500  10.0000  35.0000 Du        
  18604 ****         5.7500  10.2500  31.2500 Du        
  18605 ****         5.7500  10.2500  31.5000 Du        
  18606 ****         5.7500  10.2500  31.7500 Du        
  18607 ****         5.7500  10.2500  32.0000 Du        
  18608 ****         5.7500  10.2500  35.5000 Du        
  18609 ****         5.7500  10.5000  31.0000 Du        
  18610 ****         5.7500  10.5000  31.2500 Du        
  18611 ****         5.7500  10.5000  31.5000 Du        
  18612 ****         5.7500  10.5000  31.7500 Du        
  18613 ****         5.7500  10.5000  32.0000 Du        
  18614 ****         5.7500  10.7500  31.0000 Du        
  18615 ****         5.7500  10.7500  31.2500 Du        
  18616 ****         5.7500  10.7500  31.5000 Du        
  18617 ****         5.7500  10.7500  31.7500 Du        
  18618 ****         5.7500  10.7500  35.5000 Du        
  18619 ****         5.7500  10.7500  35.7500 Du        
  18620 ****         5.7500  11.0000  35.5000 Du        
  18621 ****         5.7500  11.0000  35.7500 Du        
  18622 ****         5.7500  11.0000  36.0000 Du        
  18623 ****         5.7500  11.2500  11.5000 Du        
  18624 ****         5.7500  11.2500  11.7500 Du        
  18625 ****         5.7500  11.2500  12.0000 Du        
  18626 ****         5.7500  11.2500  35.7500 Du        
  18627 ****         5.7500  11.2500  36.0000 Du        
  18628 ****         5.7500  11.2500  36.2500 Du        
  18629 ****         5.7500  11.5000  10.5000 Du        
  18630 ****         5.7500  11.5000  10.7500 Du        
  18631 ****         5.7500  11.5000  11.0000 Du        
  18632 ****         5.7500  11.5000  11.2500 Du        
  18633 ****         5.7500  11.5000  11.5000 Du        
  18634 ****         5.7500  11.5000  11.7500 Du        
  18635 ****         5.7500  11.5000  12.0000 Du        
  18636 ****         5.7500  11.5000  36.0000 Du        
  18637 ****         5.7500  11.5000  36.2500 Du        
  18638 ****         5.7500  11.5000  36.5000 Du        
  18639 ****         5.7500  11.7500  10.0000 Du        
  18640 ****         5.7500  11.7500  10.2500 Du        
  18641 ****         5.7500  11.7500  10.5000 Du        
  18642 ****         5.7500  11.7500  10.7500 Du        
  18643 ****         5.7500  11.7500  11.0000 Du        
  18644 ****         5.7500  11.7500  11.2500 Du        
  18645 ****         5.7500  11.7500  11.5000 Du        
  18646 ****         5.7500  11.7500  11.7500 Du        
  18647 ****         5.7500  11.7500  12.0000 Du        
  18648 ****         5.7500  11.7500  36.0000 Du        
  18649 ****         5.7500  11.7500  36.2500 Du        
  18650 ****         5.7500  11.7500  36.5000 Du        
  18651 ****         5.7500  11.7500  36.7500 Du        
  18652 ****         5.7500  12.0000   9.7500 Du        
  18653 ****         5.7500  12.0000  10.0000 Du        
  18654 ****         5.7500  12.0000  10.2500 Du        
  18655 ****         5.7500  12.0000  10.5000 Du        
  18656 ****         5.7500  12.0000  10.7500 Du        
  18657 ****         5.7500  12.0000  11.0000 Du        
  18658 ****         5.7500  12.0000  11.2500 Du        
  18659 ****         5.7500  12.0000  11.5000 Du        
  18660 ****         5.7500  12.0000  11.7500 Du        
  18661 ****         5.7500  12.0000  12.0000 Du        
  18662 ****         5.7500  12.0000  36.0000 Du        
  18663 ****         5.7500  12.0000  36.2500 Du        
  18664 ****         5.7500  12.0000  36.5000 Du        
  18665 ****         5.7500  12.0000  36.7500 Du        
  18666 ****         5.7500  12.0000  37.0000 Du        
  18667 ****         5.7500  12.2500   9.7500 Du        
  18668 ****         5.7500  12.2500  10.0000 Du        
  18669 ****         5.7500  12.2500  10.2500 Du        
  18670 ****         5.7500  12.2500  10.5000 Du        
  18671 ****         5.7500  12.2500  10.7500 Du        
  18672 ****         5.7500  12.2500  11.0000 Du        
  18673 ****         5.7500  12.2500  11.2500 Du        
  18674 ****         5.7500  12.2500  11.5000 Du        
  18675 ****         5.7500  12.2500  11.7500 Du        
  18676 ****         5.7500  12.2500  36.0000 Du        
  18677 ****         5.7500  12.2500  36.2500 Du        
  18678 ****         5.7500  12.2500  36.5000 Du        
  18679 ****         5.7500  12.2500  36.7500 Du        
  18680 ****         5.7500  12.2500  37.0000 Du        
  18681 ****         5.7500  12.5000  10.0000 Du        
  18682 ****         5.7500  12.5000  10.2500 Du        
  18683 ****         5.7500  12.5000  10.5000 Du        
  18684 ****         5.7500  12.5000  10.7500 Du        
  18685 ****         5.7500  12.5000  11.0000 Du        
  18686 ****         5.7500  12.5000  11.2500 Du        
  18687 ****         5.7500  12.5000  11.5000 Du        
  18688 ****         5.7500  12.5000  11.7500 Du        
  18689 ****         5.7500  12.5000  36.2500 Du        
  18690 ****         5.7500  12.5000  36.5000 Du        
  18691 ****         5.7500  12.5000  36.7500 Du        
  18692 ****         5.7500  12.5000  37.0000 Du        
  18693 ****         5.7500  12.7500  10.2500 Du        
  18694 ****         5.7500  12.7500  10.5000 Du        
  18695 ****         5.7500  12.7500  10.7500 Du        
  18696 ****         5.7500  12.7500  11.0000 Du        
  18697 ****         5.7500  12.7500  11.2500 Du        
  18698 ****         5.7500  12.7500  11.5000 Du        
  18699 ****         5.7500  12.7500  11.7500 Du        
  18700 ****         5.7500  12.7500  36.2500 Du        
  18701 ****         5.7500  12.7500  36.5000 Du        
  18702 ****         5.7500  12.7500  36.7500 Du        
  18703 ****         5.7500  12.7500  37.0000 Du        
  18704 ****         5.7500  13.0000  10.7500 Du        
  18705 ****         5.7500  13.0000  11.0000 Du        
  18706 ****         5.7500  13.0000  11.2500 Du        
  18707 ****         5.7500  13.0000  11.5000 Du        
  18708 ****         5.7500  13.0000  11.7500 Du        
  18709 ****         5.7500  13.0000  21.7500 Du        
  18710 ****         5.7500  13.0000  36.5000 Du        
  18711 ****         5.7500  13.0000  36.7500 Du        
  18712 ****         5.7500  13.2500  11.0000 Du        
  18713 ****         5.7500  13.2500  11.2500 Du        
  18714 ****         5.7500  13.2500  11.5000 Du        
  18715 ****         5.7500  13.2500  21.7500 Du        
  18716 ****         5.7500  13.2500  22.0000 Du        
  18717 ****         5.7500  13.5000  21.7500 Du        
  18718 ****         5.7500  13.5000  22.0000 Du        
  18719 ****         5.7500  13.7500  21.7500 Du        
  18720 ****         5.7500  13.7500  22.0000 Du        
  18721 ****         6.0000   3.0000  27.5000 Du        
  18722 ****         6.0000   3.0000  27.7500 Du        
  18723 ****         6.0000   3.2500  27.2500 Du        
  18724 ****         6.0000   3.2500  27.5000 Du        
  18725 ****         6.0000   3.2500  27.7500 Du        
  18726 ****         6.0000   8.0000  34.0000 Du        
  18727 ****         6.0000   8.2500  33.5000 Du        
  18728 ****         6.0000   8.2500  33.7500 Du        
  18729 ****         6.0000   8.2500  34.0000 Du        
  18730 ****         6.0000   8.2500  34.2500 Du        
  18731 ****         6.0000   8.5000  33.5000 Du        
  18732 ****         6.0000   8.5000  33.7500 Du        
  18733 ****         6.0000   8.5000  34.0000 Du        
  18734 ****         6.0000   8.5000  34.2500 Du        
  18735 ****         6.0000   8.7500  33.0000 Du        
  18736 ****         6.0000   8.7500  33.2500 Du        
  18737 ****         6.0000   8.7500  33.5000 Du        
  18738 ****         6.0000   8.7500  33.7500 Du        
  18739 ****         6.0000   8.7500  34.0000 Du        
  18740 ****         6.0000   8.7500  34.2500 Du        
  18741 ****         6.0000   8.7500  34.5000 Du        
  18742 ****         6.0000   9.0000  32.7500 Du        
  18743 ****         6.0000   9.0000  33.0000 Du        
  18744 ****         6.0000   9.0000  33.2500 Du        
  18745 ****         6.0000   9.0000  33.5000 Du        
  18746 ****         6.0000   9.0000  33.7500 Du        
  18747 ****         6.0000   9.0000  34.0000 Du        
  18748 ****         6.0000   9.0000  34.2500 Du        
  18749 ****         6.0000   9.0000  34.5000 Du        
  18750 ****         6.0000   9.0000  34.7500 Du        
  18751 ****         6.0000   9.2500  32.5000 Du        
  18752 ****         6.0000   9.2500  32.7500 Du        
  18753 ****         6.0000   9.2500  33.0000 Du        
  18754 ****         6.0000   9.2500  33.2500 Du        
  18755 ****         6.0000   9.2500  33.5000 Du        
  18756 ****         6.0000   9.2500  33.7500 Du        
  18757 ****         6.0000   9.2500  34.0000 Du        
  18758 ****         6.0000   9.2500  34.2500 Du        
  18759 ****         6.0000   9.2500  34.5000 Du        
  18760 ****         6.0000   9.2500  34.7500 Du        
  18761 ****         6.0000   9.2500  35.0000 Du        
  18762 ****         6.0000   9.5000  32.2500 Du        
  18763 ****         6.0000   9.5000  32.5000 Du        
  18764 ****         6.0000   9.5000  32.7500 Du        
  18765 ****         6.0000   9.5000  33.0000 Du        
  18766 ****         6.0000   9.5000  33.2500 Du        
  18767 ****         6.0000   9.5000  33.5000 Du        
  18768 ****         6.0000   9.5000  33.7500 Du        
  18769 ****         6.0000   9.5000  34.0000 Du        
  18770 ****         6.0000   9.5000  34.2500 Du        
  18771 ****         6.0000   9.5000  34.5000 Du        
  18772 ****         6.0000   9.5000  34.7500 Du        
  18773 ****         6.0000   9.5000  35.0000 Du        
  18774 ****         6.0000   9.7500  32.0000 Du        
  18775 ****         6.0000   9.7500  32.2500 Du        
  18776 ****         6.0000   9.7500  32.5000 Du        
  18777 ****         6.0000   9.7500  32.7500 Du        
  18778 ****         6.0000   9.7500  33.0000 Du        
  18779 ****         6.0000   9.7500  33.7500 Du        
  18780 ****         6.0000   9.7500  34.0000 Du        
  18781 ****         6.0000   9.7500  34.2500 Du        
  18782 ****         6.0000   9.7500  34.5000 Du        
  18783 ****         6.0000   9.7500  34.7500 Du        
  18784 ****         6.0000   9.7500  35.0000 Du        
  18785 ****         6.0000   9.7500  35.2500 Du        
  18786 ****         6.0000  10.0000  31.7500 Du        
  18787 ****         6.0000  10.0000  32.0000 Du        
  18788 ****         6.0000  10.0000  32.2500 Du        
  18789 ****         6.0000  10.0000  34.7500 Du        
  18790 ****         6.0000  10.0000  35.0000 Du        
  18791 ****         6.0000  10.0000  35.2500 Du        
  18792 ****         6.0000  10.0000  35.5000 Du        
  18793 ****         6.0000  10.2500  31.5000 Du        
  18794 ****         6.0000  10.2500  31.7500 Du        
  18795 ****         6.0000  10.2500  35.5000 Du        
  18796 ****         6.0000  10.5000  31.0000 Du        
  18797 ****         6.0000  10.5000  31.2500 Du        
  18798 ****         6.0000  10.5000  31.5000 Du        
  18799 ****         6.0000  10.5000  31.7500 Du        
  18800 ****         6.0000  10.7500  30.7500 Du        
  18801 ****         6.0000  10.7500  31.0000 Du        
  18802 ****         6.0000  10.7500  31.2500 Du        
  18803 ****         6.0000  10.7500  31.5000 Du        
  18804 ****         6.0000  10.7500  35.7500 Du        
  18805 ****         6.0000  11.0000  31.0000 Du        
  18806 ****         6.0000  11.0000  31.2500 Du        
  18807 ****         6.0000  11.0000  35.7500 Du        
  18808 ****         6.0000  11.0000  36.0000 Du        
  18809 ****         6.0000  11.2500  11.5000 Du        
  18810 ****         6.0000  11.2500  11.7500 Du        
  18811 ****         6.0000  11.2500  12.0000 Du        
  18812 ****         6.0000  11.2500  36.0000 Du        
  18813 ****         6.0000  11.2500  36.2500 Du        
  18814 ****         6.0000  11.5000  10.7500 Du        
  18815 ****         6.0000  11.5000  11.0000 Du        
  18816 ****         6.0000  11.5000  11.2500 Du        
  18817 ****         6.0000  11.5000  11.5000 Du        
  18818 ****         6.0000  11.5000  11.7500 Du        
  18819 ****         6.0000  11.5000  12.0000 Du        
  18820 ****         6.0000  11.5000  36.2500 Du        
  18821 ****         6.0000  11.5000  36.5000 Du        
  18822 ****         6.0000  11.5000  36.7500 Du        
  18823 ****         6.0000  11.7500  10.2500 Du        
  18824 ****         6.0000  11.7500  10.5000 Du        
  18825 ****         6.0000  11.7500  10.7500 Du        
  18826 ****         6.0000  11.7500  11.0000 Du        
  18827 ****         6.0000  11.7500  11.2500 Du        
  18828 ****         6.0000  11.7500  11.5000 Du        
  18829 ****         6.0000  11.7500  11.7500 Du        
  18830 ****         6.0000  11.7500  36.2500 Du        
  18831 ****         6.0000  11.7500  36.5000 Du        
  18832 ****         6.0000  11.7500  36.7500 Du        
  18833 ****         6.0000  11.7500  37.0000 Du        
  18834 ****         6.0000  12.0000  10.0000 Du        
  18835 ****         6.0000  12.0000  10.2500 Du        
  18836 ****         6.0000  12.0000  10.5000 Du        
  18837 ****         6.0000  12.0000  10.7500 Du        
  18838 ****         6.0000  12.0000  11.0000 Du        
  18839 ****         6.0000  12.0000  11.2500 Du        
  18840 ****         6.0000  12.0000  11.5000 Du        
  18841 ****         6.0000  12.0000  11.7500 Du        
  18842 ****         6.0000  12.0000  36.2500 Du        
  18843 ****         6.0000  12.0000  36.5000 Du        
  18844 ****         6.0000  12.0000  36.7500 Du        
  18845 ****         6.0000  12.0000  37.0000 Du        
  18846 ****         6.0000  12.2500   9.7500 Du        
  18847 ****         6.0000  12.2500  10.0000 Du        
  18848 ****         6.0000  12.2500  10.2500 Du        
  18849 ****         6.0000  12.2500  10.5000 Du        
  18850 ****         6.0000  12.2500  10.7500 Du        
  18851 ****         6.0000  12.2500  11.0000 Du        
  18852 ****         6.0000  12.2500  11.2500 Du        
  18853 ****         6.0000  12.2500  11.5000 Du        
  18854 ****         6.0000  12.2500  11.7500 Du        
  18855 ****         6.0000  12.2500  36.2500 Du        
  18856 ****         6.0000  12.2500  36.5000 Du        
  18857 ****         6.0000  12.2500  36.7500 Du        
  18858 ****         6.0000  12.2500  37.0000 Du        
  18859 ****         6.0000  12.5000  10.0000 Du        
  18860 ****         6.0000  12.5000  10.2500 Du        
  18861 ****         6.0000  12.5000  10.5000 Du        
  18862 ****         6.0000  12.5000  10.7500 Du        
  18863 ****         6.0000  12.5000  11.0000 Du        
  18864 ****         6.0000  12.5000  11.2500 Du        
  18865 ****         6.0000  12.5000  11.5000 Du        
  18866 ****         6.0000  12.5000  36.5000 Du        
  18867 ****         6.0000  12.5000  36.7500 Du        
  18868 ****         6.0000  12.5000  37.0000 Du        
  18869 ****         6.0000  12.7500  10.0000 Du        
  18870 ****         6.0000  12.7500  10.2500 Du        
  18871 ****         6.0000  12.7500  10.5000 Du        
  18872 ****         6.0000  12.7500  10.7500 Du        
  18873 ****         6.0000  12.7500  11.0000 Du        
  18874 ****         6.0000  12.7500  11.2500 Du        
  18875 ****         6.0000  12.7500  11.5000 Du        
  18876 ****         6.0000  12.7500  36.5000 Du        
  18877 ****         6.0000  12.7500  36.7500 Du        
  18878 ****         6.0000  12.7500  37.0000 Du        
  18879 ****         6.0000  13.0000  10.5000 Du        
  18880 ****         6.0000  13.0000  10.7500 Du        
  18881 ****         6.0000  13.0000  11.0000 Du        
  18882 ****         6.0000  13.0000  11.2500 Du        
  18883 ****         6.0000  13.0000  11.5000 Du        
  18884 ****         6.0000  13.0000  36.5000 Du        
  18885 ****         6.0000  13.0000  36.7500 Du        
  18886 ****         6.0000  13.0000  37.0000 Du        
  18887 ****         6.0000  13.2500  10.7500 Du        
  18888 ****         6.0000  13.2500  11.0000 Du        
  18889 ****         6.0000  13.2500  11.2500 Du        
  18890 ****         6.0000  13.2500  11.5000 Du        
  18891 ****         6.0000  13.5000  11.2500 Du        
  18892 ****         6.0000  13.5000  11.5000 Du        
  18893 ****         6.2500   8.7500  33.5000 Du        
  18894 ****         6.2500   8.7500  33.7500 Du        
  18895 ****         6.2500   8.7500  34.0000 Du        
  18896 ****         6.2500   8.7500  34.2500 Du        
  18897 ****         6.2500   8.7500  34.5000 Du        
  18898 ****         6.2500   9.0000  32.7500 Du        
  18899 ****         6.2500   9.0000  33.0000 Du        
  18900 ****         6.2500   9.0000  33.2500 Du        
  18901 ****         6.2500   9.0000  33.5000 Du        
  18902 ****         6.2500   9.0000  33.7500 Du        
  18903 ****         6.2500   9.0000  34.0000 Du        
  18904 ****         6.2500   9.0000  34.2500 Du        
  18905 ****         6.2500   9.0000  34.5000 Du        
  18906 ****         6.2500   9.0000  34.7500 Du        
  18907 ****         6.2500   9.2500  32.5000 Du        
  18908 ****         6.2500   9.2500  32.7500 Du        
  18909 ****         6.2500   9.2500  33.0000 Du        
  18910 ****         6.2500   9.2500  33.2500 Du        
  18911 ****         6.2500   9.2500  33.5000 Du        
  18912 ****         6.2500   9.2500  33.7500 Du        
  18913 ****         6.2500   9.2500  34.0000 Du        
  18914 ****         6.2500   9.2500  34.2500 Du        
  18915 ****         6.2500   9.2500  34.5000 Du        
  18916 ****         6.2500   9.2500  34.7500 Du        
  18917 ****         6.2500   9.2500  35.0000 Du        
  18918 ****         6.2500   9.5000  32.2500 Du        
  18919 ****         6.2500   9.5000  32.5000 Du        
  18920 ****         6.2500   9.5000  32.7500 Du        
  18921 ****         6.2500   9.5000  33.0000 Du        
  18922 ****         6.2500   9.5000  33.2500 Du        
  18923 ****         6.2500   9.5000  33.5000 Du        
  18924 ****         6.2500   9.5000  33.7500 Du        
  18925 ****         6.2500   9.5000  34.0000 Du        
  18926 ****         6.2500   9.5000  34.2500 Du        
  18927 ****         6.2500   9.5000  34.5000 Du        
  18928 ****         6.2500   9.5000  34.7500 Du        
  18929 ****         6.2500   9.5000  35.0000 Du        
  18930 ****         6.2500   9.7500  32.2500 Du        
  18931 ****         6.2500   9.7500  34.0000 Du        
  18932 ****         6.2500   9.7500  34.2500 Du        
  18933 ****         6.2500   9.7500  34.5000 Du        
  18934 ****         6.2500   9.7500  34.7500 Du        
  18935 ****         6.2500   9.7500  35.0000 Du        
  18936 ****         6.2500   9.7500  35.2500 Du        
  18937 ****         6.2500  10.0000  34.7500 Du        
  18938 ****         6.2500  10.0000  35.0000 Du        
  18939 ****         6.2500  10.0000  35.2500 Du        
  18940 ****         6.2500  10.0000  35.5000 Du        
  18941 ****         6.2500  10.2500  35.5000 Du        
  18942 ****         6.2500  10.2500  35.7500 Du        
  18943 ****         6.2500  10.5000  31.2500 Du        
  18944 ****         6.2500  10.7500  30.7500 Du        
  18945 ****         6.2500  10.7500  31.0000 Du        
  18946 ****         6.2500  10.7500  31.2500 Du        
  18947 ****         6.2500  11.0000  30.5000 Du        
  18948 ****         6.2500  11.0000  30.7500 Du        
  18949 ****         6.2500  11.0000  31.0000 Du        
  18950 ****         6.2500  11.0000  36.0000 Du        
  18951 ****         6.2500  11.2500  36.2500 Du        
  18952 ****         6.2500  11.5000  11.2500 Du        
  18953 ****         6.2500  11.5000  11.7500 Du        
  18954 ****         6.2500  11.5000  36.5000 Du        
  18955 ****         6.2500  11.5000  36.7500 Du        
  18956 ****         6.2500  11.7500  10.2500 Du        
  18957 ****         6.2500  11.7500  10.5000 Du        
  18958 ****         6.2500  11.7500  10.7500 Du        
  18959 ****         6.2500  11.7500  11.0000 Du        
  18960 ****         6.2500  11.7500  11.2500 Du        
  18961 ****         6.2500  11.7500  11.5000 Du        
  18962 ****         6.2500  11.7500  11.7500 Du        
  18963 ****         6.2500  11.7500  36.5000 Du        
  18964 ****         6.2500  11.7500  36.7500 Du        
  18965 ****         6.2500  11.7500  37.0000 Du        
  18966 ****         6.2500  12.0000  10.0000 Du        
  18967 ****         6.2500  12.0000  10.2500 Du        
  18968 ****         6.2500  12.0000  10.5000 Du        
  18969 ****         6.2500  12.0000  10.7500 Du        
  18970 ****         6.2500  12.0000  11.0000 Du        
  18971 ****         6.2500  12.0000  11.2500 Du        
  18972 ****         6.2500  12.0000  11.5000 Du        
  18973 ****         6.2500  12.0000  11.7500 Du        
  18974 ****         6.2500  12.0000  36.5000 Du        
  18975 ****         6.2500  12.0000  36.7500 Du        
  18976 ****         6.2500  12.0000  37.0000 Du        
  18977 ****         6.2500  12.2500   9.7500 Du        
  18978 ****         6.2500  12.2500  10.0000 Du        
  18979 ****         6.2500  12.2500  10.2500 Du        
  18980 ****         6.2500  12.2500  10.5000 Du        
  18981 ****         6.2500  12.2500  10.7500 Du        
  18982 ****         6.2500  12.2500  11.0000 Du        
  18983 ****         6.2500  12.2500  11.2500 Du        
  18984 ****         6.2500  12.2500  11.5000 Du        
  18985 ****         6.2500  12.2500  36.5000 Du        
  18986 ****         6.2500  12.2500  36.7500 Du        
  18987 ****         6.2500  12.2500  37.0000 Du        
  18988 ****         6.2500  12.2500  37.2500 Du        
  18989 ****         6.2500  12.5000  10.0000 Du        
  18990 ****         6.2500  12.5000  10.2500 Du        
  18991 ****         6.2500  12.5000  10.5000 Du        
  18992 ****         6.2500  12.5000  10.7500 Du        
  18993 ****         6.2500  12.5000  11.0000 Du        
  18994 ****         6.2500  12.5000  11.2500 Du        
  18995 ****         6.2500  12.5000  11.5000 Du        
  18996 ****         6.2500  12.5000  36.5000 Du        
  18997 ****         6.2500  12.5000  36.7500 Du        
  18998 ****         6.2500  12.5000  37.0000 Du        
  18999 ****         6.2500  12.5000  37.2500 Du        
  19000 ****         6.2500  12.7500  10.0000 Du        
  19001 ****         6.2500  12.7500  10.2500 Du        
  19002 ****         6.2500  12.7500  10.5000 Du        
  19003 ****         6.2500  12.7500  10.7500 Du        
  19004 ****         6.2500  12.7500  11.0000 Du        
  19005 ****         6.2500  12.7500  11.2500 Du        
  19006 ****         6.2500  12.7500  11.5000 Du        
  19007 ****         6.2500  12.7500  36.7500 Du        
  19008 ****         6.2500  12.7500  37.0000 Du        
  19009 ****         6.2500  12.7500  37.2500 Du        
  19010 ****         6.2500  13.0000  10.2500 Du        
  19011 ****         6.2500  13.0000  10.5000 Du        
  19012 ****         6.2500  13.0000  10.7500 Du        
  19013 ****         6.2500  13.0000  11.0000 Du        
  19014 ****         6.2500  13.0000  11.2500 Du        
  19015 ****         6.2500  13.0000  11.5000 Du        
  19016 ****         6.2500  13.0000  36.7500 Du        
  19017 ****         6.2500  13.0000  37.0000 Du        
  19018 ****         6.2500  13.0000  37.2500 Du        
  19019 ****         6.2500  13.2500  10.5000 Du        
  19020 ****         6.2500  13.2500  10.7500 Du        
  19021 ****         6.2500  13.2500  11.0000 Du        
  19022 ****         6.2500  13.2500  11.2500 Du        
  19023 ****         6.2500  13.2500  11.5000 Du        
  19024 ****         6.2500  13.2500  37.0000 Du        
  19025 ****         6.2500  13.2500  37.2500 Du        
  19026 ****         6.2500  13.5000  11.0000 Du        
  19027 ****         6.2500  13.5000  11.2500 Du        
  19028 ****         6.2500  13.5000  11.5000 Du        
  19029 ****         6.2500  13.7500  11.2500 Du        
  19030 ****         6.5000  -2.7500  28.0000 Du        
  19031 ****         6.5000  -2.7500  28.2500 Du        
  19032 ****         6.5000  -2.5000  27.7500 Du        
  19033 ****         6.5000  -2.5000  28.0000 Du        
  19034 ****         6.5000  -2.5000  28.2500 Du        
  19035 ****         6.5000  -2.2500  27.5000 Du        
  19036 ****         6.5000  -2.2500  27.7500 Du        
  19037 ****         6.5000  -2.2500  28.0000 Du        
  19038 ****         6.5000  -2.0000  27.5000 Du        
  19039 ****         6.5000  -2.0000  27.7500 Du        
  19040 ****         6.5000  -2.0000  28.0000 Du        
  19041 ****         6.5000   8.7500  34.0000 Du        
  19042 ****         6.5000   8.7500  34.2500 Du        
  19043 ****         6.5000   8.7500  34.5000 Du        
  19044 ****         6.5000   9.0000  33.0000 Du        
  19045 ****         6.5000   9.0000  33.2500 Du        
  19046 ****         6.5000   9.0000  33.5000 Du        
  19047 ****         6.5000   9.0000  33.7500 Du        
  19048 ****         6.5000   9.0000  34.0000 Du        
  19049 ****         6.5000   9.0000  34.2500 Du        
  19050 ****         6.5000   9.0000  34.5000 Du        
  19051 ****         6.5000   9.0000  34.7500 Du        
  19052 ****         6.5000   9.2500  32.5000 Du        
  19053 ****         6.5000   9.2500  32.7500 Du        
  19054 ****         6.5000   9.2500  33.0000 Du        
  19055 ****         6.5000   9.2500  33.2500 Du        
  19056 ****         6.5000   9.2500  33.5000 Du        
  19057 ****         6.5000   9.2500  33.7500 Du        
  19058 ****         6.5000   9.2500  34.0000 Du        
  19059 ****         6.5000   9.2500  34.2500 Du        
  19060 ****         6.5000   9.2500  34.5000 Du        
  19061 ****         6.5000   9.2500  34.7500 Du        
  19062 ****         6.5000   9.2500  35.0000 Du        
  19063 ****         6.5000   9.5000  32.2500 Du        
  19064 ****         6.5000   9.5000  32.5000 Du        
  19065 ****         6.5000   9.5000  32.7500 Du        
  19066 ****         6.5000   9.5000  33.0000 Du        
  19067 ****         6.5000   9.5000  33.2500 Du        
  19068 ****         6.5000   9.5000  33.5000 Du        
  19069 ****         6.5000   9.5000  33.7500 Du        
  19070 ****         6.5000   9.5000  34.0000 Du        
  19071 ****         6.5000   9.5000  34.2500 Du        
  19072 ****         6.5000   9.5000  34.5000 Du        
  19073 ****         6.5000   9.5000  34.7500 Du        
  19074 ****         6.5000   9.5000  35.0000 Du        
  19075 ****         6.5000   9.5000  35.2500 Du        
  19076 ****         6.5000   9.7500  34.5000 Du        
  19077 ****         6.5000   9.7500  34.7500 Du        
  19078 ****         6.5000   9.7500  35.0000 Du        
  19079 ****         6.5000   9.7500  35.2500 Du        
  19080 ****         6.5000   9.7500  35.5000 Du        
  19081 ****         6.5000  10.0000  35.0000 Du        
  19082 ****         6.5000  10.0000  35.2500 Du        
  19083 ****         6.5000  10.0000  35.5000 Du        
  19084 ****         6.5000  10.0000  35.7500 Du        
  19085 ****         6.5000  10.2500  35.5000 Du        
  19086 ****         6.5000  10.2500  35.7500 Du        
  19087 ****         6.5000  10.5000  35.7500 Du        
  19088 ****         6.5000  10.7500  30.7500 Du        
  19089 ****         6.5000  10.7500  31.0000 Du        
  19090 ****         6.5000  11.0000  30.2500 Du        
  19091 ****         6.5000  11.0000  30.5000 Du        
  19092 ****         6.5000  11.0000  30.7500 Du        
  19093 ****         6.5000  11.0000  31.0000 Du        
  19094 ****         6.5000  11.0000  36.2500 Du        
  19095 ****         6.5000  11.2500  30.2500 Du        
  19096 ****         6.5000  11.2500  30.5000 Du        
  19097 ****         6.5000  11.2500  30.7500 Du        
  19098 ****         6.5000  11.2500  36.5000 Du        
  19099 ****         6.5000  11.5000  11.0000 Du        
  19100 ****         6.5000  11.5000  11.2500 Du        
  19101 ****         6.5000  11.5000  11.5000 Du        
  19102 ****         6.5000  11.5000  36.5000 Du        
  19103 ****         6.5000  11.5000  36.7500 Du        
  19104 ****         6.5000  11.5000  37.0000 Du        
  19105 ****         6.5000  11.7500  10.5000 Du        
  19106 ****         6.5000  11.7500  10.7500 Du        
  19107 ****         6.5000  11.7500  11.0000 Du        
  19108 ****         6.5000  11.7500  11.2500 Du        
  19109 ****         6.5000  11.7500  11.5000 Du        
  19110 ****         6.5000  11.7500  36.7500 Du        
  19111 ****         6.5000  11.7500  37.0000 Du        
  19112 ****         6.5000  11.7500  37.2500 Du        
  19113 ****         6.5000  12.0000  10.2500 Du        
  19114 ****         6.5000  12.0000  10.5000 Du        
  19115 ****         6.5000  12.0000  10.7500 Du        
  19116 ****         6.5000  12.0000  11.0000 Du        
  19117 ****         6.5000  12.0000  11.2500 Du        
  19118 ****         6.5000  12.0000  11.5000 Du        
  19119 ****         6.5000  12.0000  36.7500 Du        
  19120 ****         6.5000  12.0000  37.0000 Du        
  19121 ****         6.5000  12.0000  37.2500 Du        
  19122 ****         6.5000  12.2500  10.0000 Du        
  19123 ****         6.5000  12.2500  10.2500 Du        
  19124 ****         6.5000  12.2500  10.5000 Du        
  19125 ****         6.5000  12.2500  10.7500 Du        
  19126 ****         6.5000  12.2500  11.0000 Du        
  19127 ****         6.5000  12.2500  11.2500 Du        
  19128 ****         6.5000  12.2500  11.5000 Du        
  19129 ****         6.5000  12.2500  36.7500 Du        
  19130 ****         6.5000  12.2500  37.0000 Du        
  19131 ****         6.5000  12.2500  37.2500 Du        
  19132 ****         6.5000  12.5000  10.0000 Du        
  19133 ****         6.5000  12.5000  10.2500 Du        
  19134 ****         6.5000  12.5000  10.5000 Du        
  19135 ****         6.5000  12.5000  10.7500 Du        
  19136 ****         6.5000  12.5000  11.0000 Du        
  19137 ****         6.5000  12.5000  11.2500 Du        
  19138 ****         6.5000  12.5000  11.5000 Du        
  19139 ****         6.5000  12.5000  36.7500 Du        
  19140 ****         6.5000  12.5000  37.0000 Du        
  19141 ****         6.5000  12.5000  37.2500 Du        
  19142 ****         6.5000  12.7500  10.0000 Du        
  19143 ****         6.5000  12.7500  10.2500 Du        
  19144 ****         6.5000  12.7500  10.5000 Du        
  19145 ****         6.5000  12.7500  10.7500 Du        
  19146 ****         6.5000  12.7500  11.0000 Du        
  19147 ****         6.5000  12.7500  11.2500 Du        
  19148 ****         6.5000  12.7500  11.5000 Du        
  19149 ****         6.5000  12.7500  36.7500 Du        
  19150 ****         6.5000  12.7500  37.0000 Du        
  19151 ****         6.5000  12.7500  37.2500 Du        
  19152 ****         6.5000  13.0000  10.0000 Du        
  19153 ****         6.5000  13.0000  10.2500 Du        
  19154 ****         6.5000  13.0000  10.5000 Du        
  19155 ****         6.5000  13.0000  10.7500 Du        
  19156 ****         6.5000  13.0000  11.0000 Du        
  19157 ****         6.5000  13.0000  11.2500 Du        
  19158 ****         6.5000  13.0000  11.5000 Du        
  19159 ****         6.5000  13.0000  36.7500 Du        
  19160 ****         6.5000  13.0000  37.0000 Du        
  19161 ****         6.5000  13.0000  37.2500 Du        
  19162 ****         6.5000  13.0000  37.5000 Du        
  19163 ****         6.5000  13.2500  10.2500 Du        
  19164 ****         6.5000  13.2500  10.5000 Du        
  19165 ****         6.5000  13.2500  10.7500 Du        
  19166 ****         6.5000  13.2500  11.0000 Du        
  19167 ****         6.5000  13.2500  11.2500 Du        
  19168 ****         6.5000  13.2500  37.0000 Du        
  19169 ****         6.5000  13.2500  37.2500 Du        
  19170 ****         6.5000  13.2500  37.5000 Du        
  19171 ****         6.5000  13.5000  10.5000 Du        
  19172 ****         6.5000  13.5000  10.7500 Du        
  19173 ****         6.5000  13.5000  11.0000 Du        
  19174 ****         6.5000  13.5000  11.2500 Du        
  19175 ****         6.5000  13.7500  10.7500 Du        
  19176 ****         6.5000  13.7500  11.0000 Du        
  19177 ****         6.5000  13.7500  11.2500 Du        
  19178 ****         6.5000  15.2500  42.0000 Du        
  19179 ****         6.5000  15.2500  42.2500 Du        
  19180 ****         6.5000  15.5000  42.0000 Du        
  19181 ****         6.5000  15.7500  42.0000 Du        
  19182 ****         6.5000  16.0000  42.0000 Du        
  19183 ****         6.7500  -2.7500  27.5000 Du        
  19184 ****         6.7500  -2.7500  27.7500 Du        
  19185 ****         6.7500  -2.7500  28.0000 Du        
  19186 ****         6.7500  -2.7500  28.2500 Du        
  19187 ****         6.7500  -2.5000  27.5000 Du        
  19188 ****         6.7500  -2.5000  27.7500 Du        
  19189 ****         6.7500  -2.5000  28.0000 Du        
  19190 ****         6.7500  -2.5000  28.2500 Du        
  19191 ****         6.7500  -2.5000  28.5000 Du        
  19192 ****         6.7500  -2.2500  27.5000 Du        
  19193 ****         6.7500  -2.2500  27.7500 Du        
  19194 ****         6.7500  -2.2500  28.0000 Du        
  19195 ****         6.7500  -2.2500  28.2500 Du        
  19196 ****         6.7500  -2.2500  28.5000 Du        
  19197 ****         6.7500  -2.0000  27.5000 Du        
  19198 ****         6.7500  -2.0000  27.7500 Du        
  19199 ****         6.7500  -2.0000  28.0000 Du        
  19200 ****         6.7500  -2.0000  28.2500 Du        
  19201 ****         6.7500   9.0000  33.7500 Du        
  19202 ****         6.7500   9.0000  34.0000 Du        
  19203 ****         6.7500   9.0000  34.2500 Du        
  19204 ****         6.7500   9.0000  34.5000 Du        
  19205 ****         6.7500   9.0000  34.7500 Du        
  19206 ****         6.7500   9.2500  32.5000 Du        
  19207 ****         6.7500   9.2500  32.7500 Du        
  19208 ****         6.7500   9.2500  33.5000 Du        
  19209 ****         6.7500   9.2500  33.7500 Du        
  19210 ****         6.7500   9.2500  34.0000 Du        
  19211 ****         6.7500   9.2500  34.2500 Du        
  19212 ****         6.7500   9.2500  34.5000 Du        
  19213 ****         6.7500   9.2500  34.7500 Du        
  19214 ****         6.7500   9.2500  35.0000 Du        
  19215 ****         6.7500   9.5000  32.2500 Du        
  19216 ****         6.7500   9.5000  32.7500 Du        
  19217 ****         6.7500   9.5000  33.5000 Du        
  19218 ****         6.7500   9.5000  33.7500 Du        
  19219 ****         6.7500   9.5000  34.0000 Du        
  19220 ****         6.7500   9.5000  34.2500 Du        
  19221 ****         6.7500   9.5000  34.5000 Du        
  19222 ****         6.7500   9.5000  34.7500 Du        
  19223 ****         6.7500   9.5000  35.0000 Du        
  19224 ****         6.7500   9.5000  35.2500 Du        
  19225 ****         6.7500   9.5000  35.5000 Du        
  19226 ****         6.7500   9.7500  34.5000 Du        
  19227 ****         6.7500   9.7500  34.7500 Du        
  19228 ****         6.7500   9.7500  35.0000 Du        
  19229 ****         6.7500   9.7500  35.2500 Du        
  19230 ****         6.7500   9.7500  35.5000 Du        
  19231 ****         6.7500   9.7500  35.7500 Du        
  19232 ****         6.7500  10.0000  35.0000 Du        
  19233 ****         6.7500  10.0000  35.2500 Du        
  19234 ****         6.7500  10.0000  35.5000 Du        
  19235 ****         6.7500  10.0000  35.7500 Du        
  19236 ****         6.7500  10.2500  35.5000 Du        
  19237 ****         6.7500  10.2500  35.7500 Du        
  19238 ****         6.7500  10.5000  36.0000 Du        
  19239 ****         6.7500  10.7500  30.7500 Du        
  19240 ****         6.7500  11.0000  30.5000 Du        
  19241 ****         6.7500  11.0000  30.7500 Du        
  19242 ****         6.7500  11.0000  36.5000 Du        
  19243 ****         6.7500  11.2500  30.5000 Du        
  19244 ****         6.7500  11.2500  30.7500 Du        
  19245 ****         6.7500  11.2500  36.5000 Du        
  19246 ****         6.7500  11.2500  36.7500 Du        
  19247 ****         6.7500  11.5000  11.2500 Du        
  19248 ****         6.7500  11.5000  36.7500 Du        
  19249 ****         6.7500  11.5000  37.0000 Du        
  19250 ****         6.7500  11.7500  10.7500 Du        
  19251 ****         6.7500  11.7500  11.0000 Du        
  19252 ****         6.7500  11.7500  11.2500 Du        
  19253 ****         6.7500  11.7500  11.5000 Du        
  19254 ****         6.7500  11.7500  36.7500 Du        
  19255 ****         6.7500  11.7500  37.0000 Du        
  19256 ****         6.7500  11.7500  37.2500 Du        
  19257 ****         6.7500  11.7500  37.5000 Du        
  19258 ****         6.7500  12.0000  10.5000 Du        
  19259 ****         6.7500  12.0000  10.7500 Du        
  19260 ****         6.7500  12.0000  11.0000 Du        
  19261 ****         6.7500  12.0000  11.2500 Du        
  19262 ****         6.7500  12.0000  11.5000 Du        
  19263 ****         6.7500  12.0000  36.7500 Du        
  19264 ****         6.7500  12.0000  37.0000 Du        
  19265 ****         6.7500  12.0000  37.2500 Du        
  19266 ****         6.7500  12.0000  37.5000 Du        
  19267 ****         6.7500  12.2500  10.2500 Du        
  19268 ****         6.7500  12.2500  10.5000 Du        
  19269 ****         6.7500  12.2500  10.7500 Du        
  19270 ****         6.7500  12.2500  11.0000 Du        
  19271 ****         6.7500  12.2500  11.2500 Du        
  19272 ****         6.7500  12.2500  37.0000 Du        
  19273 ****         6.7500  12.2500  37.2500 Du        
  19274 ****         6.7500  12.2500  37.5000 Du        
  19275 ****         6.7500  12.5000  10.0000 Du        
  19276 ****         6.7500  12.5000  10.2500 Du        
  19277 ****         6.7500  12.5000  10.5000 Du        
  19278 ****         6.7500  12.5000  10.7500 Du        
  19279 ****         6.7500  12.5000  11.0000 Du        
  19280 ****         6.7500  12.5000  11.2500 Du        
  19281 ****         6.7500  12.5000  37.0000 Du        
  19282 ****         6.7500  12.5000  37.2500 Du        
  19283 ****         6.7500  12.5000  37.5000 Du        
  19284 ****         6.7500  12.7500  10.0000 Du        
  19285 ****         6.7500  12.7500  10.2500 Du        
  19286 ****         6.7500  12.7500  10.5000 Du        
  19287 ****         6.7500  12.7500  10.7500 Du        
  19288 ****         6.7500  12.7500  11.0000 Du        
  19289 ****         6.7500  12.7500  11.2500 Du        
  19290 ****         6.7500  12.7500  37.0000 Du        
  19291 ****         6.7500  12.7500  37.2500 Du        
  19292 ****         6.7500  12.7500  37.5000 Du        
  19293 ****         6.7500  13.0000  10.0000 Du        
  19294 ****         6.7500  13.0000  10.2500 Du        
  19295 ****         6.7500  13.0000  10.5000 Du        
  19296 ****         6.7500  13.0000  10.7500 Du        
  19297 ****         6.7500  13.0000  11.0000 Du        
  19298 ****         6.7500  13.0000  11.2500 Du        
  19299 ****         6.7500  13.0000  37.0000 Du        
  19300 ****         6.7500  13.0000  37.2500 Du        
  19301 ****         6.7500  13.0000  37.5000 Du        
  19302 ****         6.7500  13.0000  37.7500 Du        
  19303 ****         6.7500  13.2500  10.0000 Du        
  19304 ****         6.7500  13.2500  10.2500 Du        
  19305 ****         6.7500  13.2500  10.5000 Du        
  19306 ****         6.7500  13.2500  10.7500 Du        
  19307 ****         6.7500  13.2500  11.0000 Du        
  19308 ****         6.7500  13.2500  11.2500 Du        
  19309 ****         6.7500  13.2500  37.0000 Du        
  19310 ****         6.7500  13.2500  37.2500 Du        
  19311 ****         6.7500  13.2500  37.5000 Du        
  19312 ****         6.7500  13.2500  37.7500 Du        
  19313 ****         6.7500  13.5000  10.2500 Du        
  19314 ****         6.7500  13.5000  10.5000 Du        
  19315 ****         6.7500  13.5000  10.7500 Du        
  19316 ****         6.7500  13.5000  11.0000 Du        
  19317 ****         6.7500  13.5000  11.2500 Du        
  19318 ****         6.7500  13.5000  37.2500 Du        
  19319 ****         6.7500  13.5000  37.5000 Du        
  19320 ****         6.7500  13.5000  37.7500 Du        
  19321 ****         6.7500  13.7500  10.5000 Du        
  19322 ****         6.7500  13.7500  10.7500 Du        
  19323 ****         6.7500  13.7500  11.0000 Du        
  19324 ****         6.7500  13.7500  11.2500 Du        
  19325 ****         6.7500  13.7500  37.7500 Du        
  19326 ****         6.7500  14.0000  10.7500 Du        
  19327 ****         6.7500  14.0000  11.0000 Du        
  19328 ****         6.7500  14.0000  11.2500 Du        
  19329 ****         6.7500  14.7500  41.7500 Du        
  19330 ****         6.7500  14.7500  42.0000 Du        
  19331 ****         6.7500  15.0000  41.5000 Du        
  19332 ****         6.7500  15.0000  41.7500 Du        
  19333 ****         6.7500  15.0000  42.0000 Du        
  19334 ****         6.7500  15.2500  41.2500 Du        
  19335 ****         6.7500  15.2500  41.5000 Du        
  19336 ****         6.7500  15.2500  41.7500 Du        
  19337 ****         6.7500  15.2500  42.0000 Du        
  19338 ****         6.7500  15.2500  42.2500 Du        
  19339 ****         6.7500  15.5000  41.5000 Du        
  19340 ****         6.7500  15.5000  41.7500 Du        
  19341 ****         6.7500  15.5000  42.0000 Du        
  19342 ****         6.7500  15.7500  41.7500 Du        
  19343 ****         6.7500  15.7500  42.0000 Du        
  19344 ****         6.7500  16.0000  41.7500 Du        
  19345 ****         6.7500  16.0000  42.0000 Du        
  19346 ****         6.7500  16.2500  42.0000 Du        
  19347 ****         7.0000  -3.0000  27.7500 Du        
  19348 ****         7.0000  -2.7500  27.2500 Du        
  19349 ****         7.0000  -2.7500  27.5000 Du        
  19350 ****         7.0000  -2.7500  27.7500 Du        
  19351 ****         7.0000  -2.7500  28.0000 Du        
  19352 ****         7.0000  -2.5000  27.2500 Du        
  19353 ****         7.0000  -2.5000  27.5000 Du        
  19354 ****         7.0000  -2.5000  27.7500 Du        
  19355 ****         7.0000  -2.5000  28.0000 Du        
  19356 ****         7.0000  -2.5000  28.2500 Du        
  19357 ****         7.0000  -2.5000  28.5000 Du        
  19358 ****         7.0000  -2.2500  27.5000 Du        
  19359 ****         7.0000  -2.2500  27.7500 Du        
  19360 ****         7.0000  -2.2500  28.0000 Du        
  19361 ****         7.0000  -2.2500  28.2500 Du        
  19362 ****         7.0000  -2.2500  28.5000 Du        
  19363 ****         7.0000  -2.0000  27.7500 Du        
  19364 ****         7.0000  -2.0000  28.0000 Du        
  19365 ****         7.0000  -2.0000  28.2500 Du        
  19366 ****         7.0000   9.0000  34.5000 Du        
  19367 ****         7.0000   9.0000  34.7500 Du        
  19368 ****         7.0000   9.2500  34.0000 Du        
  19369 ****         7.0000   9.2500  34.2500 Du        
  19370 ****         7.0000   9.2500  34.5000 Du        
  19371 ****         7.0000   9.2500  34.7500 Du        
  19372 ****         7.0000   9.2500  35.0000 Du        
  19373 ****         7.0000   9.2500  35.2500 Du        
  19374 ****         7.0000   9.5000  34.0000 Du        
  19375 ****         7.0000   9.5000  34.2500 Du        
  19376 ****         7.0000   9.5000  34.5000 Du        
  19377 ****         7.0000   9.5000  34.7500 Du        
  19378 ****         7.0000   9.5000  35.0000 Du        
  19379 ****         7.0000   9.5000  35.2500 Du        
  19380 ****         7.0000   9.5000  35.5000 Du        
  19381 ****         7.0000   9.7500  34.5000 Du        
  19382 ****         7.0000   9.7500  34.7500 Du        
  19383 ****         7.0000   9.7500  35.0000 Du        
  19384 ****         7.0000   9.7500  35.2500 Du        
  19385 ****         7.0000   9.7500  35.5000 Du        
  19386 ****         7.0000   9.7500  35.7500 Du        
  19387 ****         7.0000  10.0000  35.0000 Du        
  19388 ****         7.0000  10.0000  35.2500 Du        
  19389 ****         7.0000  10.0000  35.5000 Du        
  19390 ****         7.0000  10.0000  35.7500 Du        
  19391 ****         7.0000  10.0000  36.0000 Du        
  19392 ****         7.0000  10.2500  35.5000 Du        
  19393 ****         7.0000  10.2500  35.7500 Du        
  19394 ****         7.0000  10.2500  36.0000 Du        
  19395 ****         7.0000  10.5000  36.0000 Du        
  19396 ****         7.0000  10.5000  36.2500 Du        
  19397 ****         7.0000  10.7500  36.2500 Du        
  19398 ****         7.0000  10.7500  36.5000 Du        
  19399 ****         7.0000  11.0000  36.5000 Du        
  19400 ****         7.0000  11.0000  36.7500 Du        
  19401 ****         7.0000  11.2500  36.7500 Du        
  19402 ****         7.0000  11.2500  37.0000 Du        
  19403 ****         7.0000  11.5000  36.7500 Du        
  19404 ****         7.0000  11.5000  37.0000 Du        
  19405 ****         7.0000  11.5000  37.2500 Du        
  19406 ****         7.0000  11.5000  37.5000 Du        
  19407 ****         7.0000  11.7500  11.0000 Du        
  19408 ****         7.0000  11.7500  11.2500 Du        
  19409 ****         7.0000  11.7500  11.5000 Du        
  19410 ****         7.0000  11.7500  36.7500 Du        
  19411 ****         7.0000  11.7500  37.0000 Du        
  19412 ****         7.0000  11.7500  37.2500 Du        
  19413 ****         7.0000  11.7500  37.5000 Du        
  19414 ****         7.0000  11.7500  37.7500 Du        
  19415 ****         7.0000  12.0000  10.5000 Du        
  19416 ****         7.0000  12.0000  10.7500 Du        
  19417 ****         7.0000  12.0000  11.0000 Du        
  19418 ****         7.0000  12.0000  11.2500 Du        
  19419 ****         7.0000  12.0000  37.0000 Du        
  19420 ****         7.0000  12.0000  37.2500 Du        
  19421 ****         7.0000  12.0000  37.5000 Du        
  19422 ****         7.0000  12.0000  37.7500 Du        
  19423 ****         7.0000  12.2500  10.2500 Du        
  19424 ****         7.0000  12.2500  10.5000 Du        
  19425 ****         7.0000  12.2500  10.7500 Du        
  19426 ****         7.0000  12.2500  11.0000 Du        
  19427 ****         7.0000  12.2500  11.2500 Du        
  19428 ****         7.0000  12.2500  37.0000 Du        
  19429 ****         7.0000  12.2500  37.2500 Du        
  19430 ****         7.0000  12.2500  37.5000 Du        
  19431 ****         7.0000  12.2500  37.7500 Du        
  19432 ****         7.0000  12.5000  10.0000 Du        
  19433 ****         7.0000  12.5000  10.2500 Du        
  19434 ****         7.0000  12.5000  10.5000 Du        
  19435 ****         7.0000  12.5000  10.7500 Du        
  19436 ****         7.0000  12.5000  11.0000 Du        
  19437 ****         7.0000  12.5000  11.2500 Du        
  19438 ****         7.0000  12.5000  37.0000 Du        
  19439 ****         7.0000  12.5000  37.2500 Du        
  19440 ****         7.0000  12.5000  37.5000 Du        
  19441 ****         7.0000  12.5000  37.7500 Du        
  19442 ****         7.0000  12.7500  10.0000 Du        
  19443 ****         7.0000  12.7500  10.2500 Du        
  19444 ****         7.0000  12.7500  10.5000 Du        
  19445 ****         7.0000  12.7500  10.7500 Du        
  19446 ****         7.0000  12.7500  11.0000 Du        
  19447 ****         7.0000  12.7500  11.2500 Du        
  19448 ****         7.0000  12.7500  37.0000 Du        
  19449 ****         7.0000  12.7500  37.2500 Du        
  19450 ****         7.0000  12.7500  37.5000 Du        
  19451 ****         7.0000  12.7500  37.7500 Du        
  19452 ****         7.0000  13.0000  10.0000 Du        
  19453 ****         7.0000  13.0000  10.2500 Du        
  19454 ****         7.0000  13.0000  10.5000 Du        
  19455 ****         7.0000  13.0000  10.7500 Du        
  19456 ****         7.0000  13.0000  11.0000 Du        
  19457 ****         7.0000  13.0000  11.2500 Du        
  19458 ****         7.0000  13.0000  37.0000 Du        
  19459 ****         7.0000  13.0000  37.2500 Du        
  19460 ****         7.0000  13.0000  37.5000 Du        
  19461 ****         7.0000  13.0000  37.7500 Du        
  19462 ****         7.0000  13.0000  38.0000 Du        
  19463 ****         7.0000  13.2500  10.0000 Du        
  19464 ****         7.0000  13.2500  10.2500 Du        
  19465 ****         7.0000  13.2500  10.5000 Du        
  19466 ****         7.0000  13.2500  10.7500 Du        
  19467 ****         7.0000  13.2500  11.0000 Du        
  19468 ****         7.0000  13.2500  11.2500 Du        
  19469 ****         7.0000  13.2500  37.0000 Du        
  19470 ****         7.0000  13.2500  37.2500 Du        
  19471 ****         7.0000  13.2500  37.5000 Du        
  19472 ****         7.0000  13.2500  37.7500 Du        
  19473 ****         7.0000  13.2500  38.0000 Du        
  19474 ****         7.0000  13.5000  10.0000 Du        
  19475 ****         7.0000  13.5000  10.2500 Du        
  19476 ****         7.0000  13.5000  10.5000 Du        
  19477 ****         7.0000  13.5000  10.7500 Du        
  19478 ****         7.0000  13.5000  11.0000 Du        
  19479 ****         7.0000  13.5000  11.2500 Du        
  19480 ****         7.0000  13.5000  37.2500 Du        
  19481 ****         7.0000  13.5000  37.5000 Du        
  19482 ****         7.0000  13.5000  37.7500 Du        
  19483 ****         7.0000  13.5000  38.0000 Du        
  19484 ****         7.0000  13.7500  10.2500 Du        
  19485 ****         7.0000  13.7500  10.5000 Du        
  19486 ****         7.0000  13.7500  10.7500 Du        
  19487 ****         7.0000  13.7500  11.0000 Du        
  19488 ****         7.0000  13.7500  11.2500 Du        
  19489 ****         7.0000  13.7500  37.5000 Du        
  19490 ****         7.0000  13.7500  37.7500 Du        
  19491 ****         7.0000  13.7500  38.0000 Du        
  19492 ****         7.0000  13.7500  38.2500 Du        
  19493 ****         7.0000  14.0000  10.5000 Du        
  19494 ****         7.0000  14.0000  10.7500 Du        
  19495 ****         7.0000  14.0000  11.0000 Du        
  19496 ****         7.0000  14.0000  11.2500 Du        
  19497 ****         7.0000  14.0000  37.7500 Du        
  19498 ****         7.0000  14.0000  38.0000 Du        
  19499 ****         7.0000  14.0000  38.2500 Du        
  19500 ****         7.0000  14.2500  38.2500 Du        
  19501 ****         7.0000  14.2500  41.7500 Du        
  19502 ****         7.0000  14.2500  42.0000 Du        
  19503 ****         7.0000  14.5000  41.7500 Du        
  19504 ****         7.0000  14.7500  41.0000 Du        
  19505 ****         7.0000  14.7500  41.2500 Du        
  19506 ****         7.0000  14.7500  41.5000 Du        
  19507 ****         7.0000  14.7500  41.7500 Du        
  19508 ****         7.0000  14.7500  42.0000 Du        
  19509 ****         7.0000  15.0000  40.7500 Du        
  19510 ****         7.0000  15.0000  41.0000 Du        
  19511 ****         7.0000  15.0000  41.2500 Du        
  19512 ****         7.0000  15.0000  41.5000 Du        
  19513 ****         7.0000  15.0000  41.7500 Du        
  19514 ****         7.0000  15.0000  42.0000 Du        
  19515 ****         7.0000  15.2500  40.7500 Du        
  19516 ****         7.0000  15.2500  41.0000 Du        
  19517 ****         7.0000  15.2500  41.2500 Du        
  19518 ****         7.0000  15.2500  41.5000 Du        
  19519 ****         7.0000  15.2500  41.7500 Du        
  19520 ****         7.0000  15.2500  42.0000 Du        
  19521 ****         7.0000  15.5000  41.0000 Du        
  19522 ****         7.0000  15.5000  41.2500 Du        
  19523 ****         7.0000  15.5000  41.5000 Du        
  19524 ****         7.0000  15.5000  41.7500 Du        
  19525 ****         7.0000  15.5000  42.0000 Du        
  19526 ****         7.0000  15.7500  41.0000 Du        
  19527 ****         7.0000  15.7500  41.2500 Du        
  19528 ****         7.0000  15.7500  41.5000 Du        
  19529 ****         7.0000  15.7500  41.7500 Du        
  19530 ****         7.0000  15.7500  42.0000 Du        
  19531 ****         7.0000  16.0000  41.2500 Du        
  19532 ****         7.0000  16.0000  41.5000 Du        
  19533 ****         7.0000  16.0000  41.7500 Du        
  19534 ****         7.0000  16.0000  42.0000 Du        
  19535 ****         7.0000  16.2500  41.7500 Du        
  19536 ****         7.0000  16.2500  42.0000 Du        
  19537 ****         7.2500  -3.0000  27.5000 Du        
  19538 ****         7.2500  -2.7500  27.0000 Du        
  19539 ****         7.2500  -2.7500  27.2500 Du        
  19540 ****         7.2500  -2.7500  27.5000 Du        
  19541 ****         7.2500  -2.7500  27.7500 Du        
  19542 ****         7.2500  -2.5000  27.2500 Du        
  19543 ****         7.2500  -2.5000  27.5000 Du        
  19544 ****         7.2500  -2.5000  27.7500 Du        
  19545 ****         7.2500  -2.5000  28.0000 Du        
  19546 ****         7.2500  -2.5000  28.2500 Du        
  19547 ****         7.2500  -2.2500  27.5000 Du        
  19548 ****         7.2500  -2.2500  27.7500 Du        
  19549 ****         7.2500  -2.2500  28.0000 Du        
  19550 ****         7.2500  -2.2500  28.2500 Du        
  19551 ****         7.2500  -2.2500  28.5000 Du        
  19552 ****         7.2500   9.2500  34.5000 Du        
  19553 ****         7.2500   9.2500  34.7500 Du        
  19554 ****         7.2500   9.2500  35.0000 Du        
  19555 ****         7.2500   9.2500  35.2500 Du        
  19556 ****         7.2500   9.5000  34.2500 Du        
  19557 ****         7.2500   9.5000  34.5000 Du        
  19558 ****         7.2500   9.5000  34.7500 Du        
  19559 ****         7.2500   9.5000  35.0000 Du        
  19560 ****         7.2500   9.5000  35.2500 Du        
  19561 ****         7.2500   9.5000  35.5000 Du        
  19562 ****         7.2500   9.7500  34.7500 Du        
  19563 ****         7.2500   9.7500  35.0000 Du        
  19564 ****         7.2500   9.7500  35.2500 Du        
  19565 ****         7.2500   9.7500  35.5000 Du        
  19566 ****         7.2500   9.7500  35.7500 Du        
  19567 ****         7.2500   9.7500  36.0000 Du        
  19568 ****         7.2500  10.0000  35.2500 Du        
  19569 ****         7.2500  10.0000  35.5000 Du        
  19570 ****         7.2500  10.0000  35.7500 Du        
  19571 ****         7.2500  10.0000  36.0000 Du        
  19572 ****         7.2500  10.2500  35.7500 Du        
  19573 ****         7.2500  10.2500  36.0000 Du        
  19574 ****         7.2500  10.2500  36.2500 Du        
  19575 ****         7.2500  10.5000  36.0000 Du        
  19576 ****         7.2500  10.5000  36.2500 Du        
  19577 ****         7.2500  10.5000  36.5000 Du        
  19578 ****         7.2500  10.7500  36.2500 Du        
  19579 ****         7.2500  10.7500  36.5000 Du        
  19580 ****         7.2500  10.7500  36.7500 Du        
  19581 ****         7.2500  11.0000  36.5000 Du        
  19582 ****         7.2500  11.0000  36.7500 Du        
  19583 ****         7.2500  11.0000  37.0000 Du        
  19584 ****         7.2500  11.2500  36.7500 Du        
  19585 ****         7.2500  11.2500  37.0000 Du        
  19586 ****         7.2500  11.2500  37.2500 Du        
  19587 ****         7.2500  11.5000  36.7500 Du        
  19588 ****         7.2500  11.5000  37.0000 Du        
  19589 ****         7.2500  11.5000  37.2500 Du        
  19590 ****         7.2500  11.5000  37.5000 Du        
  19591 ****         7.2500  11.5000  37.7500 Du        
  19592 ****         7.2500  11.7500  11.0000 Du        
  19593 ****         7.2500  11.7500  11.2500 Du        
  19594 ****         7.2500  11.7500  37.0000 Du        
  19595 ****         7.2500  11.7500  37.2500 Du        
  19596 ****         7.2500  11.7500  37.5000 Du        
  19597 ****         7.2500  11.7500  37.7500 Du        
  19598 ****         7.2500  11.7500  38.0000 Du        
  19599 ****         7.2500  12.0000  10.7500 Du        
  19600 ****         7.2500  12.0000  11.0000 Du        
  19601 ****         7.2500  12.0000  11.2500 Du        
  19602 ****         7.2500  12.0000  37.0000 Du        
  19603 ****         7.2500  12.0000  37.2500 Du        
  19604 ****         7.2500  12.0000  37.5000 Du        
  19605 ****         7.2500  12.0000  37.7500 Du        
  19606 ****         7.2500  12.0000  38.0000 Du        
  19607 ****         7.2500  12.0000  38.2500 Du        
  19608 ****         7.2500  12.0000  44.0000 Du        
  19609 ****         7.2500  12.0000  44.2500 Du        
  19610 ****         7.2500  12.2500  10.2500 Du        
  19611 ****         7.2500  12.2500  10.5000 Du        
  19612 ****         7.2500  12.2500  10.7500 Du        
  19613 ****         7.2500  12.2500  11.0000 Du        
  19614 ****         7.2500  12.2500  11.2500 Du        
  19615 ****         7.2500  12.2500  37.0000 Du        
  19616 ****         7.2500  12.2500  37.2500 Du        
  19617 ****         7.2500  12.2500  37.5000 Du        
  19618 ****         7.2500  12.2500  37.7500 Du        
  19619 ****         7.2500  12.2500  38.0000 Du        
  19620 ****         7.2500  12.2500  38.2500 Du        
  19621 ****         7.2500  12.2500  44.0000 Du        
  19622 ****         7.2500  12.2500  44.2500 Du        
  19623 ****         7.2500  12.5000  10.0000 Du        
  19624 ****         7.2500  12.5000  10.2500 Du        
  19625 ****         7.2500  12.5000  10.5000 Du        
  19626 ****         7.2500  12.5000  10.7500 Du        
  19627 ****         7.2500  12.5000  11.0000 Du        
  19628 ****         7.2500  12.5000  11.2500 Du        
  19629 ****         7.2500  12.5000  37.2500 Du        
  19630 ****         7.2500  12.5000  37.5000 Du        
  19631 ****         7.2500  12.5000  37.7500 Du        
  19632 ****         7.2500  12.5000  38.0000 Du        
  19633 ****         7.2500  12.7500  10.0000 Du        
  19634 ****         7.2500  12.7500  10.2500 Du        
  19635 ****         7.2500  12.7500  10.5000 Du        
  19636 ****         7.2500  12.7500  10.7500 Du        
  19637 ****         7.2500  12.7500  11.0000 Du        
  19638 ****         7.2500  12.7500  11.2500 Du        
  19639 ****         7.2500  12.7500  37.2500 Du        
  19640 ****         7.2500  12.7500  37.5000 Du        
  19641 ****         7.2500  12.7500  37.7500 Du        
  19642 ****         7.2500  12.7500  38.0000 Du        
  19643 ****         7.2500  12.7500  38.2500 Du        
  19644 ****         7.2500  13.0000  10.0000 Du        
  19645 ****         7.2500  13.0000  10.2500 Du        
  19646 ****         7.2500  13.0000  10.5000 Du        
  19647 ****         7.2500  13.0000  10.7500 Du        
  19648 ****         7.2500  13.0000  11.0000 Du        
  19649 ****         7.2500  13.0000  11.2500 Du        
  19650 ****         7.2500  13.0000  37.2500 Du        
  19651 ****         7.2500  13.0000  37.5000 Du        
  19652 ****         7.2500  13.0000  37.7500 Du        
  19653 ****         7.2500  13.0000  38.0000 Du        
  19654 ****         7.2500  13.0000  38.2500 Du        
  19655 ****         7.2500  13.2500  10.0000 Du        
  19656 ****         7.2500  13.2500  10.2500 Du        
  19657 ****         7.2500  13.2500  10.5000 Du        
  19658 ****         7.2500  13.2500  10.7500 Du        
  19659 ****         7.2500  13.2500  11.0000 Du        
  19660 ****         7.2500  13.2500  11.2500 Du        
  19661 ****         7.2500  13.2500  37.2500 Du        
  19662 ****         7.2500  13.2500  37.5000 Du        
  19663 ****         7.2500  13.2500  37.7500 Du        
  19664 ****         7.2500  13.2500  38.0000 Du        
  19665 ****         7.2500  13.2500  38.2500 Du        
  19666 ****         7.2500  13.5000  10.0000 Du        
  19667 ****         7.2500  13.5000  10.2500 Du        
  19668 ****         7.2500  13.5000  10.5000 Du        
  19669 ****         7.2500  13.5000  10.7500 Du        
  19670 ****         7.2500  13.5000  11.0000 Du        
  19671 ****         7.2500  13.5000  11.2500 Du        
  19672 ****         7.2500  13.5000  37.2500 Du        
  19673 ****         7.2500  13.5000  37.5000 Du        
  19674 ****         7.2500  13.5000  37.7500 Du        
  19675 ****         7.2500  13.5000  38.0000 Du        
  19676 ****         7.2500  13.5000  38.2500 Du        
  19677 ****         7.2500  13.5000  38.5000 Du        
  19678 ****         7.2500  13.7500  10.0000 Du        
  19679 ****         7.2500  13.7500  10.2500 Du        
  19680 ****         7.2500  13.7500  10.5000 Du        
  19681 ****         7.2500  13.7500  10.7500 Du        
  19682 ****         7.2500  13.7500  11.0000 Du        
  19683 ****         7.2500  13.7500  11.2500 Du        
  19684 ****         7.2500  13.7500  37.2500 Du        
  19685 ****         7.2500  13.7500  37.5000 Du        
  19686 ****         7.2500  13.7500  37.7500 Du        
  19687 ****         7.2500  13.7500  38.0000 Du        
  19688 ****         7.2500  13.7500  38.2500 Du        
  19689 ****         7.2500  13.7500  38.5000 Du        
  19690 ****         7.2500  13.7500  38.7500 Du        
  19691 ****         7.2500  13.7500  41.7500 Du        
  19692 ****         7.2500  14.0000  10.0000 Du        
  19693 ****         7.2500  14.0000  10.2500 Du        
  19694 ****         7.2500  14.0000  10.5000 Du        
  19695 ****         7.2500  14.0000  10.7500 Du        
  19696 ****         7.2500  14.0000  11.0000 Du        
  19697 ****         7.2500  14.0000  11.2500 Du        
  19698 ****         7.2500  14.0000  37.5000 Du        
  19699 ****         7.2500  14.0000  37.7500 Du        
  19700 ****         7.2500  14.0000  38.0000 Du        
  19701 ****         7.2500  14.0000  38.2500 Du        
  19702 ****         7.2500  14.0000  38.5000 Du        
  19703 ****         7.2500  14.0000  38.7500 Du        
  19704 ****         7.2500  14.0000  41.5000 Du        
  19705 ****         7.2500  14.0000  41.7500 Du        
  19706 ****         7.2500  14.0000  42.0000 Du        
  19707 ****         7.2500  14.2500  10.2500 Du        
  19708 ****         7.2500  14.2500  10.5000 Du        
  19709 ****         7.2500  14.2500  37.7500 Du        
  19710 ****         7.2500  14.2500  38.0000 Du        
  19711 ****         7.2500  14.2500  38.2500 Du        
  19712 ****         7.2500  14.2500  38.5000 Du        
  19713 ****         7.2500  14.2500  38.7500 Du        
  19714 ****         7.2500  14.2500  39.0000 Du        
  19715 ****         7.2500  14.2500  39.2500 Du        
  19716 ****         7.2500  14.2500  41.0000 Du        
  19717 ****         7.2500  14.2500  41.2500 Du        
  19718 ****         7.2500  14.2500  41.5000 Du        
  19719 ****         7.2500  14.2500  41.7500 Du        
  19720 ****         7.2500  14.5000  38.2500 Du        
  19721 ****         7.2500  14.5000  38.5000 Du        
  19722 ****         7.2500  14.5000  38.7500 Du        
  19723 ****         7.2500  14.5000  39.0000 Du        
  19724 ****         7.2500  14.5000  39.2500 Du        
  19725 ****         7.2500  14.5000  40.7500 Du        
  19726 ****         7.2500  14.5000  41.0000 Du        
  19727 ****         7.2500  14.5000  41.2500 Du        
  19728 ****         7.2500  14.5000  41.5000 Du        
  19729 ****         7.2500  14.5000  41.7500 Du        
  19730 ****         7.2500  14.7500  38.5000 Du        
  19731 ****         7.2500  14.7500  38.7500 Du        
  19732 ****         7.2500  14.7500  39.0000 Du        
  19733 ****         7.2500  14.7500  39.2500 Du        
  19734 ****         7.2500  14.7500  39.7500 Du        
  19735 ****         7.2500  14.7500  40.0000 Du        
  19736 ****         7.2500  14.7500  40.2500 Du        
  19737 ****         7.2500  14.7500  40.5000 Du        
  19738 ****         7.2500  14.7500  40.7500 Du        
  19739 ****         7.2500  14.7500  41.0000 Du        
  19740 ****         7.2500  14.7500  41.2500 Du        
  19741 ****         7.2500  14.7500  41.5000 Du        
  19742 ****         7.2500  14.7500  41.7500 Du        
  19743 ****         7.2500  15.0000  38.7500 Du        
  19744 ****         7.2500  15.0000  39.0000 Du        
  19745 ****         7.2500  15.0000  39.2500 Du        
  19746 ****         7.2500  15.0000  39.5000 Du        
  19747 ****         7.2500  15.0000  39.7500 Du        
  19748 ****         7.2500  15.0000  40.0000 Du        
  19749 ****         7.2500  15.0000  40.2500 Du        
  19750 ****         7.2500  15.0000  40.5000 Du        
  19751 ****         7.2500  15.0000  40.7500 Du        
  19752 ****         7.2500  15.0000  41.0000 Du        
  19753 ****         7.2500  15.0000  41.2500 Du        
  19754 ****         7.2500  15.0000  41.5000 Du        
  19755 ****         7.2500  15.0000  41.7500 Du        
  19756 ****         7.2500  15.2500  39.7500 Du        
  19757 ****         7.2500  15.2500  40.0000 Du        
  19758 ****         7.2500  15.2500  40.2500 Du        
  19759 ****         7.2500  15.2500  40.5000 Du        
  19760 ****         7.2500  15.2500  40.7500 Du        
  19761 ****         7.2500  15.2500  41.0000 Du        
  19762 ****         7.2500  15.2500  41.2500 Du        
  19763 ****         7.2500  15.2500  41.5000 Du        
  19764 ****         7.2500  15.2500  41.7500 Du        
  19765 ****         7.2500  15.5000  40.5000 Du        
  19766 ****         7.2500  15.5000  40.7500 Du        
  19767 ****         7.2500  15.5000  41.0000 Du        
  19768 ****         7.2500  15.5000  41.2500 Du        
  19769 ****         7.2500  15.5000  41.5000 Du        
  19770 ****         7.2500  15.5000  41.7500 Du        
  19771 ****         7.2500  15.7500  40.7500 Du        
  19772 ****         7.2500  15.7500  41.0000 Du        
  19773 ****         7.2500  15.7500  41.2500 Du        
  19774 ****         7.2500  15.7500  41.5000 Du        
  19775 ****         7.2500  15.7500  41.7500 Du        
  19776 ****         7.2500  16.0000  40.7500 Du        
  19777 ****         7.2500  16.0000  41.0000 Du        
  19778 ****         7.2500  16.0000  41.2500 Du        
  19779 ****         7.2500  16.0000  41.5000 Du        
  19780 ****         7.2500  16.0000  41.7500 Du        
  19781 ****         7.2500  16.2500  41.0000 Du        
  19782 ****         7.2500  16.2500  41.2500 Du        
  19783 ****         7.2500  16.2500  41.5000 Du        
  19784 ****         7.2500  16.2500  41.7500 Du        
  19785 ****         7.2500  16.2500  42.0000 Du        
  19786 ****         7.2500  16.5000  41.7500 Du        
  19787 ****         7.5000  -2.7500  27.5000 Du        
  19788 ****         7.5000  -2.5000  27.5000 Du        
  19789 ****         7.5000  -2.5000  27.7500 Du        
  19790 ****         7.5000   5.7500  24.5000 Du        
  19791 ****         7.5000   5.7500  24.7500 Du        
  19792 ****         7.5000   6.0000  24.5000 Du        
  19793 ****         7.5000   9.2500  34.7500 Du        
  19794 ****         7.5000   9.2500  35.0000 Du        
  19795 ****         7.5000   9.2500  35.2500 Du        
  19796 ****         7.5000   9.5000  34.5000 Du        
  19797 ****         7.5000   9.5000  34.7500 Du        
  19798 ****         7.5000   9.5000  35.0000 Du        
  19799 ****         7.5000   9.5000  35.2500 Du        
  19800 ****         7.5000   9.5000  35.5000 Du        
  19801 ****         7.5000   9.5000  35.7500 Du        
  19802 ****         7.5000   9.7500  34.7500 Du        
  19803 ****         7.5000   9.7500  35.0000 Du        
  19804 ****         7.5000   9.7500  35.2500 Du        
  19805 ****         7.5000   9.7500  35.5000 Du        
  19806 ****         7.5000   9.7500  35.7500 Du        
  19807 ****         7.5000   9.7500  36.0000 Du        
  19808 ****         7.5000   9.7500  36.2500 Du        
  19809 ****         7.5000  10.0000  35.2500 Du        
  19810 ****         7.5000  10.0000  35.5000 Du        
  19811 ****         7.5000  10.0000  35.7500 Du        
  19812 ****         7.5000  10.0000  36.0000 Du        
  19813 ****         7.5000  10.0000  36.2500 Du        
  19814 ****         7.5000  10.0000  36.5000 Du        
  19815 ****         7.5000  10.2500  35.5000 Du        
  19816 ****         7.5000  10.2500  35.7500 Du        
  19817 ****         7.5000  10.2500  36.0000 Du        
  19818 ****         7.5000  10.2500  36.2500 Du        
  19819 ****         7.5000  10.2500  36.5000 Du        
  19820 ****         7.5000  10.5000  36.0000 Du        
  19821 ****         7.5000  10.5000  36.2500 Du        
  19822 ****         7.5000  10.5000  36.5000 Du        
  19823 ****         7.5000  10.5000  36.7500 Du        
  19824 ****         7.5000  10.7500  36.2500 Du        
  19825 ****         7.5000  10.7500  36.5000 Du        
  19826 ****         7.5000  10.7500  36.7500 Du        
  19827 ****         7.5000  10.7500  37.0000 Du        
  19828 ****         7.5000  11.0000  36.5000 Du        
  19829 ****         7.5000  11.0000  36.7500 Du        
  19830 ****         7.5000  11.0000  37.0000 Du        
  19831 ****         7.5000  11.0000  37.2500 Du        
  19832 ****         7.5000  11.2500  36.7500 Du        
  19833 ****         7.5000  11.2500  37.0000 Du        
  19834 ****         7.5000  11.2500  37.2500 Du        
  19835 ****         7.5000  11.2500  37.5000 Du        
  19836 ****         7.5000  11.2500  37.7500 Du        
  19837 ****         7.5000  11.5000  37.0000 Du        
  19838 ****         7.5000  11.5000  37.2500 Du        
  19839 ****         7.5000  11.5000  37.5000 Du        
  19840 ****         7.5000  11.5000  37.7500 Du        
  19841 ****         7.5000  11.5000  38.0000 Du        
  19842 ****         7.5000  11.7500  37.0000 Du        
  19843 ****         7.5000  11.7500  37.2500 Du        
  19844 ****         7.5000  11.7500  37.5000 Du        
  19845 ****         7.5000  11.7500  37.7500 Du        
  19846 ****         7.5000  11.7500  38.0000 Du        
  19847 ****         7.5000  11.7500  38.2500 Du        
  19848 ****         7.5000  11.7500  43.7500 Du        
  19849 ****         7.5000  12.0000  11.0000 Du        
  19850 ****         7.5000  12.0000  11.2500 Du        
  19851 ****         7.5000  12.0000  37.2500 Du        
  19852 ****         7.5000  12.0000  37.5000 Du        
  19853 ****         7.5000  12.0000  37.7500 Du        
  19854 ****         7.5000  12.0000  38.0000 Du        
  19855 ****         7.5000  12.0000  38.2500 Du        
  19856 ****         7.5000  12.0000  38.5000 Du        
  19857 ****         7.5000  12.0000  43.5000 Du        
  19858 ****         7.5000  12.0000  43.7500 Du        
  19859 ****         7.5000  12.0000  44.0000 Du        
  19860 ****         7.5000  12.2500  10.5000 Du        
  19861 ****         7.5000  12.2500  10.7500 Du        
  19862 ****         7.5000  12.2500  11.0000 Du        
  19863 ****         7.5000  12.2500  11.2500 Du        
  19864 ****         7.5000  12.2500  37.2500 Du        
  19865 ****         7.5000  12.2500  37.5000 Du        
  19866 ****         7.5000  12.2500  37.7500 Du        
  19867 ****         7.5000  12.2500  38.0000 Du        
  19868 ****         7.5000  12.2500  38.2500 Du        
  19869 ****         7.5000  12.2500  38.5000 Du        
  19870 ****         7.5000  12.2500  43.2500 Du        
  19871 ****         7.5000  12.2500  43.5000 Du        
  19872 ****         7.5000  12.2500  43.7500 Du        
  19873 ****         7.5000  12.2500  44.0000 Du        
  19874 ****         7.5000  12.5000  10.0000 Du        
  19875 ****         7.5000  12.5000  10.2500 Du        
  19876 ****         7.5000  12.5000  10.5000 Du        
  19877 ****         7.5000  12.5000  10.7500 Du        
  19878 ****         7.5000  12.5000  11.0000 Du        
  19879 ****         7.5000  12.5000  11.2500 Du        
  19880 ****         7.5000  12.5000  37.2500 Du        
  19881 ****         7.5000  12.5000  37.5000 Du        
  19882 ****         7.5000  12.5000  37.7500 Du        
  19883 ****         7.5000  12.5000  38.0000 Du        
  19884 ****         7.5000  12.5000  38.2500 Du        
  19885 ****         7.5000  12.5000  38.5000 Du        
  19886 ****         7.5000  12.7500  10.0000 Du        
  19887 ****         7.5000  12.7500  10.2500 Du        
  19888 ****         7.5000  12.7500  10.5000 Du        
  19889 ****         7.5000  12.7500  10.7500 Du        
  19890 ****         7.5000  12.7500  11.0000 Du        
  19891 ****         7.5000  12.7500  11.2500 Du        
  19892 ****         7.5000  12.7500  37.2500 Du        
  19893 ****         7.5000  12.7500  37.5000 Du        
  19894 ****         7.5000  12.7500  37.7500 Du        
  19895 ****         7.5000  12.7500  38.0000 Du        
  19896 ****         7.5000  12.7500  38.2500 Du        
  19897 ****         7.5000  12.7500  38.5000 Du        
  19898 ****         7.5000  12.7500  41.7500 Du        
  19899 ****         7.5000  12.7500  42.0000 Du        
  19900 ****         7.5000  13.0000   9.7500 Du        
  19901 ****         7.5000  13.0000  10.0000 Du        
  19902 ****         7.5000  13.0000  10.2500 Du        
  19903 ****         7.5000  13.0000  10.5000 Du        
  19904 ****         7.5000  13.0000  10.7500 Du        
  19905 ****         7.5000  13.0000  11.0000 Du        
  19906 ****         7.5000  13.0000  11.2500 Du        
  19907 ****         7.5000  13.0000  37.2500 Du        
  19908 ****         7.5000  13.0000  37.5000 Du        
  19909 ****         7.5000  13.0000  37.7500 Du        
  19910 ****         7.5000  13.0000  38.0000 Du        
  19911 ****         7.5000  13.0000  38.2500 Du        
  19912 ****         7.5000  13.0000  38.5000 Du        
  19913 ****         7.5000  13.0000  38.7500 Du        
  19914 ****         7.5000  13.0000  41.5000 Du        
  19915 ****         7.5000  13.0000  41.7500 Du        
  19916 ****         7.5000  13.0000  42.0000 Du        
  19917 ****         7.5000  13.0000  42.2500 Du        
  19918 ****         7.5000  13.2500   9.7500 Du        
  19919 ****         7.5000  13.2500  10.0000 Du        
  19920 ****         7.5000  13.2500  10.2500 Du        
  19921 ****         7.5000  13.2500  10.5000 Du        
  19922 ****         7.5000  13.2500  10.7500 Du        
  19923 ****         7.5000  13.2500  11.0000 Du        
  19924 ****         7.5000  13.2500  11.2500 Du        
  19925 ****         7.5000  13.2500  37.2500 Du        
  19926 ****         7.5000  13.2500  37.5000 Du        
  19927 ****         7.5000  13.2500  37.7500 Du        
  19928 ****         7.5000  13.2500  38.0000 Du        
  19929 ****         7.5000  13.2500  38.2500 Du        
  19930 ****         7.5000  13.2500  38.5000 Du        
  19931 ****         7.5000  13.2500  38.7500 Du        
  19932 ****         7.5000  13.2500  41.2500 Du        
  19933 ****         7.5000  13.2500  41.5000 Du        
  19934 ****         7.5000  13.2500  41.7500 Du        
  19935 ****         7.5000  13.2500  42.0000 Du        
  19936 ****         7.5000  13.5000   9.7500 Du        
  19937 ****         7.5000  13.5000  10.0000 Du        
  19938 ****         7.5000  13.5000  10.2500 Du        
  19939 ****         7.5000  13.5000  10.5000 Du        
  19940 ****         7.5000  13.5000  10.7500 Du        
  19941 ****         7.5000  13.5000  11.0000 Du        
  19942 ****         7.5000  13.5000  11.2500 Du        
  19943 ****         7.5000  13.5000  37.2500 Du        
  19944 ****         7.5000  13.5000  37.5000 Du        
  19945 ****         7.5000  13.5000  37.7500 Du        
  19946 ****         7.5000  13.5000  38.0000 Du        
  19947 ****         7.5000  13.5000  38.2500 Du        
  19948 ****         7.5000  13.5000  38.5000 Du        
  19949 ****         7.5000  13.5000  38.7500 Du        
  19950 ****         7.5000  13.5000  41.2500 Du        
  19951 ****         7.5000  13.5000  41.5000 Du        
  19952 ****         7.5000  13.5000  41.7500 Du        
  19953 ****         7.5000  13.5000  42.0000 Du        
  19954 ****         7.5000  13.7500   9.7500 Du        
  19955 ****         7.5000  13.7500  10.0000 Du        
  19956 ****         7.5000  13.7500  10.2500 Du        
  19957 ****         7.5000  13.7500  10.5000 Du        
  19958 ****         7.5000  13.7500  10.7500 Du        
  19959 ****         7.5000  13.7500  11.0000 Du        
  19960 ****         7.5000  13.7500  11.2500 Du        
  19961 ****         7.5000  13.7500  37.2500 Du        
  19962 ****         7.5000  13.7500  37.5000 Du        
  19963 ****         7.5000  13.7500  37.7500 Du        
  19964 ****         7.5000  13.7500  38.0000 Du        
  19965 ****         7.5000  13.7500  38.2500 Du        
  19966 ****         7.5000  13.7500  38.5000 Du        
  19967 ****         7.5000  13.7500  38.7500 Du        
  19968 ****         7.5000  13.7500  39.0000 Du        
  19969 ****         7.5000  13.7500  41.0000 Du        
  19970 ****         7.5000  13.7500  41.2500 Du        
  19971 ****         7.5000  13.7500  41.5000 Du        
  19972 ****         7.5000  13.7500  41.7500 Du        
  19973 ****         7.5000  14.0000   9.7500 Du        
  19974 ****         7.5000  14.0000  10.0000 Du        
  19975 ****         7.5000  14.0000  10.2500 Du        
  19976 ****         7.5000  14.0000  10.5000 Du        
  19977 ****         7.5000  14.0000  10.7500 Du        
  19978 ****         7.5000  14.0000  11.0000 Du        
  19979 ****         7.5000  14.0000  37.5000 Du        
  19980 ****         7.5000  14.0000  37.7500 Du        
  19981 ****         7.5000  14.0000  38.0000 Du        
  19982 ****         7.5000  14.0000  38.2500 Du        
  19983 ****         7.5000  14.0000  38.5000 Du        
  19984 ****         7.5000  14.0000  38.7500 Du        
  19985 ****         7.5000  14.0000  39.0000 Du        
  19986 ****         7.5000  14.0000  39.2500 Du        
  19987 ****         7.5000  14.0000  40.7500 Du        
  19988 ****         7.5000  14.0000  41.0000 Du        
  19989 ****         7.5000  14.0000  41.2500 Du        
  19990 ****         7.5000  14.0000  41.5000 Du        
  19991 ****         7.5000  14.0000  41.7500 Du        
  19992 ****         7.5000  14.2500   9.7500 Du        
  19993 ****         7.5000  14.2500  10.0000 Du        
  19994 ****         7.5000  14.2500  10.2500 Du        
  19995 ****         7.5000  14.2500  10.5000 Du        
  19996 ****         7.5000  14.2500  37.7500 Du        
  19997 ****         7.5000  14.2500  38.0000 Du        
  19998 ****         7.5000  14.2500  38.2500 Du        
  19999 ****         7.5000  14.2500  38.5000 Du        
  20000 ****         7.5000  14.2500  38.7500 Du        
  20001 ****         7.5000  14.2500  39.0000 Du        
  20002 ****         7.5000  14.2500  39.2500 Du        
  20003 ****         7.5000  14.2500  39.5000 Du        
  20004 ****         7.5000  14.2500  39.7500 Du        
  20005 ****         7.5000  14.2500  40.0000 Du        
  20006 ****         7.5000  14.2500  40.2500 Du        
  20007 ****         7.5000  14.2500  40.5000 Du        
  20008 ****         7.5000  14.2500  40.7500 Du        
  20009 ****         7.5000  14.2500  41.0000 Du        
  20010 ****         7.5000  14.2500  41.2500 Du        
  20011 ****         7.5000  14.2500  41.5000 Du        
  20012 ****         7.5000  14.2500  41.7500 Du        
  20013 ****         7.5000  14.5000  10.0000 Du        
  20014 ****         7.5000  14.5000  10.2500 Du        
  20015 ****         7.5000  14.5000  38.0000 Du        
  20016 ****         7.5000  14.5000  38.2500 Du        
  20017 ****         7.5000  14.5000  38.5000 Du        
  20018 ****         7.5000  14.5000  38.7500 Du        
  20019 ****         7.5000  14.5000  39.0000 Du        
  20020 ****         7.5000  14.5000  39.2500 Du        
  20021 ****         7.5000  14.5000  39.5000 Du        
  20022 ****         7.5000  14.5000  39.7500 Du        
  20023 ****         7.5000  14.5000  40.0000 Du        
  20024 ****         7.5000  14.5000  40.2500 Du        
  20025 ****         7.5000  14.5000  40.5000 Du        
  20026 ****         7.5000  14.5000  40.7500 Du        
  20027 ****         7.5000  14.5000  41.0000 Du        
  20028 ****         7.5000  14.5000  41.2500 Du        
  20029 ****         7.5000  14.5000  41.5000 Du        
  20030 ****         7.5000  14.7500  38.2500 Du        
  20031 ****         7.5000  14.7500  38.5000 Du        
  20032 ****         7.5000  14.7500  38.7500 Du        
  20033 ****         7.5000  14.7500  39.0000 Du        
  20034 ****         7.5000  14.7500  39.2500 Du        
  20035 ****         7.5000  14.7500  39.5000 Du        
  20036 ****         7.5000  14.7500  39.7500 Du        
  20037 ****         7.5000  14.7500  40.0000 Du        
  20038 ****         7.5000  14.7500  40.2500 Du        
  20039 ****         7.5000  14.7500  40.5000 Du        
  20040 ****         7.5000  14.7500  40.7500 Du        
  20041 ****         7.5000  14.7500  41.0000 Du        
  20042 ****         7.5000  14.7500  41.2500 Du        
  20043 ****         7.5000  14.7500  41.5000 Du        
  20044 ****         7.5000  14.7500  41.7500 Du        
  20045 ****         7.5000  15.0000  38.2500 Du        
  20046 ****         7.5000  15.0000  38.5000 Du        
  20047 ****         7.5000  15.0000  38.7500 Du        
  20048 ****         7.5000  15.0000  39.0000 Du        
  20049 ****         7.5000  15.0000  39.2500 Du        
  20050 ****         7.5000  15.0000  39.5000 Du        
  20051 ****         7.5000  15.0000  39.7500 Du        
  20052 ****         7.5000  15.0000  40.0000 Du        
  20053 ****         7.5000  15.0000  40.2500 Du        
  20054 ****         7.5000  15.0000  40.5000 Du        
  20055 ****         7.5000  15.0000  40.7500 Du        
  20056 ****         7.5000  15.0000  41.0000 Du        
  20057 ****         7.5000  15.0000  41.2500 Du        
  20058 ****         7.5000  15.0000  41.5000 Du        
  20059 ****         7.5000  15.0000  41.7500 Du        
  20060 ****         7.5000  15.2500  38.5000 Du        
  20061 ****         7.5000  15.2500  38.7500 Du        
  20062 ****         7.5000  15.2500  39.0000 Du        
  20063 ****         7.5000  15.2500  39.2500 Du        
  20064 ****         7.5000  15.2500  39.5000 Du        
  20065 ****         7.5000  15.2500  39.7500 Du        
  20066 ****         7.5000  15.2500  40.0000 Du        
  20067 ****         7.5000  15.2500  40.2500 Du        
  20068 ****         7.5000  15.2500  40.5000 Du        
  20069 ****         7.5000  15.2500  40.7500 Du        
  20070 ****         7.5000  15.2500  41.0000 Du        
  20071 ****         7.5000  15.2500  41.2500 Du        
  20072 ****         7.5000  15.2500  41.5000 Du        
  20073 ****         7.5000  15.2500  41.7500 Du        
  20074 ****         7.5000  15.5000  38.7500 Du        
  20075 ****         7.5000  15.5000  39.0000 Du        
  20076 ****         7.5000  15.5000  39.2500 Du        
  20077 ****         7.5000  15.5000  39.5000 Du        
  20078 ****         7.5000  15.5000  39.7500 Du        
  20079 ****         7.5000  15.5000  40.0000 Du        
  20080 ****         7.5000  15.5000  40.2500 Du        
  20081 ****         7.5000  15.5000  40.5000 Du        
  20082 ****         7.5000  15.5000  40.7500 Du        
  20083 ****         7.5000  15.5000  41.0000 Du        
  20084 ****         7.5000  15.5000  41.2500 Du        
  20085 ****         7.5000  15.5000  41.5000 Du        
  20086 ****         7.5000  15.5000  41.7500 Du        
  20087 ****         7.5000  15.7500  39.0000 Du        
  20088 ****         7.5000  15.7500  39.7500 Du        
  20089 ****         7.5000  15.7500  40.0000 Du        
  20090 ****         7.5000  15.7500  40.2500 Du        
  20091 ****         7.5000  15.7500  40.5000 Du        
  20092 ****         7.5000  15.7500  40.7500 Du        
  20093 ****         7.5000  15.7500  41.0000 Du        
  20094 ****         7.5000  15.7500  41.2500 Du        
  20095 ****         7.5000  15.7500  41.5000 Du        
  20096 ****         7.5000  15.7500  41.7500 Du        
  20097 ****         7.5000  16.0000  40.2500 Du        
  20098 ****         7.5000  16.0000  40.5000 Du        
  20099 ****         7.5000  16.0000  40.7500 Du        
  20100 ****         7.5000  16.0000  41.0000 Du        
  20101 ****         7.5000  16.0000  41.2500 Du        
  20102 ****         7.5000  16.0000  41.5000 Du        
  20103 ****         7.5000  16.0000  41.7500 Du        
  20104 ****         7.5000  16.2500  40.5000 Du        
  20105 ****         7.5000  16.2500  40.7500 Du        
  20106 ****         7.5000  16.2500  41.0000 Du        
  20107 ****         7.5000  16.2500  41.2500 Du        
  20108 ****         7.5000  16.2500  41.5000 Du        
  20109 ****         7.5000  16.2500  41.7500 Du        
  20110 ****         7.5000  16.5000  40.7500 Du        
  20111 ****         7.5000  16.5000  41.0000 Du        
  20112 ****         7.5000  16.5000  41.2500 Du        
  20113 ****         7.5000  16.5000  41.5000 Du        
  20114 ****         7.5000  16.5000  41.7500 Du        
  20115 ****         7.5000  16.7500  41.0000 Du        
  20116 ****         7.5000  16.7500  41.2500 Du        
  20117 ****         7.5000  16.7500  41.5000 Du        
  20118 ****         7.5000  16.7500  41.7500 Du        
  20119 ****         7.5000  16.7500  42.0000 Du        
  20120 ****         7.5000  17.0000  41.2500 Du        
  20121 ****         7.5000  17.0000  41.7500 Du        
  20122 ****         7.5000  17.0000  42.0000 Du        
  20123 ****         7.7500  -2.7500  27.0000 Du        
  20124 ****         7.7500  -2.7500  27.2500 Du        
  20125 ****         7.7500  -2.7500  27.5000 Du        
  20126 ****         7.7500   5.0000  24.5000 Du        
  20127 ****         7.7500   5.0000  24.7500 Du        
  20128 ****         7.7500   5.5000  24.5000 Du        
  20129 ****         7.7500   5.7500  24.5000 Du        
  20130 ****         7.7500   6.0000  24.2500 Du        
  20131 ****         7.7500   6.0000  24.5000 Du        
  20132 ****         7.7500   9.2500  35.0000 Du        
  20133 ****         7.7500   9.2500  35.2500 Du        
  20134 ****         7.7500   9.2500  35.5000 Du        
  20135 ****         7.7500   9.5000  34.7500 Du        
  20136 ****         7.7500   9.5000  35.0000 Du        
  20137 ****         7.7500   9.5000  35.2500 Du        
  20138 ****         7.7500   9.5000  35.5000 Du        
  20139 ****         7.7500   9.5000  35.7500 Du        
  20140 ****         7.7500   9.5000  36.0000 Du        
  20141 ****         7.7500   9.7500  35.0000 Du        
  20142 ****         7.7500   9.7500  35.2500 Du        
  20143 ****         7.7500   9.7500  35.5000 Du        
  20144 ****         7.7500   9.7500  35.7500 Du        
  20145 ****         7.7500   9.7500  36.0000 Du        
  20146 ****         7.7500   9.7500  36.2500 Du        
  20147 ****         7.7500   9.7500  36.5000 Du        
  20148 ****         7.7500  10.0000  35.2500 Du        
  20149 ****         7.7500  10.0000  35.5000 Du        
  20150 ****         7.7500  10.0000  35.7500 Du        
  20151 ****         7.7500  10.0000  36.0000 Du        
  20152 ****         7.7500  10.0000  36.2500 Du        
  20153 ****         7.7500  10.0000  36.5000 Du        
  20154 ****         7.7500  10.2500  35.7500 Du        
  20155 ****         7.7500  10.2500  36.0000 Du        
  20156 ****         7.7500  10.2500  36.2500 Du        
  20157 ****         7.7500  10.2500  36.5000 Du        
  20158 ****         7.7500  10.2500  36.7500 Du        
  20159 ****         7.7500  10.5000  36.0000 Du        
  20160 ****         7.7500  10.5000  36.2500 Du        
  20161 ****         7.7500  10.5000  36.5000 Du        
  20162 ****         7.7500  10.5000  36.7500 Du        
  20163 ****         7.7500  10.5000  37.0000 Du        
  20164 ****         7.7500  10.7500  36.2500 Du        
  20165 ****         7.7500  10.7500  36.5000 Du        
  20166 ****         7.7500  10.7500  36.7500 Du        
  20167 ****         7.7500  10.7500  37.0000 Du        
  20168 ****         7.7500  10.7500  37.2500 Du        
  20169 ****         7.7500  11.0000  36.5000 Du        
  20170 ****         7.7500  11.0000  36.7500 Du        
  20171 ****         7.7500  11.0000  37.0000 Du        
  20172 ****         7.7500  11.0000  37.2500 Du        
  20173 ****         7.7500  11.0000  37.5000 Du        
  20174 ****         7.7500  11.2500  36.7500 Du        
  20175 ****         7.7500  11.2500  37.0000 Du        
  20176 ****         7.7500  11.2500  37.2500 Du        
  20177 ****         7.7500  11.2500  37.5000 Du        
  20178 ****         7.7500  11.2500  37.7500 Du        
  20179 ****         7.7500  11.5000  37.0000 Du        
  20180 ****         7.7500  11.5000  37.2500 Du        
  20181 ****         7.7500  11.5000  37.5000 Du        
  20182 ****         7.7500  11.5000  37.7500 Du        
  20183 ****         7.7500  11.5000  38.0000 Du        
  20184 ****         7.7500  11.7500  37.0000 Du        
  20185 ****         7.7500  11.7500  37.2500 Du        
  20186 ****         7.7500  11.7500  37.5000 Du        
  20187 ****         7.7500  11.7500  37.7500 Du        
  20188 ****         7.7500  11.7500  38.0000 Du        
  20189 ****         7.7500  11.7500  38.2500 Du        
  20190 ****         7.7500  11.7500  43.2500 Du        
  20191 ****         7.7500  11.7500  43.5000 Du        
  20192 ****         7.7500  12.0000  11.0000 Du        
  20193 ****         7.7500  12.0000  11.2500 Du        
  20194 ****         7.7500  12.0000  37.2500 Du        
  20195 ****         7.7500  12.0000  37.5000 Du        
  20196 ****         7.7500  12.0000  37.7500 Du        
  20197 ****         7.7500  12.0000  38.0000 Du        
  20198 ****         7.7500  12.0000  38.2500 Du        
  20199 ****         7.7500  12.0000  42.7500 Du        
  20200 ****         7.7500  12.0000  43.0000 Du        
  20201 ****         7.7500  12.0000  43.2500 Du        
  20202 ****         7.7500  12.0000  43.5000 Du        
  20203 ****         7.7500  12.0000  43.7500 Du        
  20204 ****         7.7500  12.2500  10.5000 Du        
  20205 ****         7.7500  12.2500  10.7500 Du        
  20206 ****         7.7500  12.2500  11.0000 Du        
  20207 ****         7.7500  12.2500  11.2500 Du        
  20208 ****         7.7500  12.2500  37.2500 Du        
  20209 ****         7.7500  12.2500  37.5000 Du        
  20210 ****         7.7500  12.2500  37.7500 Du        
  20211 ****         7.7500  12.2500  38.0000 Du        
  20212 ****         7.7500  12.2500  38.2500 Du        
  20213 ****         7.7500  12.2500  38.5000 Du        
  20214 ****         7.7500  12.2500  42.0000 Du        
  20215 ****         7.7500  12.2500  42.2500 Du        
  20216 ****         7.7500  12.2500  42.5000 Du        
  20217 ****         7.7500  12.2500  42.7500 Du        
  20218 ****         7.7500  12.2500  43.0000 Du        
  20219 ****         7.7500  12.2500  43.2500 Du        
  20220 ****         7.7500  12.2500  43.5000 Du        
  20221 ****         7.7500  12.2500  43.7500 Du        
  20222 ****         7.7500  12.5000  10.0000 Du        
  20223 ****         7.7500  12.5000  10.2500 Du        
  20224 ****         7.7500  12.5000  10.5000 Du        
  20225 ****         7.7500  12.5000  10.7500 Du        
  20226 ****         7.7500  12.5000  11.0000 Du        
  20227 ****         7.7500  12.5000  11.2500 Du        
  20228 ****         7.7500  12.5000  37.2500 Du        
  20229 ****         7.7500  12.5000  37.5000 Du        
  20230 ****         7.7500  12.5000  37.7500 Du        
  20231 ****         7.7500  12.5000  38.0000 Du        
  20232 ****         7.7500  12.5000  38.2500 Du        
  20233 ****         7.7500  12.5000  38.5000 Du        
  20234 ****         7.7500  12.5000  38.7500 Du        
  20235 ****         7.7500  12.5000  41.5000 Du        
  20236 ****         7.7500  12.5000  41.7500 Du        
  20237 ****         7.7500  12.5000  42.0000 Du        
  20238 ****         7.7500  12.5000  42.2500 Du        
  20239 ****         7.7500  12.5000  42.5000 Du        
  20240 ****         7.7500  12.5000  42.7500 Du        
  20241 ****         7.7500  12.5000  43.0000 Du        
  20242 ****         7.7500  12.7500  10.0000 Du        
  20243 ****         7.7500  12.7500  10.2500 Du        
  20244 ****         7.7500  12.7500  10.5000 Du        
  20245 ****         7.7500  12.7500  10.7500 Du        
  20246 ****         7.7500  12.7500  11.0000 Du        
  20247 ****         7.7500  12.7500  11.2500 Du        
  20248 ****         7.7500  12.7500  37.2500 Du        
  20249 ****         7.7500  12.7500  37.5000 Du        
  20250 ****         7.7500  12.7500  37.7500 Du        
  20251 ****         7.7500  12.7500  38.0000 Du        
  20252 ****         7.7500  12.7500  38.2500 Du        
  20253 ****         7.7500  12.7500  38.5000 Du        
  20254 ****         7.7500  12.7500  38.7500 Du        
  20255 ****         7.7500  12.7500  41.2500 Du        
  20256 ****         7.7500  12.7500  41.5000 Du        
  20257 ****         7.7500  12.7500  41.7500 Du        
  20258 ****         7.7500  12.7500  42.0000 Du        
  20259 ****         7.7500  12.7500  42.2500 Du        
  20260 ****         7.7500  12.7500  42.5000 Du        
  20261 ****         7.7500  13.0000   9.7500 Du        
  20262 ****         7.7500  13.0000  10.0000 Du        
  20263 ****         7.7500  13.0000  10.2500 Du        
  20264 ****         7.7500  13.0000  10.5000 Du        
  20265 ****         7.7500  13.0000  10.7500 Du        
  20266 ****         7.7500  13.0000  11.0000 Du        
  20267 ****         7.7500  13.0000  11.2500 Du        
  20268 ****         7.7500  13.0000  37.2500 Du        
  20269 ****         7.7500  13.0000  37.5000 Du        
  20270 ****         7.7500  13.0000  37.7500 Du        
  20271 ****         7.7500  13.0000  38.0000 Du        
  20272 ****         7.7500  13.0000  38.2500 Du        
  20273 ****         7.7500  13.0000  38.5000 Du        
  20274 ****         7.7500  13.0000  38.7500 Du        
  20275 ****         7.7500  13.0000  39.0000 Du        
  20276 ****         7.7500  13.0000  41.2500 Du        
  20277 ****         7.7500  13.0000  41.5000 Du        
  20278 ****         7.7500  13.0000  41.7500 Du        
  20279 ****         7.7500  13.0000  42.0000 Du        
  20280 ****         7.7500  13.0000  42.2500 Du        
  20281 ****         7.7500  13.2500   9.7500 Du        
  20282 ****         7.7500  13.2500  10.0000 Du        
  20283 ****         7.7500  13.2500  10.2500 Du        
  20284 ****         7.7500  13.2500  10.5000 Du        
  20285 ****         7.7500  13.2500  10.7500 Du        
  20286 ****         7.7500  13.2500  11.0000 Du        
  20287 ****         7.7500  13.2500  11.2500 Du        
  20288 ****         7.7500  13.2500  37.2500 Du        
  20289 ****         7.7500  13.2500  37.5000 Du        
  20290 ****         7.7500  13.2500  37.7500 Du        
  20291 ****         7.7500  13.2500  38.0000 Du        
  20292 ****         7.7500  13.2500  38.2500 Du        
  20293 ****         7.7500  13.2500  38.5000 Du        
  20294 ****         7.7500  13.2500  38.7500 Du        
  20295 ****         7.7500  13.2500  39.0000 Du        
  20296 ****         7.7500  13.2500  41.2500 Du        
  20297 ****         7.7500  13.2500  41.5000 Du        
  20298 ****         7.7500  13.2500  41.7500 Du        
  20299 ****         7.7500  13.2500  42.0000 Du        
  20300 ****         7.7500  13.5000   9.7500 Du        
  20301 ****         7.7500  13.5000  10.0000 Du        
  20302 ****         7.7500  13.5000  10.2500 Du        
  20303 ****         7.7500  13.5000  10.5000 Du        
  20304 ****         7.7500  13.5000  10.7500 Du        
  20305 ****         7.7500  13.5000  11.0000 Du        
  20306 ****         7.7500  13.5000  11.2500 Du        
  20307 ****         7.7500  13.5000  37.2500 Du        
  20308 ****         7.7500  13.5000  37.5000 Du        
  20309 ****         7.7500  13.5000  37.7500 Du        
  20310 ****         7.7500  13.5000  38.0000 Du        
  20311 ****         7.7500  13.5000  38.2500 Du        
  20312 ****         7.7500  13.5000  38.5000 Du        
  20313 ****         7.7500  13.5000  38.7500 Du        
  20314 ****         7.7500  13.5000  39.0000 Du        
  20315 ****         7.7500  13.5000  41.2500 Du        
  20316 ****         7.7500  13.5000  41.5000 Du        
  20317 ****         7.7500  13.5000  41.7500 Du        
  20318 ****         7.7500  13.7500   9.7500 Du        
  20319 ****         7.7500  13.7500  10.0000 Du        
  20320 ****         7.7500  13.7500  10.2500 Du        
  20321 ****         7.7500  13.7500  10.5000 Du        
  20322 ****         7.7500  13.7500  10.7500 Du        
  20323 ****         7.7500  13.7500  11.0000 Du        
  20324 ****         7.7500  13.7500  11.2500 Du        
  20325 ****         7.7500  13.7500  37.5000 Du        
  20326 ****         7.7500  13.7500  37.7500 Du        
  20327 ****         7.7500  13.7500  38.0000 Du        
  20328 ****         7.7500  13.7500  38.2500 Du        
  20329 ****         7.7500  13.7500  38.5000 Du        
  20330 ****         7.7500  13.7500  38.7500 Du        
  20331 ****         7.7500  13.7500  39.0000 Du        
  20332 ****         7.7500  13.7500  39.2500 Du        
  20333 ****         7.7500  13.7500  41.0000 Du        
  20334 ****         7.7500  13.7500  41.2500 Du        
  20335 ****         7.7500  13.7500  41.5000 Du        
  20336 ****         7.7500  13.7500  41.7500 Du        
  20337 ****         7.7500  14.0000   9.7500 Du        
  20338 ****         7.7500  14.0000  10.0000 Du        
  20339 ****         7.7500  14.0000  10.2500 Du        
  20340 ****         7.7500  14.0000  10.5000 Du        
  20341 ****         7.7500  14.0000  10.7500 Du        
  20342 ****         7.7500  14.0000  11.0000 Du        
  20343 ****         7.7500  14.0000  37.5000 Du        
  20344 ****         7.7500  14.0000  37.7500 Du        
  20345 ****         7.7500  14.0000  38.0000 Du        
  20346 ****         7.7500  14.0000  38.2500 Du        
  20347 ****         7.7500  14.0000  38.5000 Du        
  20348 ****         7.7500  14.0000  38.7500 Du        
  20349 ****         7.7500  14.0000  39.0000 Du        
  20350 ****         7.7500  14.0000  39.2500 Du        
  20351 ****         7.7500  14.0000  39.5000 Du        
  20352 ****         7.7500  14.0000  40.7500 Du        
  20353 ****         7.7500  14.0000  41.0000 Du        
  20354 ****         7.7500  14.0000  41.2500 Du        
  20355 ****         7.7500  14.0000  41.5000 Du        
  20356 ****         7.7500  14.2500   9.5000 Du        
  20357 ****         7.7500  14.2500   9.7500 Du        
  20358 ****         7.7500  14.2500  10.0000 Du        
  20359 ****         7.7500  14.2500  10.2500 Du        
  20360 ****         7.7500  14.2500  10.5000 Du        
  20361 ****         7.7500  14.2500  10.7500 Du        
  20362 ****         7.7500  14.2500  37.7500 Du        
  20363 ****         7.7500  14.2500  38.0000 Du        
  20364 ****         7.7500  14.2500  38.2500 Du        
  20365 ****         7.7500  14.2500  38.5000 Du        
  20366 ****         7.7500  14.2500  38.7500 Du        
  20367 ****         7.7500  14.2500  39.0000 Du        
  20368 ****         7.7500  14.2500  39.2500 Du        
  20369 ****         7.7500  14.2500  39.5000 Du        
  20370 ****         7.7500  14.2500  39.7500 Du        
  20371 ****         7.7500  14.2500  40.0000 Du        
  20372 ****         7.7500  14.2500  40.2500 Du        
  20373 ****         7.7500  14.2500  40.5000 Du        
  20374 ****         7.7500  14.2500  40.7500 Du        
  20375 ****         7.7500  14.2500  41.0000 Du        
  20376 ****         7.7500  14.2500  41.2500 Du        
  20377 ****         7.7500  14.2500  41.5000 Du        
  20378 ****         7.7500  14.5000   9.5000 Du        
  20379 ****         7.7500  14.5000   9.7500 Du        
  20380 ****         7.7500  14.5000  10.0000 Du        
  20381 ****         7.7500  14.5000  10.2500 Du        
  20382 ****         7.7500  14.5000  37.7500 Du        
  20383 ****         7.7500  14.5000  38.0000 Du        
  20384 ****         7.7500  14.5000  38.2500 Du        
  20385 ****         7.7500  14.5000  38.5000 Du        
  20386 ****         7.7500  14.5000  38.7500 Du        
  20387 ****         7.7500  14.5000  39.0000 Du        
  20388 ****         7.7500  14.5000  39.2500 Du        
  20389 ****         7.7500  14.5000  39.5000 Du        
  20390 ****         7.7500  14.5000  39.7500 Du        
  20391 ****         7.7500  14.5000  40.0000 Du        
  20392 ****         7.7500  14.5000  40.2500 Du        
  20393 ****         7.7500  14.5000  40.5000 Du        
  20394 ****         7.7500  14.5000  40.7500 Du        
  20395 ****         7.7500  14.5000  41.0000 Du        
  20396 ****         7.7500  14.5000  41.2500 Du        
  20397 ****         7.7500  14.5000  41.5000 Du        
  20398 ****         7.7500  14.7500   9.5000 Du        
  20399 ****         7.7500  14.7500   9.7500 Du        
  20400 ****         7.7500  14.7500  10.0000 Du        
  20401 ****         7.7500  14.7500  38.0000 Du        
  20402 ****         7.7500  14.7500  38.2500 Du        
  20403 ****         7.7500  14.7500  38.5000 Du        
  20404 ****         7.7500  14.7500  38.7500 Du        
  20405 ****         7.7500  14.7500  39.0000 Du        
  20406 ****         7.7500  14.7500  39.2500 Du        
  20407 ****         7.7500  14.7500  39.5000 Du        
  20408 ****         7.7500  14.7500  39.7500 Du        
  20409 ****         7.7500  14.7500  40.0000 Du        
  20410 ****         7.7500  14.7500  40.2500 Du        
  20411 ****         7.7500  14.7500  40.5000 Du        
  20412 ****         7.7500  14.7500  40.7500 Du        
  20413 ****         7.7500  14.7500  41.0000 Du        
  20414 ****         7.7500  14.7500  41.2500 Du        
  20415 ****         7.7500  14.7500  41.5000 Du        
  20416 ****         7.7500  15.0000   9.5000 Du        
  20417 ****         7.7500  15.0000   9.7500 Du        
  20418 ****         7.7500  15.0000  38.0000 Du        
  20419 ****         7.7500  15.0000  38.2500 Du        
  20420 ****         7.7500  15.0000  38.5000 Du        
  20421 ****         7.7500  15.0000  38.7500 Du        
  20422 ****         7.7500  15.0000  39.0000 Du        
  20423 ****         7.7500  15.0000  39.2500 Du        
  20424 ****         7.7500  15.0000  39.5000 Du        
  20425 ****         7.7500  15.0000  39.7500 Du        
  20426 ****         7.7500  15.0000  40.0000 Du        
  20427 ****         7.7500  15.0000  40.2500 Du        
  20428 ****         7.7500  15.0000  40.5000 Du        
  20429 ****         7.7500  15.0000  40.7500 Du        
  20430 ****         7.7500  15.0000  41.0000 Du        
  20431 ****         7.7500  15.0000  41.2500 Du        
  20432 ****         7.7500  15.0000  41.5000 Du        
  20433 ****         7.7500  15.2500   9.5000 Du        
  20434 ****         7.7500  15.2500  38.2500 Du        
  20435 ****         7.7500  15.2500  38.5000 Du        
  20436 ****         7.7500  15.2500  38.7500 Du        
  20437 ****         7.7500  15.2500  39.0000 Du        
  20438 ****         7.7500  15.2500  39.2500 Du        
  20439 ****         7.7500  15.2500  39.5000 Du        
  20440 ****         7.7500  15.2500  39.7500 Du        
  20441 ****         7.7500  15.2500  40.0000 Du        
  20442 ****         7.7500  15.2500  40.2500 Du        
  20443 ****         7.7500  15.2500  40.5000 Du        
  20444 ****         7.7500  15.2500  40.7500 Du        
  20445 ****         7.7500  15.2500  41.0000 Du        
  20446 ****         7.7500  15.2500  41.2500 Du        
  20447 ****         7.7500  15.2500  41.5000 Du        
  20448 ****         7.7500  15.5000  38.5000 Du        
  20449 ****         7.7500  15.5000  38.7500 Du        
  20450 ****         7.7500  15.5000  39.0000 Du        
  20451 ****         7.7500  15.5000  39.2500 Du        
  20452 ****         7.7500  15.5000  39.5000 Du        
  20453 ****         7.7500  15.5000  39.7500 Du        
  20454 ****         7.7500  15.5000  40.0000 Du        
  20455 ****         7.7500  15.5000  40.2500 Du        
  20456 ****         7.7500  15.5000  40.5000 Du        
  20457 ****         7.7500  15.5000  40.7500 Du        
  20458 ****         7.7500  15.5000  41.0000 Du        
  20459 ****         7.7500  15.5000  41.2500 Du        
  20460 ****         7.7500  15.5000  41.5000 Du        
  20461 ****         7.7500  15.7500  38.5000 Du        
  20462 ****         7.7500  15.7500  38.7500 Du        
  20463 ****         7.7500  15.7500  39.0000 Du        
  20464 ****         7.7500  15.7500  39.2500 Du        
  20465 ****         7.7500  15.7500  39.5000 Du        
  20466 ****         7.7500  15.7500  39.7500 Du        
  20467 ****         7.7500  15.7500  40.0000 Du        
  20468 ****         7.7500  15.7500  40.2500 Du        
  20469 ****         7.7500  15.7500  40.5000 Du        
  20470 ****         7.7500  15.7500  40.7500 Du        
  20471 ****         7.7500  15.7500  41.0000 Du        
  20472 ****         7.7500  15.7500  41.2500 Du        
  20473 ****         7.7500  15.7500  41.5000 Du        
  20474 ****         7.7500  16.0000  38.7500 Du        
  20475 ****         7.7500  16.0000  39.0000 Du        
  20476 ****         7.7500  16.0000  39.2500 Du        
  20477 ****         7.7500  16.0000  39.5000 Du        
  20478 ****         7.7500  16.0000  39.7500 Du        
  20479 ****         7.7500  16.0000  40.0000 Du        
  20480 ****         7.7500  16.0000  40.2500 Du        
  20481 ****         7.7500  16.0000  40.5000 Du        
  20482 ****         7.7500  16.0000  40.7500 Du        
  20483 ****         7.7500  16.0000  41.0000 Du        
  20484 ****         7.7500  16.0000  41.2500 Du        
  20485 ****         7.7500  16.0000  41.5000 Du        
  20486 ****         7.7500  16.0000  41.7500 Du        
  20487 ****         7.7500  16.2500  39.0000 Du        
  20488 ****         7.7500  16.2500  39.2500 Du        
  20489 ****         7.7500  16.2500  39.7500 Du        
  20490 ****         7.7500  16.2500  40.0000 Du        
  20491 ****         7.7500  16.2500  40.2500 Du        
  20492 ****         7.7500  16.2500  40.5000 Du        
  20493 ****         7.7500  16.2500  40.7500 Du        
  20494 ****         7.7500  16.2500  41.0000 Du        
  20495 ****         7.7500  16.2500  41.2500 Du        
  20496 ****         7.7500  16.2500  41.5000 Du        
  20497 ****         7.7500  16.2500  41.7500 Du        
  20498 ****         7.7500  16.5000  40.5000 Du        
  20499 ****         7.7500  16.5000  40.7500 Du        
  20500 ****         7.7500  16.5000  41.0000 Du        
  20501 ****         7.7500  16.5000  41.2500 Du        
  20502 ****         7.7500  16.5000  41.5000 Du        
  20503 ****         7.7500  16.5000  41.7500 Du        
  20504 ****         7.7500  16.7500  40.5000 Du        
  20505 ****         7.7500  16.7500  40.7500 Du        
  20506 ****         7.7500  16.7500  41.0000 Du        
  20507 ****         7.7500  16.7500  41.2500 Du        
  20508 ****         7.7500  16.7500  41.5000 Du        
  20509 ****         7.7500  16.7500  41.7500 Du        
  20510 ****         7.7500  16.7500  42.0000 Du        
  20511 ****         7.7500  17.0000  41.0000 Du        
  20512 ****         7.7500  17.0000  41.2500 Du        
  20513 ****         7.7500  17.0000  41.5000 Du        
  20514 ****         7.7500  17.0000  41.7500 Du        
  20515 ****         7.7500  17.0000  42.0000 Du        
  20516 ****         7.7500  17.2500  41.2500 Du        
  20517 ****         7.7500  17.2500  41.7500 Du        
  20518 ****         7.7500  17.2500  42.0000 Du        
  20519 ****         7.7500  17.2500  42.2500 Du        
  20520 ****         8.0000  -3.0000  27.0000 Du        
  20521 ****         8.0000  -2.7500  27.0000 Du        
  20522 ****         8.0000   4.5000  24.5000 Du        
  20523 ****         8.0000   4.5000  24.7500 Du        
  20524 ****         8.0000   4.7500  24.5000 Du        
  20525 ****         8.0000   4.7500  24.7500 Du        
  20526 ****         8.0000   5.0000  24.5000 Du        
  20527 ****         8.0000   5.0000  24.7500 Du        
  20528 ****         8.0000   5.2500  24.5000 Du        
  20529 ****         8.0000   5.2500  24.7500 Du        
  20530 ****         8.0000   5.5000  24.5000 Du        
  20531 ****         8.0000   5.5000  24.7500 Du        
  20532 ****         8.0000   5.7500  24.2500 Du        
  20533 ****         8.0000   5.7500  24.5000 Du        
  20534 ****         8.0000   5.7500  24.7500 Du        
  20535 ****         8.0000   6.0000  24.0000 Du        
  20536 ****         8.0000   6.0000  24.2500 Du        
  20537 ****         8.0000   6.0000  24.5000 Du        
  20538 ****         8.0000   6.2500  24.2500 Du        
  20539 ****         8.0000   6.2500  24.5000 Du        
  20540 ****         8.0000   9.2500  35.2500 Du        
  20541 ****         8.0000   9.2500  35.5000 Du        
  20542 ****         8.0000   9.2500  35.7500 Du        
  20543 ****         8.0000   9.2500  36.0000 Du        
  20544 ****         8.0000   9.5000  35.0000 Du        
  20545 ****         8.0000   9.5000  35.2500 Du        
  20546 ****         8.0000   9.5000  35.5000 Du        
  20547 ****         8.0000   9.5000  35.7500 Du        
  20548 ****         8.0000   9.5000  36.0000 Du        
  20549 ****         8.0000   9.5000  36.2500 Du        
  20550 ****         8.0000   9.7500  35.0000 Du        
  20551 ****         8.0000   9.7500  35.2500 Du        
  20552 ****         8.0000   9.7500  35.5000 Du        
  20553 ****         8.0000   9.7500  35.7500 Du        
  20554 ****         8.0000   9.7500  36.0000 Du        
  20555 ****         8.0000   9.7500  36.2500 Du        
  20556 ****         8.0000   9.7500  36.5000 Du        
  20557 ****         8.0000  10.0000  35.2500 Du        
  20558 ****         8.0000  10.0000  35.5000 Du        
  20559 ****         8.0000  10.0000  35.7500 Du        
  20560 ****         8.0000  10.0000  36.0000 Du        
  20561 ****         8.0000  10.0000  36.2500 Du        
  20562 ****         8.0000  10.0000  36.5000 Du        
  20563 ****         8.0000  10.0000  36.7500 Du        
  20564 ****         8.0000  10.2500  35.7500 Du        
  20565 ****         8.0000  10.2500  36.0000 Du        
  20566 ****         8.0000  10.2500  36.2500 Du        
  20567 ****         8.0000  10.2500  36.5000 Du        
  20568 ****         8.0000  10.2500  36.7500 Du        
  20569 ****         8.0000  10.2500  37.0000 Du        
  20570 ****         8.0000  10.5000  36.0000 Du        
  20571 ****         8.0000  10.5000  36.2500 Du        
  20572 ****         8.0000  10.5000  36.5000 Du        
  20573 ****         8.0000  10.5000  36.7500 Du        
  20574 ****         8.0000  10.5000  37.0000 Du        
  20575 ****         8.0000  10.5000  37.2500 Du        
  20576 ****         8.0000  10.7500  36.2500 Du        
  20577 ****         8.0000  10.7500  36.5000 Du        
  20578 ****         8.0000  10.7500  36.7500 Du        
  20579 ****         8.0000  10.7500  37.0000 Du        
  20580 ****         8.0000  10.7500  37.2500 Du        
  20581 ****         8.0000  11.0000  36.5000 Du        
  20582 ****         8.0000  11.0000  36.7500 Du        
  20583 ****         8.0000  11.0000  37.0000 Du        
  20584 ****         8.0000  11.0000  37.2500 Du        
  20585 ****         8.0000  11.0000  37.5000 Du        
  20586 ****         8.0000  11.2500  36.7500 Du        
  20587 ****         8.0000  11.2500  37.0000 Du        
  20588 ****         8.0000  11.2500  37.2500 Du        
  20589 ****         8.0000  11.2500  37.5000 Du        
  20590 ****         8.0000  11.5000  37.0000 Du        
  20591 ****         8.0000  11.5000  37.2500 Du        
  20592 ****         8.0000  11.5000  37.5000 Du        
  20593 ****         8.0000  11.7500  37.2500 Du        
  20594 ****         8.0000  11.7500  37.5000 Du        
  20595 ****         8.0000  11.7500  37.7500 Du        
  20596 ****         8.0000  11.7500  43.0000 Du        
  20597 ****         8.0000  11.7500  43.2500 Du        
  20598 ****         8.0000  12.0000  11.0000 Du        
  20599 ****         8.0000  12.0000  11.2500 Du        
  20600 ****         8.0000  12.0000  37.2500 Du        
  20601 ****         8.0000  12.0000  37.5000 Du        
  20602 ****         8.0000  12.0000  37.7500 Du        
  20603 ****         8.0000  12.0000  38.0000 Du        
  20604 ****         8.0000  12.0000  42.2500 Du        
  20605 ****         8.0000  12.0000  42.5000 Du        
  20606 ****         8.0000  12.0000  42.7500 Du        
  20607 ****         8.0000  12.0000  43.0000 Du        
  20608 ****         8.0000  12.0000  43.2500 Du        
  20609 ****         8.0000  12.0000  43.5000 Du        
  20610 ****         8.0000  12.2500  10.5000 Du        
  20611 ****         8.0000  12.2500  10.7500 Du        
  20612 ****         8.0000  12.2500  11.0000 Du        
  20613 ****         8.0000  12.2500  11.2500 Du        
  20614 ****         8.0000  12.2500  37.2500 Du        
  20615 ****         8.0000  12.2500  37.5000 Du        
  20616 ****         8.0000  12.2500  37.7500 Du        
  20617 ****         8.0000  12.2500  38.0000 Du        
  20618 ****         8.0000  12.2500  41.7500 Du        
  20619 ****         8.0000  12.2500  42.0000 Du        
  20620 ****         8.0000  12.2500  42.2500 Du        
  20621 ****         8.0000  12.2500  42.5000 Du        
  20622 ****         8.0000  12.2500  42.7500 Du        
  20623 ****         8.0000  12.2500  43.0000 Du        
  20624 ****         8.0000  12.2500  43.2500 Du        
  20625 ****         8.0000  12.2500  43.5000 Du        
  20626 ****         8.0000  12.5000  10.0000 Du        
  20627 ****         8.0000  12.5000  10.2500 Du        
  20628 ****         8.0000  12.5000  10.5000 Du        
  20629 ****         8.0000  12.5000  10.7500 Du        
  20630 ****         8.0000  12.5000  11.0000 Du        
  20631 ****         8.0000  12.5000  11.2500 Du        
  20632 ****         8.0000  12.5000  37.5000 Du        
  20633 ****         8.0000  12.5000  37.7500 Du        
  20634 ****         8.0000  12.5000  38.0000 Du        
  20635 ****         8.0000  12.5000  41.5000 Du        
  20636 ****         8.0000  12.5000  41.7500 Du        
  20637 ****         8.0000  12.5000  42.0000 Du        
  20638 ****         8.0000  12.5000  42.2500 Du        
  20639 ****         8.0000  12.5000  42.5000 Du        
  20640 ****         8.0000  12.5000  42.7500 Du        
  20641 ****         8.0000  12.5000  43.0000 Du        
  20642 ****         8.0000  12.7500   9.7500 Du        
  20643 ****         8.0000  12.7500  10.0000 Du        
  20644 ****         8.0000  12.7500  10.2500 Du        
  20645 ****         8.0000  12.7500  10.5000 Du        
  20646 ****         8.0000  12.7500  10.7500 Du        
  20647 ****         8.0000  12.7500  11.0000 Du        
  20648 ****         8.0000  12.7500  11.2500 Du        
  20649 ****         8.0000  12.7500  37.5000 Du        
  20650 ****         8.0000  12.7500  37.7500 Du        
  20651 ****         8.0000  12.7500  38.0000 Du        
  20652 ****         8.0000  12.7500  38.2500 Du        
  20653 ****         8.0000  12.7500  41.5000 Du        
  20654 ****         8.0000  12.7500  41.7500 Du        
  20655 ****         8.0000  12.7500  42.0000 Du        
  20656 ****         8.0000  12.7500  42.2500 Du        
  20657 ****         8.0000  12.7500  42.5000 Du        
  20658 ****         8.0000  13.0000   9.7500 Du        
  20659 ****         8.0000  13.0000  10.0000 Du        
  20660 ****         8.0000  13.0000  10.2500 Du        
  20661 ****         8.0000  13.0000  10.5000 Du        
  20662 ****         8.0000  13.0000  10.7500 Du        
  20663 ****         8.0000  13.0000  11.0000 Du        
  20664 ****         8.0000  13.0000  11.2500 Du        
  20665 ****         8.0000  13.0000  37.5000 Du        
  20666 ****         8.0000  13.0000  37.7500 Du        
  20667 ****         8.0000  13.0000  38.0000 Du        
  20668 ****         8.0000  13.0000  38.2500 Du        
  20669 ****         8.0000  13.0000  38.5000 Du        
  20670 ****         8.0000  13.0000  41.5000 Du        
  20671 ****         8.0000  13.0000  41.7500 Du        
  20672 ****         8.0000  13.0000  42.0000 Du        
  20673 ****         8.0000  13.0000  42.2500 Du        
  20674 ****         8.0000  13.2500   9.7500 Du        
  20675 ****         8.0000  13.2500  10.0000 Du        
  20676 ****         8.0000  13.2500  10.2500 Du        
  20677 ****         8.0000  13.2500  10.5000 Du        
  20678 ****         8.0000  13.2500  10.7500 Du        
  20679 ****         8.0000  13.2500  11.0000 Du        
  20680 ****         8.0000  13.2500  11.2500 Du        
  20681 ****         8.0000  13.2500  37.5000 Du        
  20682 ****         8.0000  13.2500  37.7500 Du        
  20683 ****         8.0000  13.2500  38.0000 Du        
  20684 ****         8.0000  13.2500  38.2500 Du        
  20685 ****         8.0000  13.2500  38.5000 Du        
  20686 ****         8.0000  13.2500  41.7500 Du        
  20687 ****         8.0000  13.2500  42.0000 Du        
  20688 ****         8.0000  13.5000   9.7500 Du        
  20689 ****         8.0000  13.5000  10.0000 Du        
  20690 ****         8.0000  13.5000  10.2500 Du        
  20691 ****         8.0000  13.5000  10.5000 Du        
  20692 ****         8.0000  13.5000  10.7500 Du        
  20693 ****         8.0000  13.5000  11.0000 Du        
  20694 ****         8.0000  13.5000  11.2500 Du        
  20695 ****         8.0000  13.5000  37.5000 Du        
  20696 ****         8.0000  13.5000  37.7500 Du        
  20697 ****         8.0000  13.5000  38.0000 Du        
  20698 ****         8.0000  13.5000  38.2500 Du        
  20699 ****         8.0000  13.5000  38.5000 Du        
  20700 ****         8.0000  13.5000  38.7500 Du        
  20701 ****         8.0000  13.7500   9.7500 Du        
  20702 ****         8.0000  13.7500  10.0000 Du        
  20703 ****         8.0000  13.7500  10.2500 Du        
  20704 ****         8.0000  13.7500  10.5000 Du        
  20705 ****         8.0000  13.7500  10.7500 Du        
  20706 ****         8.0000  13.7500  11.0000 Du        
  20707 ****         8.0000  13.7500  11.2500 Du        
  20708 ****         8.0000  13.7500  37.5000 Du        
  20709 ****         8.0000  13.7500  37.7500 Du        
  20710 ****         8.0000  13.7500  38.0000 Du        
  20711 ****         8.0000  13.7500  38.2500 Du        
  20712 ****         8.0000  13.7500  38.5000 Du        
  20713 ****         8.0000  13.7500  38.7500 Du        
  20714 ****         8.0000  14.0000   9.5000 Du        
  20715 ****         8.0000  14.0000   9.7500 Du        
  20716 ****         8.0000  14.0000  10.0000 Du        
  20717 ****         8.0000  14.0000  10.2500 Du        
  20718 ****         8.0000  14.0000  10.5000 Du        
  20719 ****         8.0000  14.0000  10.7500 Du        
  20720 ****         8.0000  14.0000  11.0000 Du        
  20721 ****         8.0000  14.0000  11.2500 Du        
  20722 ****         8.0000  14.0000  37.5000 Du        
  20723 ****         8.0000  14.0000  37.7500 Du        
  20724 ****         8.0000  14.0000  38.0000 Du        
  20725 ****         8.0000  14.0000  38.2500 Du        
  20726 ****         8.0000  14.0000  38.5000 Du        
  20727 ****         8.0000  14.0000  38.7500 Du        
  20728 ****         8.0000  14.0000  39.0000 Du        
  20729 ****         8.0000  14.2500   9.5000 Du        
  20730 ****         8.0000  14.2500   9.7500 Du        
  20731 ****         8.0000  14.2500  10.0000 Du        
  20732 ****         8.0000  14.2500  10.2500 Du        
  20733 ****         8.0000  14.2500  10.5000 Du        
  20734 ****         8.0000  14.2500  10.7500 Du        
  20735 ****         8.0000  14.2500  37.5000 Du        
  20736 ****         8.0000  14.2500  37.7500 Du        
  20737 ****         8.0000  14.2500  38.0000 Du        
  20738 ****         8.0000  14.2500  38.2500 Du        
  20739 ****         8.0000  14.2500  38.5000 Du        
  20740 ****         8.0000  14.2500  38.7500 Du        
  20741 ****         8.0000  14.2500  39.0000 Du        
  20742 ****         8.0000  14.2500  39.2500 Du        
  20743 ****         8.0000  14.2500  41.2500 Du        
  20744 ****         8.0000  14.5000   9.2500 Du        
  20745 ****         8.0000  14.5000   9.5000 Du        
  20746 ****         8.0000  14.5000   9.7500 Du        
  20747 ****         8.0000  14.5000  10.0000 Du        
  20748 ****         8.0000  14.5000  10.2500 Du        
  20749 ****         8.0000  14.5000  37.7500 Du        
  20750 ****         8.0000  14.5000  38.0000 Du        
  20751 ****         8.0000  14.5000  38.2500 Du        
  20752 ****         8.0000  14.5000  38.5000 Du        
  20753 ****         8.0000  14.5000  38.7500 Du        
  20754 ****         8.0000  14.5000  39.0000 Du        
  20755 ****         8.0000  14.5000  39.2500 Du        
  20756 ****         8.0000  14.5000  41.0000 Du        
  20757 ****         8.0000  14.5000  41.2500 Du        
  20758 ****         8.0000  14.7500   9.2500 Du        
  20759 ****         8.0000  14.7500   9.5000 Du        
  20760 ****         8.0000  14.7500   9.7500 Du        
  20761 ****         8.0000  14.7500  10.0000 Du        
  20762 ****         8.0000  14.7500  10.2500 Du        
  20763 ****         8.0000  14.7500  37.7500 Du        
  20764 ****         8.0000  14.7500  38.0000 Du        
  20765 ****         8.0000  14.7500  38.2500 Du        
  20766 ****         8.0000  14.7500  38.5000 Du        
  20767 ****         8.0000  14.7500  38.7500 Du        
  20768 ****         8.0000  14.7500  39.0000 Du        
  20769 ****         8.0000  14.7500  39.2500 Du        
  20770 ****         8.0000  14.7500  39.5000 Du        
  20771 ****         8.0000  14.7500  39.7500 Du        
  20772 ****         8.0000  14.7500  40.0000 Du        
  20773 ****         8.0000  14.7500  40.2500 Du        
  20774 ****         8.0000  14.7500  40.5000 Du        
  20775 ****         8.0000  14.7500  40.7500 Du        
  20776 ****         8.0000  14.7500  41.0000 Du        
  20777 ****         8.0000  14.7500  41.2500 Du        
  20778 ****         8.0000  15.0000   9.0000 Du        
  20779 ****         8.0000  15.0000   9.2500 Du        
  20780 ****         8.0000  15.0000   9.5000 Du        
  20781 ****         8.0000  15.0000   9.7500 Du        
  20782 ****         8.0000  15.0000  10.0000 Du        
  20783 ****         8.0000  15.0000  38.0000 Du        
  20784 ****         8.0000  15.0000  38.2500 Du        
  20785 ****         8.0000  15.0000  38.5000 Du        
  20786 ****         8.0000  15.0000  38.7500 Du        
  20787 ****         8.0000  15.0000  39.0000 Du        
  20788 ****         8.0000  15.0000  39.2500 Du        
  20789 ****         8.0000  15.0000  39.5000 Du        
  20790 ****         8.0000  15.0000  39.7500 Du        
  20791 ****         8.0000  15.0000  40.0000 Du        
  20792 ****         8.0000  15.0000  40.2500 Du        
  20793 ****         8.0000  15.0000  40.5000 Du        
  20794 ****         8.0000  15.0000  40.7500 Du        
  20795 ****         8.0000  15.0000  41.0000 Du        
  20796 ****         8.0000  15.0000  41.2500 Du        
  20797 ****         8.0000  15.2500   8.7500 Du        
  20798 ****         8.0000  15.2500   9.0000 Du        
  20799 ****         8.0000  15.2500   9.2500 Du        
  20800 ****         8.0000  15.2500   9.5000 Du        
  20801 ****         8.0000  15.2500   9.7500 Du        
  20802 ****         8.0000  15.2500  38.0000 Du        
  20803 ****         8.0000  15.2500  38.2500 Du        
  20804 ****         8.0000  15.2500  38.5000 Du        
  20805 ****         8.0000  15.2500  38.7500 Du        
  20806 ****         8.0000  15.2500  39.0000 Du        
  20807 ****         8.0000  15.2500  39.2500 Du        
  20808 ****         8.0000  15.2500  39.5000 Du        
  20809 ****         8.0000  15.2500  39.7500 Du        
  20810 ****         8.0000  15.2500  40.0000 Du        
  20811 ****         8.0000  15.2500  40.2500 Du        
  20812 ****         8.0000  15.2500  40.5000 Du        
  20813 ****         8.0000  15.2500  40.7500 Du        
  20814 ****         8.0000  15.2500  41.0000 Du        
  20815 ****         8.0000  15.2500  41.2500 Du        
  20816 ****         8.0000  15.2500  41.5000 Du        
  20817 ****         8.0000  15.5000   8.7500 Du        
  20818 ****         8.0000  15.5000   9.0000 Du        
  20819 ****         8.0000  15.5000   9.2500 Du        
  20820 ****         8.0000  15.5000   9.5000 Du        
  20821 ****         8.0000  15.5000   9.7500 Du        
  20822 ****         8.0000  15.5000  38.2500 Du        
  20823 ****         8.0000  15.5000  38.5000 Du        
  20824 ****         8.0000  15.5000  38.7500 Du        
  20825 ****         8.0000  15.5000  39.0000 Du        
  20826 ****         8.0000  15.5000  39.2500 Du        
  20827 ****         8.0000  15.5000  39.5000 Du        
  20828 ****         8.0000  15.5000  39.7500 Du        
  20829 ****         8.0000  15.5000  40.0000 Du        
  20830 ****         8.0000  15.5000  40.2500 Du        
  20831 ****         8.0000  15.5000  40.5000 Du        
  20832 ****         8.0000  15.5000  40.7500 Du        
  20833 ****         8.0000  15.5000  41.0000 Du        
  20834 ****         8.0000  15.5000  41.2500 Du        
  20835 ****         8.0000  15.5000  41.5000 Du        
  20836 ****         8.0000  15.7500   8.5000 Du        
  20837 ****         8.0000  15.7500   8.7500 Du        
  20838 ****         8.0000  15.7500   9.0000 Du        
  20839 ****         8.0000  15.7500   9.2500 Du        
  20840 ****         8.0000  15.7500   9.5000 Du        
  20841 ****         8.0000  15.7500  38.2500 Du        
  20842 ****         8.0000  15.7500  38.5000 Du        
  20843 ****         8.0000  15.7500  38.7500 Du        
  20844 ****         8.0000  15.7500  39.0000 Du        
  20845 ****         8.0000  15.7500  39.2500 Du        
  20846 ****         8.0000  15.7500  39.5000 Du        
  20847 ****         8.0000  15.7500  39.7500 Du        
  20848 ****         8.0000  15.7500  40.0000 Du        
  20849 ****         8.0000  15.7500  40.2500 Du        
  20850 ****         8.0000  15.7500  40.5000 Du        
  20851 ****         8.0000  15.7500  40.7500 Du        
  20852 ****         8.0000  15.7500  41.0000 Du        
  20853 ****         8.0000  15.7500  41.2500 Du        
  20854 ****         8.0000  15.7500  41.5000 Du        
  20855 ****         8.0000  16.0000   8.5000 Du        
  20856 ****         8.0000  16.0000   8.7500 Du        
  20857 ****         8.0000  16.0000   9.0000 Du        
  20858 ****         8.0000  16.0000   9.2500 Du        
  20859 ****         8.0000  16.0000   9.5000 Du        
  20860 ****         8.0000  16.0000  38.2500 Du        
  20861 ****         8.0000  16.0000  38.5000 Du        
  20862 ****         8.0000  16.0000  38.7500 Du        
  20863 ****         8.0000  16.0000  39.0000 Du        
  20864 ****         8.0000  16.0000  39.2500 Du        
  20865 ****         8.0000  16.0000  39.5000 Du        
  20866 ****         8.0000  16.0000  39.7500 Du        
  20867 ****         8.0000  16.0000  40.0000 Du        
  20868 ****         8.0000  16.0000  40.2500 Du        
  20869 ****         8.0000  16.0000  40.5000 Du        
  20870 ****         8.0000  16.0000  40.7500 Du        
  20871 ****         8.0000  16.0000  41.0000 Du        
  20872 ****         8.0000  16.0000  41.2500 Du        
  20873 ****         8.0000  16.0000  41.5000 Du        
  20874 ****         8.0000  16.0000  41.7500 Du        
  20875 ****         8.0000  16.2500   8.7500 Du        
  20876 ****         8.0000  16.2500   9.0000 Du        
  20877 ****         8.0000  16.2500   9.2500 Du        
  20878 ****         8.0000  16.2500  38.5000 Du        
  20879 ****         8.0000  16.2500  38.7500 Du        
  20880 ****         8.0000  16.2500  39.0000 Du        
  20881 ****         8.0000  16.2500  39.2500 Du        
  20882 ****         8.0000  16.2500  39.5000 Du        
  20883 ****         8.0000  16.2500  39.7500 Du        
  20884 ****         8.0000  16.2500  40.0000 Du        
  20885 ****         8.0000  16.2500  40.2500 Du        
  20886 ****         8.0000  16.2500  40.5000 Du        
  20887 ****         8.0000  16.2500  40.7500 Du        
  20888 ****         8.0000  16.2500  41.0000 Du        
  20889 ****         8.0000  16.2500  41.2500 Du        
  20890 ****         8.0000  16.2500  41.5000 Du        
  20891 ****         8.0000  16.2500  41.7500 Du        
  20892 ****         8.0000  16.5000   9.0000 Du        
  20893 ****         8.0000  16.5000   9.2500 Du        
  20894 ****         8.0000  16.5000  38.5000 Du        
  20895 ****         8.0000  16.5000  38.7500 Du        
  20896 ****         8.0000  16.5000  39.0000 Du        
  20897 ****         8.0000  16.5000  39.2500 Du        
  20898 ****         8.0000  16.5000  39.5000 Du        
  20899 ****         8.0000  16.5000  39.7500 Du        
  20900 ****         8.0000  16.5000  40.0000 Du        
  20901 ****         8.0000  16.5000  40.2500 Du        
  20902 ****         8.0000  16.5000  40.5000 Du        
  20903 ****         8.0000  16.5000  40.7500 Du        
  20904 ****         8.0000  16.5000  41.0000 Du        
  20905 ****         8.0000  16.5000  41.2500 Du        
  20906 ****         8.0000  16.5000  41.5000 Du        
  20907 ****         8.0000  16.5000  41.7500 Du        
  20908 ****         8.0000  16.7500   9.0000 Du        
  20909 ****         8.0000  16.7500   9.2500 Du        
  20910 ****         8.0000  16.7500  38.5000 Du        
  20911 ****         8.0000  16.7500  38.7500 Du        
  20912 ****         8.0000  16.7500  39.0000 Du        
  20913 ****         8.0000  16.7500  39.2500 Du        
  20914 ****         8.0000  16.7500  39.5000 Du        
  20915 ****         8.0000  16.7500  39.7500 Du        
  20916 ****         8.0000  16.7500  40.0000 Du        
  20917 ****         8.0000  16.7500  40.2500 Du        
  20918 ****         8.0000  16.7500  40.5000 Du        
  20919 ****         8.0000  16.7500  40.7500 Du        
  20920 ****         8.0000  16.7500  41.0000 Du        
  20921 ****         8.0000  16.7500  41.2500 Du        
  20922 ****         8.0000  16.7500  41.5000 Du        
  20923 ****         8.0000  16.7500  41.7500 Du        
  20924 ****         8.0000  16.7500  42.0000 Du        
  20925 ****         8.0000  17.0000  38.7500 Du        
  20926 ****         8.0000  17.0000  39.0000 Du        
  20927 ****         8.0000  17.0000  39.2500 Du        
  20928 ****         8.0000  17.0000  39.5000 Du        
  20929 ****         8.0000  17.0000  39.7500 Du        
  20930 ****         8.0000  17.0000  40.5000 Du        
  20931 ****         8.0000  17.0000  40.7500 Du        
  20932 ****         8.0000  17.0000  41.0000 Du        
  20933 ****         8.0000  17.0000  41.2500 Du        
  20934 ****         8.0000  17.0000  41.5000 Du        
  20935 ****         8.0000  17.0000  41.7500 Du        
  20936 ****         8.0000  17.0000  42.0000 Du        
  20937 ****         8.0000  17.2500  38.7500 Du        
  20938 ****         8.0000  17.2500  39.0000 Du        
  20939 ****         8.0000  17.2500  39.2500 Du        
  20940 ****         8.0000  17.2500  41.2500 Du        
  20941 ****         8.0000  17.2500  41.5000 Du        
  20942 ****         8.0000  17.2500  41.7500 Du        
  20943 ****         8.0000  17.2500  42.0000 Du        
  20944 ****         8.0000  17.5000  38.7500 Du        
  20945 ****         8.0000  17.5000  39.0000 Du        
  20946 ****         8.0000  17.7500  38.7500 Du        
  20947 ****         8.0000  17.7500  39.0000 Du        
  20948 ****         8.0000  18.0000  38.5000 Du        
  20949 ****         8.0000  18.0000  38.7500 Du        
  20950 ****         8.0000  18.0000  39.0000 Du        
  20951 ****         8.0000  18.2500  38.5000 Du        
  20952 ****         8.0000  18.2500  38.7500 Du        
  20953 ****         8.0000  18.2500  39.0000 Du        
  20954 ****         8.0000  18.7500  38.2500 Du        
  20955 ****         8.0000  18.7500  38.5000 Du        
  20956 ****         8.0000  18.7500  38.7500 Du        
  20957 ****         8.0000  19.0000  38.0000 Du        
  20958 ****         8.0000  19.0000  38.2500 Du        
  20959 ****         8.0000  19.0000  38.5000 Du        
  20960 ****         8.0000  19.0000  38.7500 Du        
  20961 ****         8.0000  19.0000  39.0000 Du        
  20962 ****         8.0000  19.2500  38.0000 Du        
  20963 ****         8.0000  19.2500  38.2500 Du        
  20964 ****         8.0000  19.2500  38.5000 Du        
  20965 ****         8.0000  19.2500  38.7500 Du        
  20966 ****         8.0000  19.5000  38.0000 Du        
  20967 ****         8.0000  19.5000  38.2500 Du        
  20968 ****         8.0000  19.5000  38.5000 Du        
  20969 ****         8.0000  19.5000  38.7500 Du        
  20970 ****         8.0000  19.5000  39.0000 Du        
  20971 ****         8.0000  19.7500  38.7500 Du        
  20972 ****         8.0000  19.7500  39.0000 Du        
  20973 ****         8.2500  -3.0000  26.7500 Du        
  20974 ****         8.2500  -3.0000  27.0000 Du        
  20975 ****         8.2500   4.2500  24.5000 Du        
  20976 ****         8.2500   4.5000  24.5000 Du        
  20977 ****         8.2500   4.5000  24.7500 Du        
  20978 ****         8.2500   4.7500  24.5000 Du        
  20979 ****         8.2500   4.7500  24.7500 Du        
  20980 ****         8.2500   5.0000  24.5000 Du        
  20981 ****         8.2500   5.0000  24.7500 Du        
  20982 ****         8.2500   5.2500  24.2500 Du        
  20983 ****         8.2500   5.2500  24.5000 Du        
  20984 ****         8.2500   5.2500  24.7500 Du        
  20985 ****         8.2500   5.5000  24.2500 Du        
  20986 ****         8.2500   5.5000  24.5000 Du        
  20987 ****         8.2500   5.7500  24.2500 Du        
  20988 ****         8.2500   5.7500  24.5000 Du        
  20989 ****         8.2500   6.0000  24.0000 Du        
  20990 ****         8.2500   6.0000  24.2500 Du        
  20991 ****         8.2500   6.0000  24.5000 Du        
  20992 ****         8.2500   6.2500  24.2500 Du        
  20993 ****         8.2500   6.2500  24.5000 Du        
  20994 ****         8.2500   9.2500  35.2500 Du        
  20995 ****         8.2500   9.2500  35.5000 Du        
  20996 ****         8.2500   9.2500  35.7500 Du        
  20997 ****         8.2500   9.2500  36.0000 Du        
  20998 ****         8.2500   9.2500  36.2500 Du        
  20999 ****         8.2500   9.5000  35.0000 Du        
  21000 ****         8.2500   9.5000  35.2500 Du        
  21001 ****         8.2500   9.5000  35.5000 Du        
  21002 ****         8.2500   9.5000  35.7500 Du        
  21003 ****         8.2500   9.5000  36.0000 Du        
  21004 ****         8.2500   9.5000  36.2500 Du        
  21005 ****         8.2500   9.5000  36.5000 Du        
  21006 ****         8.2500   9.7500  35.0000 Du        
  21007 ****         8.2500   9.7500  35.2500 Du        
  21008 ****         8.2500   9.7500  35.5000 Du        
  21009 ****         8.2500   9.7500  35.7500 Du        
  21010 ****         8.2500   9.7500  36.0000 Du        
  21011 ****         8.2500   9.7500  36.2500 Du        
  21012 ****         8.2500   9.7500  36.5000 Du        
  21013 ****         8.2500   9.7500  36.7500 Du        
  21014 ****         8.2500  10.0000  35.2500 Du        
  21015 ****         8.2500  10.0000  35.5000 Du        
  21016 ****         8.2500  10.0000  35.7500 Du        
  21017 ****         8.2500  10.0000  36.0000 Du        
  21018 ****         8.2500  10.0000  36.2500 Du        
  21019 ****         8.2500  10.0000  36.5000 Du        
  21020 ****         8.2500  10.0000  36.7500 Du        
  21021 ****         8.2500  10.0000  37.0000 Du        
  21022 ****         8.2500  10.2500  35.7500 Du        
  21023 ****         8.2500  10.2500  36.0000 Du        
  21024 ****         8.2500  10.2500  36.2500 Du        
  21025 ****         8.2500  10.2500  36.5000 Du        
  21026 ****         8.2500  10.2500  36.7500 Du        
  21027 ****         8.2500  10.2500  37.0000 Du        
  21028 ****         8.2500  10.5000  36.0000 Du        
  21029 ****         8.2500  10.5000  36.2500 Du        
  21030 ****         8.2500  10.5000  36.5000 Du        
  21031 ****         8.2500  10.5000  36.7500 Du        
  21032 ****         8.2500  10.5000  37.0000 Du        
  21033 ****         8.2500  10.7500  36.2500 Du        
  21034 ****         8.2500  10.7500  36.5000 Du        
  21035 ****         8.2500  10.7500  36.7500 Du        
  21036 ****         8.2500  10.7500  37.0000 Du        
  21037 ****         8.2500  10.7500  37.2500 Du        
  21038 ****         8.2500  11.0000  36.7500 Du        
  21039 ****         8.2500  11.0000  37.0000 Du        
  21040 ****         8.2500  11.0000  37.2500 Du        
  21041 ****         8.2500  11.2500  37.0000 Du        
  21042 ****         8.2500  11.2500  37.2500 Du        
  21043 ****         8.2500  11.7500  43.0000 Du        
  21044 ****         8.2500  12.0000  11.0000 Du        
  21045 ****         8.2500  12.0000  11.2500 Du        
  21046 ****         8.2500  12.0000  42.2500 Du        
  21047 ****         8.2500  12.0000  42.5000 Du        
  21048 ****         8.2500  12.0000  42.7500 Du        
  21049 ****         8.2500  12.0000  43.0000 Du        
  21050 ****         8.2500  12.0000  43.2500 Du        
  21051 ****         8.2500  12.2500  10.5000 Du        
  21052 ****         8.2500  12.2500  10.7500 Du        
  21053 ****         8.2500  12.2500  11.0000 Du        
  21054 ****         8.2500  12.2500  11.2500 Du        
  21055 ****         8.2500  12.2500  41.7500 Du        
  21056 ****         8.2500  12.2500  42.0000 Du        
  21057 ****         8.2500  12.2500  42.2500 Du        
  21058 ****         8.2500  12.2500  42.5000 Du        
  21059 ****         8.2500  12.2500  42.7500 Du        
  21060 ****         8.2500  12.2500  43.0000 Du        
  21061 ****         8.2500  12.2500  43.2500 Du        
  21062 ****         8.2500  12.5000  10.0000 Du        
  21063 ****         8.2500  12.5000  10.2500 Du        
  21064 ****         8.2500  12.5000  10.5000 Du        
  21065 ****         8.2500  12.5000  10.7500 Du        
  21066 ****         8.2500  12.5000  11.0000 Du        
  21067 ****         8.2500  12.5000  11.2500 Du        
  21068 ****         8.2500  12.5000  41.7500 Du        
  21069 ****         8.2500  12.5000  42.0000 Du        
  21070 ****         8.2500  12.5000  42.2500 Du        
  21071 ****         8.2500  12.5000  42.5000 Du        
  21072 ****         8.2500  12.5000  42.7500 Du        
  21073 ****         8.2500  12.7500   9.7500 Du        
  21074 ****         8.2500  12.7500  10.0000 Du        
  21075 ****         8.2500  12.7500  10.2500 Du        
  21076 ****         8.2500  12.7500  10.5000 Du        
  21077 ****         8.2500  12.7500  10.7500 Du        
  21078 ****         8.2500  12.7500  11.0000 Du        
  21079 ****         8.2500  12.7500  11.2500 Du        
  21080 ****         8.2500  12.7500  42.0000 Du        
  21081 ****         8.2500  12.7500  42.2500 Du        
  21082 ****         8.2500  13.0000   9.7500 Du        
  21083 ****         8.2500  13.0000  10.0000 Du        
  21084 ****         8.2500  13.0000  10.2500 Du        
  21085 ****         8.2500  13.0000  10.5000 Du        
  21086 ****         8.2500  13.0000  10.7500 Du        
  21087 ****         8.2500  13.0000  11.0000 Du        
  21088 ****         8.2500  13.0000  11.2500 Du        
  21089 ****         8.2500  13.2500   9.7500 Du        
  21090 ****         8.2500  13.2500  10.0000 Du        
  21091 ****         8.2500  13.2500  10.2500 Du        
  21092 ****         8.2500  13.2500  10.5000 Du        
  21093 ****         8.2500  13.2500  10.7500 Du        
  21094 ****         8.2500  13.2500  11.0000 Du        
  21095 ****         8.2500  13.2500  11.2500 Du        
  21096 ****         8.2500  13.2500  37.7500 Du        
  21097 ****         8.2500  13.2500  38.0000 Du        
  21098 ****         8.2500  13.5000   9.7500 Du        
  21099 ****         8.2500  13.5000  10.0000 Du        
  21100 ****         8.2500  13.5000  10.2500 Du        
  21101 ****         8.2500  13.5000  10.5000 Du        
  21102 ****         8.2500  13.5000  10.7500 Du        
  21103 ****         8.2500  13.5000  11.0000 Du        
  21104 ****         8.2500  13.5000  11.2500 Du        
  21105 ****         8.2500  13.5000  37.7500 Du        
  21106 ****         8.2500  13.5000  38.0000 Du        
  21107 ****         8.2500  13.7500   9.5000 Du        
  21108 ****         8.2500  13.7500   9.7500 Du        
  21109 ****         8.2500  13.7500  10.0000 Du        
  21110 ****         8.2500  13.7500  10.2500 Du        
  21111 ****         8.2500  13.7500  10.5000 Du        
  21112 ****         8.2500  13.7500  10.7500 Du        
  21113 ****         8.2500  13.7500  11.0000 Du        
  21114 ****         8.2500  13.7500  11.2500 Du        
  21115 ****         8.2500  13.7500  37.7500 Du        
  21116 ****         8.2500  13.7500  38.0000 Du        
  21117 ****         8.2500  13.7500  38.2500 Du        
  21118 ****         8.2500  13.7500  38.5000 Du        
  21119 ****         8.2500  14.0000   9.5000 Du        
  21120 ****         8.2500  14.0000   9.7500 Du        
  21121 ****         8.2500  14.0000  10.0000 Du        
  21122 ****         8.2500  14.0000  10.2500 Du        
  21123 ****         8.2500  14.0000  10.5000 Du        
  21124 ****         8.2500  14.0000  10.7500 Du        
  21125 ****         8.2500  14.0000  11.0000 Du        
  21126 ****         8.2500  14.0000  11.2500 Du        
  21127 ****         8.2500  14.0000  37.7500 Du        
  21128 ****         8.2500  14.0000  38.0000 Du        
  21129 ****         8.2500  14.0000  38.2500 Du        
  21130 ****         8.2500  14.0000  38.5000 Du        
  21131 ****         8.2500  14.2500   9.2500 Du        
  21132 ****         8.2500  14.2500   9.5000 Du        
  21133 ****         8.2500  14.2500   9.7500 Du        
  21134 ****         8.2500  14.2500  10.0000 Du        
  21135 ****         8.2500  14.2500  10.2500 Du        
  21136 ****         8.2500  14.2500  10.5000 Du        
  21137 ****         8.2500  14.2500  10.7500 Du        
  21138 ****         8.2500  14.2500  11.0000 Du        
  21139 ****         8.2500  14.2500  37.7500 Du        
  21140 ****         8.2500  14.2500  38.0000 Du        
  21141 ****         8.2500  14.2500  38.2500 Du        
  21142 ****         8.2500  14.2500  38.5000 Du        
  21143 ****         8.2500  14.2500  38.7500 Du        
  21144 ****         8.2500  14.5000   9.2500 Du        
  21145 ****         8.2500  14.5000   9.5000 Du        
  21146 ****         8.2500  14.5000   9.7500 Du        
  21147 ****         8.2500  14.5000  10.0000 Du        
  21148 ****         8.2500  14.5000  10.2500 Du        
  21149 ****         8.2500  14.5000  10.5000 Du        
  21150 ****         8.2500  14.5000  37.7500 Du        
  21151 ****         8.2500  14.5000  38.0000 Du        
  21152 ****         8.2500  14.5000  38.2500 Du        
  21153 ****         8.2500  14.5000  38.5000 Du        
  21154 ****         8.2500  14.5000  38.7500 Du        
  21155 ****         8.2500  14.5000  39.0000 Du        
  21156 ****         8.2500  14.7500   9.0000 Du        
  21157 ****         8.2500  14.7500   9.2500 Du        
  21158 ****         8.2500  14.7500   9.5000 Du        
  21159 ****         8.2500  14.7500   9.7500 Du        
  21160 ****         8.2500  14.7500  10.0000 Du        
  21161 ****         8.2500  14.7500  10.2500 Du        
  21162 ****         8.2500  14.7500  37.7500 Du        
  21163 ****         8.2500  14.7500  38.0000 Du        
  21164 ****         8.2500  14.7500  38.2500 Du        
  21165 ****         8.2500  14.7500  38.5000 Du        
  21166 ****         8.2500  14.7500  38.7500 Du        
  21167 ****         8.2500  14.7500  39.0000 Du        
  21168 ****         8.2500  14.7500  39.2500 Du        
  21169 ****         8.2500  15.0000   8.7500 Du        
  21170 ****         8.2500  15.0000   9.0000 Du        
  21171 ****         8.2500  15.0000   9.2500 Du        
  21172 ****         8.2500  15.0000   9.5000 Du        
  21173 ****         8.2500  15.0000   9.7500 Du        
  21174 ****         8.2500  15.0000  10.0000 Du        
  21175 ****         8.2500  15.0000  37.7500 Du        
  21176 ****         8.2500  15.0000  38.0000 Du        
  21177 ****         8.2500  15.0000  38.2500 Du        
  21178 ****         8.2500  15.0000  38.5000 Du        
  21179 ****         8.2500  15.0000  38.7500 Du        
  21180 ****         8.2500  15.0000  39.0000 Du        
  21181 ****         8.2500  15.0000  39.2500 Du        
  21182 ****         8.2500  15.0000  39.5000 Du        
  21183 ****         8.2500  15.0000  39.7500 Du        
  21184 ****         8.2500  15.0000  40.0000 Du        
  21185 ****         8.2500  15.0000  40.7500 Du        
  21186 ****         8.2500  15.0000  41.0000 Du        
  21187 ****         8.2500  15.2500   5.0000 Du        
  21188 ****         8.2500  15.2500   8.5000 Du        
  21189 ****         8.2500  15.2500   8.7500 Du        
  21190 ****         8.2500  15.2500   9.0000 Du        
  21191 ****         8.2500  15.2500   9.2500 Du        
  21192 ****         8.2500  15.2500   9.5000 Du        
  21193 ****         8.2500  15.2500   9.7500 Du        
  21194 ****         8.2500  15.2500  38.0000 Du        
  21195 ****         8.2500  15.2500  38.2500 Du        
  21196 ****         8.2500  15.2500  38.5000 Du        
  21197 ****         8.2500  15.2500  38.7500 Du        
  21198 ****         8.2500  15.2500  39.0000 Du        
  21199 ****         8.2500  15.2500  39.2500 Du        
  21200 ****         8.2500  15.2500  39.5000 Du        
  21201 ****         8.2500  15.2500  39.7500 Du        
  21202 ****         8.2500  15.2500  40.0000 Du        
  21203 ****         8.2500  15.2500  40.2500 Du        
  21204 ****         8.2500  15.2500  40.5000 Du        
  21205 ****         8.2500  15.2500  40.7500 Du        
  21206 ****         8.2500  15.2500  41.0000 Du        
  21207 ****         8.2500  15.2500  41.2500 Du        
  21208 ****         8.2500  15.5000   5.0000 Du        
  21209 ****         8.2500  15.5000   5.2500 Du        
  21210 ****         8.2500  15.5000   8.2500 Du        
  21211 ****         8.2500  15.5000   8.5000 Du        
  21212 ****         8.2500  15.5000   8.7500 Du        
  21213 ****         8.2500  15.5000   9.0000 Du        
  21214 ****         8.2500  15.5000   9.2500 Du        
  21215 ****         8.2500  15.5000   9.5000 Du        
  21216 ****         8.2500  15.5000   9.7500 Du        
  21217 ****         8.2500  15.5000  38.0000 Du        
  21218 ****         8.2500  15.5000  38.2500 Du        
  21219 ****         8.2500  15.5000  38.5000 Du        
  21220 ****         8.2500  15.5000  38.7500 Du        
  21221 ****         8.2500  15.5000  39.0000 Du        
  21222 ****         8.2500  15.5000  39.2500 Du        
  21223 ****         8.2500  15.5000  39.5000 Du        
  21224 ****         8.2500  15.5000  39.7500 Du        
  21225 ****         8.2500  15.5000  40.0000 Du        
  21226 ****         8.2500  15.5000  40.2500 Du        
  21227 ****         8.2500  15.5000  40.5000 Du        
  21228 ****         8.2500  15.5000  40.7500 Du        
  21229 ****         8.2500  15.5000  41.0000 Du        
  21230 ****         8.2500  15.5000  41.2500 Du        
  21231 ****         8.2500  15.7500   5.0000 Du        
  21232 ****         8.2500  15.7500   8.2500 Du        
  21233 ****         8.2500  15.7500   8.5000 Du        
  21234 ****         8.2500  15.7500   8.7500 Du        
  21235 ****         8.2500  15.7500   9.0000 Du        
  21236 ****         8.2500  15.7500   9.2500 Du        
  21237 ****         8.2500  15.7500   9.5000 Du        
  21238 ****         8.2500  15.7500  38.0000 Du        
  21239 ****         8.2500  15.7500  38.2500 Du        
  21240 ****         8.2500  15.7500  38.5000 Du        
  21241 ****         8.2500  15.7500  38.7500 Du        
  21242 ****         8.2500  15.7500  39.0000 Du        
  21243 ****         8.2500  15.7500  39.2500 Du        
  21244 ****         8.2500  15.7500  39.5000 Du        
  21245 ****         8.2500  15.7500  39.7500 Du        
  21246 ****         8.2500  15.7500  40.0000 Du        
  21247 ****         8.2500  15.7500  40.2500 Du        
  21248 ****         8.2500  15.7500  40.5000 Du        
  21249 ****         8.2500  15.7500  40.7500 Du        
  21250 ****         8.2500  15.7500  41.0000 Du        
  21251 ****         8.2500  15.7500  41.2500 Du        
  21252 ****         8.2500  15.7500  41.5000 Du        
  21253 ****         8.2500  16.0000   8.5000 Du        
  21254 ****         8.2500  16.0000   8.7500 Du        
  21255 ****         8.2500  16.0000   9.0000 Du        
  21256 ****         8.2500  16.0000   9.2500 Du        
  21257 ****         8.2500  16.0000   9.5000 Du        
  21258 ****         8.2500  16.0000  38.0000 Du        
  21259 ****         8.2500  16.0000  38.2500 Du        
  21260 ****         8.2500  16.0000  38.5000 Du        
  21261 ****         8.2500  16.0000  38.7500 Du        
  21262 ****         8.2500  16.0000  39.0000 Du        
  21263 ****         8.2500  16.0000  39.2500 Du        
  21264 ****         8.2500  16.0000  39.5000 Du        
  21265 ****         8.2500  16.0000  39.7500 Du        
  21266 ****         8.2500  16.0000  40.0000 Du        
  21267 ****         8.2500  16.0000  40.2500 Du        
  21268 ****         8.2500  16.0000  40.5000 Du        
  21269 ****         8.2500  16.0000  40.7500 Du        
  21270 ****         8.2500  16.0000  41.0000 Du        
  21271 ****         8.2500  16.0000  41.2500 Du        
  21272 ****         8.2500  16.0000  41.5000 Du        
  21273 ****         8.2500  16.2500   8.7500 Du        
  21274 ****         8.2500  16.2500   9.0000 Du        
  21275 ****         8.2500  16.2500   9.2500 Du        
  21276 ****         8.2500  16.2500   9.5000 Du        
  21277 ****         8.2500  16.2500  38.2500 Du        
  21278 ****         8.2500  16.2500  38.5000 Du        
  21279 ****         8.2500  16.2500  38.7500 Du        
  21280 ****         8.2500  16.2500  39.0000 Du        
  21281 ****         8.2500  16.2500  39.2500 Du        
  21282 ****         8.2500  16.2500  39.5000 Du        
  21283 ****         8.2500  16.2500  39.7500 Du        
  21284 ****         8.2500  16.2500  40.0000 Du        
  21285 ****         8.2500  16.2500  40.2500 Du        
  21286 ****         8.2500  16.2500  40.5000 Du        
  21287 ****         8.2500  16.2500  40.7500 Du        
  21288 ****         8.2500  16.2500  41.0000 Du        
  21289 ****         8.2500  16.2500  41.2500 Du        
  21290 ****         8.2500  16.2500  41.5000 Du        
  21291 ****         8.2500  16.2500  41.7500 Du        
  21292 ****         8.2500  16.5000   8.7500 Du        
  21293 ****         8.2500  16.5000   9.0000 Du        
  21294 ****         8.2500  16.5000   9.2500 Du        
  21295 ****         8.2500  16.5000  38.2500 Du        
  21296 ****         8.2500  16.5000  38.5000 Du        
  21297 ****         8.2500  16.5000  38.7500 Du        
  21298 ****         8.2500  16.5000  39.0000 Du        
  21299 ****         8.2500  16.5000  39.2500 Du        
  21300 ****         8.2500  16.5000  39.5000 Du        
  21301 ****         8.2500  16.5000  39.7500 Du        
  21302 ****         8.2500  16.5000  40.0000 Du        
  21303 ****         8.2500  16.5000  40.2500 Du        
  21304 ****         8.2500  16.5000  40.5000 Du        
  21305 ****         8.2500  16.5000  40.7500 Du        
  21306 ****         8.2500  16.5000  41.0000 Du        
  21307 ****         8.2500  16.5000  41.2500 Du        
  21308 ****         8.2500  16.5000  41.5000 Du        
  21309 ****         8.2500  16.5000  41.7500 Du        
  21310 ****         8.2500  16.7500   9.0000 Du        
  21311 ****         8.2500  16.7500   9.2500 Du        
  21312 ****         8.2500  16.7500  38.2500 Du        
  21313 ****         8.2500  16.7500  38.5000 Du        
  21314 ****         8.2500  16.7500  38.7500 Du        
  21315 ****         8.2500  16.7500  39.0000 Du        
  21316 ****         8.2500  16.7500  39.2500 Du        
  21317 ****         8.2500  16.7500  39.5000 Du        
  21318 ****         8.2500  16.7500  39.7500 Du        
  21319 ****         8.2500  16.7500  40.0000 Du        
  21320 ****         8.2500  16.7500  40.2500 Du        
  21321 ****         8.2500  16.7500  40.5000 Du        
  21322 ****         8.2500  16.7500  40.7500 Du        
  21323 ****         8.2500  16.7500  41.0000 Du        
  21324 ****         8.2500  16.7500  41.2500 Du        
  21325 ****         8.2500  16.7500  41.5000 Du        
  21326 ****         8.2500  16.7500  41.7500 Du        
  21327 ****         8.2500  17.0000   9.2500 Du        
  21328 ****         8.2500  17.0000  38.2500 Du        
  21329 ****         8.2500  17.0000  38.5000 Du        
  21330 ****         8.2500  17.0000  38.7500 Du        
  21331 ****         8.2500  17.0000  39.0000 Du        
  21332 ****         8.2500  17.0000  39.2500 Du        
  21333 ****         8.2500  17.0000  39.5000 Du        
  21334 ****         8.2500  17.0000  39.7500 Du        
  21335 ****         8.2500  17.0000  40.0000 Du        
  21336 ****         8.2500  17.0000  40.5000 Du        
  21337 ****         8.2500  17.0000  40.7500 Du        
  21338 ****         8.2500  17.0000  41.0000 Du        
  21339 ****         8.2500  17.0000  41.2500 Du        
  21340 ****         8.2500  17.0000  41.5000 Du        
  21341 ****         8.2500  17.0000  41.7500 Du        
  21342 ****         8.2500  17.0000  42.0000 Du        
  21343 ****         8.2500  17.2500  38.2500 Du        
  21344 ****         8.2500  17.2500  38.5000 Du        
  21345 ****         8.2500  17.2500  38.7500 Du        
  21346 ****         8.2500  17.2500  39.0000 Du        
  21347 ****         8.2500  17.2500  39.2500 Du        
  21348 ****         8.2500  17.2500  40.7500 Du        
  21349 ****         8.2500  17.2500  41.0000 Du        
  21350 ****         8.2500  17.2500  41.2500 Du        
  21351 ****         8.2500  17.2500  41.5000 Du        
  21352 ****         8.2500  17.2500  41.7500 Du        
  21353 ****         8.2500  17.2500  42.0000 Du        
  21354 ****         8.2500  17.5000  38.2500 Du        
  21355 ****         8.2500  17.5000  38.5000 Du        
  21356 ****         8.2500  17.5000  38.7500 Du        
  21357 ****         8.2500  17.5000  39.0000 Du        
  21358 ****         8.2500  17.7500  38.2500 Du        
  21359 ****         8.2500  17.7500  38.5000 Du        
  21360 ****         8.2500  17.7500  38.7500 Du        
  21361 ****         8.2500  17.7500  39.0000 Du        
  21362 ****         8.2500  17.7500  39.2500 Du        
  21363 ****         8.2500  18.0000  38.0000 Du        
  21364 ****         8.2500  18.0000  38.2500 Du        
  21365 ****         8.2500  18.0000  38.5000 Du        
  21366 ****         8.2500  18.0000  38.7500 Du        
  21367 ****         8.2500  18.0000  39.0000 Du        
  21368 ****         8.2500  18.2500  38.0000 Du        
  21369 ****         8.2500  18.2500  38.2500 Du        
  21370 ****         8.2500  18.2500  38.5000 Du        
  21371 ****         8.2500  18.2500  38.7500 Du        
  21372 ****         8.2500  18.2500  39.0000 Du        
  21373 ****         8.2500  18.5000  38.0000 Du        
  21374 ****         8.2500  18.5000  38.2500 Du        
  21375 ****         8.2500  18.5000  38.5000 Du        
  21376 ****         8.2500  18.5000  38.7500 Du        
  21377 ****         8.2500  18.5000  39.0000 Du        
  21378 ****         8.2500  18.7500  37.7500 Du        
  21379 ****         8.2500  18.7500  38.0000 Du        
  21380 ****         8.2500  18.7500  38.2500 Du        
  21381 ****         8.2500  18.7500  38.5000 Du        
  21382 ****         8.2500  18.7500  38.7500 Du        
  21383 ****         8.2500  18.7500  39.0000 Du        
  21384 ****         8.2500  19.0000  37.7500 Du        
  21385 ****         8.2500  19.0000  38.0000 Du        
  21386 ****         8.2500  19.0000  38.2500 Du        
  21387 ****         8.2500  19.0000  38.5000 Du        
  21388 ****         8.2500  19.0000  38.7500 Du        
  21389 ****         8.2500  19.0000  39.0000 Du        
  21390 ****         8.2500  19.2500  37.7500 Du        
  21391 ****         8.2500  19.2500  38.0000 Du        
  21392 ****         8.2500  19.2500  38.2500 Du        
  21393 ****         8.2500  19.2500  38.5000 Du        
  21394 ****         8.2500  19.2500  38.7500 Du        
  21395 ****         8.2500  19.2500  39.0000 Du        
  21396 ****         8.2500  19.5000  38.0000 Du        
  21397 ****         8.2500  19.5000  38.2500 Du        
  21398 ****         8.2500  19.5000  38.5000 Du        
  21399 ****         8.2500  19.5000  38.7500 Du        
  21400 ****         8.2500  19.5000  39.0000 Du        
  21401 ****         8.2500  19.7500  38.2500 Du        
  21402 ****         8.2500  19.7500  38.5000 Du        
  21403 ****         8.2500  19.7500  38.7500 Du        
  21404 ****         8.2500  19.7500  39.0000 Du        
  21405 ****         8.5000  -3.2500  26.7500 Du        
  21406 ****         8.5000  -3.0000  26.7500 Du        
  21407 ****         8.5000  -3.0000  27.0000 Du        
  21408 ****         8.5000   4.2500  24.5000 Du        
  21409 ****         8.5000   4.2500  24.7500 Du        
  21410 ****         8.5000   4.5000  24.2500 Du        
  21411 ****         8.5000   4.5000  24.5000 Du        
  21412 ****         8.5000   4.5000  24.7500 Du        
  21413 ****         8.5000   4.7500  24.0000 Du        
  21414 ****         8.5000   4.7500  24.2500 Du        
  21415 ****         8.5000   4.7500  24.5000 Du        
  21416 ****         8.5000   4.7500  24.7500 Du        
  21417 ****         8.5000   5.0000  24.0000 Du        
  21418 ****         8.5000   5.0000  24.2500 Du        
  21419 ****         8.5000   5.0000  24.5000 Du        
  21420 ****         8.5000   5.0000  24.7500 Du        
  21421 ****         8.5000   5.2500  24.2500 Du        
  21422 ****         8.5000   5.2500  24.5000 Du        
  21423 ****         8.5000   5.2500  24.7500 Du        
  21424 ****         8.5000   5.5000  24.0000 Du        
  21425 ****         8.5000   5.5000  24.2500 Du        
  21426 ****         8.5000   5.5000  24.5000 Du        
  21427 ****         8.5000   5.5000  24.7500 Du        
  21428 ****         8.5000   5.7500  24.0000 Du        
  21429 ****         8.5000   5.7500  24.2500 Du        
  21430 ****         8.5000   5.7500  24.5000 Du        
  21431 ****         8.5000   5.7500  24.7500 Du        
  21432 ****         8.5000   6.0000  24.0000 Du        
  21433 ****         8.5000   6.0000  24.2500 Du        
  21434 ****         8.5000   6.0000  24.5000 Du        
  21435 ****         8.5000   6.0000  24.7500 Du        
  21436 ****         8.5000   6.2500  24.2500 Du        
  21437 ****         8.5000   6.2500  24.5000 Du        
  21438 ****         8.5000   9.2500  35.5000 Du        
  21439 ****         8.5000   9.2500  35.7500 Du        
  21440 ****         8.5000   9.2500  36.0000 Du        
  21441 ****         8.5000   9.2500  36.2500 Du        
  21442 ****         8.5000   9.2500  36.5000 Du        
  21443 ****         8.5000   9.5000  35.2500 Du        
  21444 ****         8.5000   9.5000  35.5000 Du        
  21445 ****         8.5000   9.5000  35.7500 Du        
  21446 ****         8.5000   9.5000  36.0000 Du        
  21447 ****         8.5000   9.5000  36.2500 Du        
  21448 ****         8.5000   9.5000  36.5000 Du        
  21449 ****         8.5000   9.5000  36.7500 Du        
  21450 ****         8.5000   9.7500  35.2500 Du        
  21451 ****         8.5000   9.7500  35.5000 Du        
  21452 ****         8.5000   9.7500  35.7500 Du        
  21453 ****         8.5000   9.7500  36.0000 Du        
  21454 ****         8.5000   9.7500  36.2500 Du        
  21455 ****         8.5000   9.7500  36.5000 Du        
  21456 ****         8.5000   9.7500  36.7500 Du        
  21457 ****         8.5000  10.0000  35.2500 Du        
  21458 ****         8.5000  10.0000  35.5000 Du        
  21459 ****         8.5000  10.0000  35.7500 Du        
  21460 ****         8.5000  10.0000  36.0000 Du        
  21461 ****         8.5000  10.0000  36.2500 Du        
  21462 ****         8.5000  10.0000  36.5000 Du        
  21463 ****         8.5000  10.0000  36.7500 Du        
  21464 ****         8.5000  10.2500  35.5000 Du        
  21465 ****         8.5000  10.2500  35.7500 Du        
  21466 ****         8.5000  10.2500  36.0000 Du        
  21467 ****         8.5000  10.2500  36.2500 Du        
  21468 ****         8.5000  10.2500  36.5000 Du        
  21469 ****         8.5000  10.2500  36.7500 Du        
  21470 ****         8.5000  10.2500  37.0000 Du        
  21471 ****         8.5000  10.5000  36.0000 Du        
  21472 ****         8.5000  10.5000  36.2500 Du        
  21473 ****         8.5000  10.5000  36.5000 Du        
  21474 ****         8.5000  10.5000  36.7500 Du        
  21475 ****         8.5000  10.5000  37.0000 Du        
  21476 ****         8.5000  10.7500  36.2500 Du        
  21477 ****         8.5000  10.7500  36.5000 Du        
  21478 ****         8.5000  10.7500  36.7500 Du        
  21479 ****         8.5000  10.7500  37.0000 Du        
  21480 ****         8.5000  11.0000  36.7500 Du        
  21481 ****         8.5000  12.0000  11.0000 Du        
  21482 ****         8.5000  12.0000  11.2500 Du        
  21483 ****         8.5000  12.0000  42.5000 Du        
  21484 ****         8.5000  12.0000  42.7500 Du        
  21485 ****         8.5000  12.0000  43.0000 Du        
  21486 ****         8.5000  12.2500  10.5000 Du        
  21487 ****         8.5000  12.2500  10.7500 Du        
  21488 ****         8.5000  12.2500  11.0000 Du        
  21489 ****         8.5000  12.2500  11.2500 Du        
  21490 ****         8.5000  12.2500  11.5000 Du        
  21491 ****         8.5000  12.2500  42.2500 Du        
  21492 ****         8.5000  12.2500  42.5000 Du        
  21493 ****         8.5000  12.2500  42.7500 Du        
  21494 ****         8.5000  12.2500  43.0000 Du        
  21495 ****         8.5000  12.5000  10.0000 Du        
  21496 ****         8.5000  12.5000  10.2500 Du        
  21497 ****         8.5000  12.5000  10.5000 Du        
  21498 ****         8.5000  12.5000  10.7500 Du        
  21499 ****         8.5000  12.5000  11.0000 Du        
  21500 ****         8.5000  12.5000  11.2500 Du        
  21501 ****         8.5000  12.5000  42.2500 Du        
  21502 ****         8.5000  12.5000  42.5000 Du        
  21503 ****         8.5000  12.7500   9.7500 Du        
  21504 ****         8.5000  12.7500  10.0000 Du        
  21505 ****         8.5000  12.7500  10.2500 Du        
  21506 ****         8.5000  12.7500  10.5000 Du        
  21507 ****         8.5000  12.7500  10.7500 Du        
  21508 ****         8.5000  12.7500  11.0000 Du        
  21509 ****         8.5000  12.7500  11.2500 Du        
  21510 ****         8.5000  13.0000   9.7500 Du        
  21511 ****         8.5000  13.0000  10.0000 Du        
  21512 ****         8.5000  13.0000  10.2500 Du        
  21513 ****         8.5000  13.0000  10.5000 Du        
  21514 ****         8.5000  13.0000  10.7500 Du        
  21515 ****         8.5000  13.0000  11.0000 Du        
  21516 ****         8.5000  13.0000  11.2500 Du        
  21517 ****         8.5000  13.2500   9.5000 Du        
  21518 ****         8.5000  13.2500   9.7500 Du        
  21519 ****         8.5000  13.2500  10.0000 Du        
  21520 ****         8.5000  13.2500  10.2500 Du        
  21521 ****         8.5000  13.2500  10.5000 Du        
  21522 ****         8.5000  13.2500  10.7500 Du        
  21523 ****         8.5000  13.2500  11.0000 Du        
  21524 ****         8.5000  13.2500  11.2500 Du        
  21525 ****         8.5000  13.5000   9.5000 Du        
  21526 ****         8.5000  13.5000   9.7500 Du        
  21527 ****         8.5000  13.5000  10.0000 Du        
  21528 ****         8.5000  13.5000  10.2500 Du        
  21529 ****         8.5000  13.5000  10.5000 Du        
  21530 ****         8.5000  13.5000  10.7500 Du        
  21531 ****         8.5000  13.5000  11.0000 Du        
  21532 ****         8.5000  13.5000  11.2500 Du        
  21533 ****         8.5000  13.7500   9.5000 Du        
  21534 ****         8.5000  13.7500   9.7500 Du        
  21535 ****         8.5000  13.7500  10.0000 Du        
  21536 ****         8.5000  13.7500  10.2500 Du        
  21537 ****         8.5000  13.7500  10.5000 Du        
  21538 ****         8.5000  13.7500  10.7500 Du        
  21539 ****         8.5000  13.7500  11.0000 Du        
  21540 ****         8.5000  13.7500  11.2500 Du        
  21541 ****         8.5000  14.0000   9.2500 Du        
  21542 ****         8.5000  14.0000   9.5000 Du        
  21543 ****         8.5000  14.0000   9.7500 Du        
  21544 ****         8.5000  14.0000  10.0000 Du        
  21545 ****         8.5000  14.0000  10.2500 Du        
  21546 ****         8.5000  14.0000  10.5000 Du        
  21547 ****         8.5000  14.0000  10.7500 Du        
  21548 ****         8.5000  14.0000  11.0000 Du        
  21549 ****         8.5000  14.0000  11.2500 Du        
  21550 ****         8.5000  14.2500   9.2500 Du        
  21551 ****         8.5000  14.2500   9.5000 Du        
  21552 ****         8.5000  14.2500   9.7500 Du        
  21553 ****         8.5000  14.2500  10.0000 Du        
  21554 ****         8.5000  14.2500  10.2500 Du        
  21555 ****         8.5000  14.2500  10.5000 Du        
  21556 ****         8.5000  14.2500  10.7500 Du        
  21557 ****         8.5000  14.2500  11.0000 Du        
  21558 ****         8.5000  14.2500  37.7500 Du        
  21559 ****         8.5000  14.2500  38.0000 Du        
  21560 ****         8.5000  14.2500  38.2500 Du        
  21561 ****         8.5000  14.5000   9.0000 Du        
  21562 ****         8.5000  14.5000   9.2500 Du        
  21563 ****         8.5000  14.5000   9.5000 Du        
  21564 ****         8.5000  14.5000   9.7500 Du        
  21565 ****         8.5000  14.5000  10.0000 Du        
  21566 ****         8.5000  14.5000  10.2500 Du        
  21567 ****         8.5000  14.5000  10.5000 Du        
  21568 ****         8.5000  14.5000  37.7500 Du        
  21569 ****         8.5000  14.5000  38.0000 Du        
  21570 ****         8.5000  14.5000  38.2500 Du        
  21571 ****         8.5000  14.5000  38.5000 Du        
  21572 ****         8.5000  14.7500   8.7500 Du        
  21573 ****         8.5000  14.7500   9.0000 Du        
  21574 ****         8.5000  14.7500   9.2500 Du        
  21575 ****         8.5000  14.7500   9.5000 Du        
  21576 ****         8.5000  14.7500   9.7500 Du        
  21577 ****         8.5000  14.7500  10.0000 Du        
  21578 ****         8.5000  14.7500  10.2500 Du        
  21579 ****         8.5000  14.7500  37.7500 Du        
  21580 ****         8.5000  14.7500  38.0000 Du        
  21581 ****         8.5000  14.7500  38.2500 Du        
  21582 ****         8.5000  14.7500  38.5000 Du        
  21583 ****         8.5000  14.7500  38.7500 Du        
  21584 ****         8.5000  15.0000   8.5000 Du        
  21585 ****         8.5000  15.0000   8.7500 Du        
  21586 ****         8.5000  15.0000   9.0000 Du        
  21587 ****         8.5000  15.0000   9.2500 Du        
  21588 ****         8.5000  15.0000   9.5000 Du        
  21589 ****         8.5000  15.0000   9.7500 Du        
  21590 ****         8.5000  15.0000  10.0000 Du        
  21591 ****         8.5000  15.0000  10.2500 Du        
  21592 ****         8.5000  15.0000  37.7500 Du        
  21593 ****         8.5000  15.0000  38.0000 Du        
  21594 ****         8.5000  15.0000  38.2500 Du        
  21595 ****         8.5000  15.0000  38.5000 Du        
  21596 ****         8.5000  15.0000  38.7500 Du        
  21597 ****         8.5000  15.0000  39.0000 Du        
  21598 ****         8.5000  15.0000  39.2500 Du        
  21599 ****         8.5000  15.2500   5.0000 Du        
  21600 ****         8.5000  15.2500   5.2500 Du        
  21601 ****         8.5000  15.2500   8.2500 Du        
  21602 ****         8.5000  15.2500   8.5000 Du        
  21603 ****         8.5000  15.2500   8.7500 Du        
  21604 ****         8.5000  15.2500   9.0000 Du        
  21605 ****         8.5000  15.2500   9.2500 Du        
  21606 ****         8.5000  15.2500   9.5000 Du        
  21607 ****         8.5000  15.2500   9.7500 Du        
  21608 ****         8.5000  15.2500  10.0000 Du        
  21609 ****         8.5000  15.2500  37.7500 Du        
  21610 ****         8.5000  15.2500  38.0000 Du        
  21611 ****         8.5000  15.2500  38.2500 Du        
  21612 ****         8.5000  15.2500  38.5000 Du        
  21613 ****         8.5000  15.2500  38.7500 Du        
  21614 ****         8.5000  15.2500  39.0000 Du        
  21615 ****         8.5000  15.2500  39.2500 Du        
  21616 ****         8.5000  15.2500  39.5000 Du        
  21617 ****         8.5000  15.5000   5.0000 Du        
  21618 ****         8.5000  15.5000   5.2500 Du        
  21619 ****         8.5000  15.5000   8.2500 Du        
  21620 ****         8.5000  15.5000   8.5000 Du        
  21621 ****         8.5000  15.5000   8.7500 Du        
  21622 ****         8.5000  15.5000   9.0000 Du        
  21623 ****         8.5000  15.5000   9.2500 Du        
  21624 ****         8.5000  15.5000   9.5000 Du        
  21625 ****         8.5000  15.5000   9.7500 Du        
  21626 ****         8.5000  15.5000  37.7500 Du        
  21627 ****         8.5000  15.5000  38.0000 Du        
  21628 ****         8.5000  15.5000  38.2500 Du        
  21629 ****         8.5000  15.5000  38.5000 Du        
  21630 ****         8.5000  15.5000  38.7500 Du        
  21631 ****         8.5000  15.5000  39.0000 Du        
  21632 ****         8.5000  15.5000  39.2500 Du        
  21633 ****         8.5000  15.5000  39.5000 Du        
  21634 ****         8.5000  15.5000  39.7500 Du        
  21635 ****         8.5000  15.5000  40.0000 Du        
  21636 ****         8.5000  15.5000  40.2500 Du        
  21637 ****         8.5000  15.5000  40.5000 Du        
  21638 ****         8.5000  15.5000  40.7500 Du        
  21639 ****         8.5000  15.5000  41.0000 Du        
  21640 ****         8.5000  15.7500   5.0000 Du        
  21641 ****         8.5000  15.7500   8.2500 Du        
  21642 ****         8.5000  15.7500   8.5000 Du        
  21643 ****         8.5000  15.7500   8.7500 Du        
  21644 ****         8.5000  15.7500   9.0000 Du        
  21645 ****         8.5000  15.7500   9.2500 Du        
  21646 ****         8.5000  15.7500   9.5000 Du        
  21647 ****         8.5000  15.7500  37.7500 Du        
  21648 ****         8.5000  15.7500  38.0000 Du        
  21649 ****         8.5000  15.7500  38.2500 Du        
  21650 ****         8.5000  15.7500  38.5000 Du        
  21651 ****         8.5000  15.7500  38.7500 Du        
  21652 ****         8.5000  15.7500  39.0000 Du        
  21653 ****         8.5000  15.7500  39.2500 Du        
  21654 ****         8.5000  15.7500  39.5000 Du        
  21655 ****         8.5000  15.7500  39.7500 Du        
  21656 ****         8.5000  15.7500  40.0000 Du        
  21657 ****         8.5000  15.7500  40.2500 Du        
  21658 ****         8.5000  15.7500  40.5000 Du        
  21659 ****         8.5000  15.7500  40.7500 Du        
  21660 ****         8.5000  15.7500  41.0000 Du        
  21661 ****         8.5000  15.7500  41.2500 Du        
  21662 ****         8.5000  16.0000   8.5000 Du        
  21663 ****         8.5000  16.0000   8.7500 Du        
  21664 ****         8.5000  16.0000   9.0000 Du        
  21665 ****         8.5000  16.0000   9.2500 Du        
  21666 ****         8.5000  16.0000   9.5000 Du        
  21667 ****         8.5000  16.0000  37.7500 Du        
  21668 ****         8.5000  16.0000  38.0000 Du        
  21669 ****         8.5000  16.0000  38.2500 Du        
  21670 ****         8.5000  16.0000  38.5000 Du        
  21671 ****         8.5000  16.0000  38.7500 Du        
  21672 ****         8.5000  16.0000  39.0000 Du        
  21673 ****         8.5000  16.0000  39.2500 Du        
  21674 ****         8.5000  16.0000  39.5000 Du        
  21675 ****         8.5000  16.0000  39.7500 Du        
  21676 ****         8.5000  16.0000  40.0000 Du        
  21677 ****         8.5000  16.0000  40.2500 Du        
  21678 ****         8.5000  16.0000  40.5000 Du        
  21679 ****         8.5000  16.0000  40.7500 Du        
  21680 ****         8.5000  16.0000  41.0000 Du        
  21681 ****         8.5000  16.0000  41.2500 Du        
  21682 ****         8.5000  16.2500   9.0000 Du        
  21683 ****         8.5000  16.2500  37.7500 Du        
  21684 ****         8.5000  16.2500  38.0000 Du        
  21685 ****         8.5000  16.2500  38.2500 Du        
  21686 ****         8.5000  16.2500  38.5000 Du        
  21687 ****         8.5000  16.2500  38.7500 Du        
  21688 ****         8.5000  16.2500  39.0000 Du        
  21689 ****         8.5000  16.2500  39.2500 Du        
  21690 ****         8.5000  16.2500  39.5000 Du        
  21691 ****         8.5000  16.2500  39.7500 Du        
  21692 ****         8.5000  16.2500  40.0000 Du        
  21693 ****         8.5000  16.2500  40.2500 Du        
  21694 ****         8.5000  16.2500  40.5000 Du        
  21695 ****         8.5000  16.2500  40.7500 Du        
  21696 ****         8.5000  16.2500  41.0000 Du        
  21697 ****         8.5000  16.2500  41.2500 Du        
  21698 ****         8.5000  16.2500  41.5000 Du        
  21699 ****         8.5000  16.5000  37.7500 Du        
  21700 ****         8.5000  16.5000  38.0000 Du        
  21701 ****         8.5000  16.5000  38.2500 Du        
  21702 ****         8.5000  16.5000  38.5000 Du        
  21703 ****         8.5000  16.5000  38.7500 Du        
  21704 ****         8.5000  16.5000  39.0000 Du        
  21705 ****         8.5000  16.5000  39.2500 Du        
  21706 ****         8.5000  16.5000  39.5000 Du        
  21707 ****         8.5000  16.5000  39.7500 Du        
  21708 ****         8.5000  16.5000  40.0000 Du        
  21709 ****         8.5000  16.5000  40.2500 Du        
  21710 ****         8.5000  16.5000  40.5000 Du        
  21711 ****         8.5000  16.5000  40.7500 Du        
  21712 ****         8.5000  16.5000  41.0000 Du        
  21713 ****         8.5000  16.5000  41.2500 Du        
  21714 ****         8.5000  16.5000  41.5000 Du        
  21715 ****         8.5000  16.7500  38.0000 Du        
  21716 ****         8.5000  16.7500  38.2500 Du        
  21717 ****         8.5000  16.7500  38.5000 Du        
  21718 ****         8.5000  16.7500  38.7500 Du        
  21719 ****         8.5000  16.7500  39.0000 Du        
  21720 ****         8.5000  16.7500  39.2500 Du        
  21721 ****         8.5000  16.7500  39.5000 Du        
  21722 ****         8.5000  16.7500  39.7500 Du        
  21723 ****         8.5000  16.7500  40.0000 Du        
  21724 ****         8.5000  16.7500  40.2500 Du        
  21725 ****         8.5000  16.7500  40.5000 Du        
  21726 ****         8.5000  16.7500  40.7500 Du        
  21727 ****         8.5000  16.7500  41.0000 Du        
  21728 ****         8.5000  16.7500  41.2500 Du        
  21729 ****         8.5000  16.7500  41.5000 Du        
  21730 ****         8.5000  16.7500  41.7500 Du        
  21731 ****         8.5000  17.0000  38.0000 Du        
  21732 ****         8.5000  17.0000  38.2500 Du        
  21733 ****         8.5000  17.0000  38.5000 Du        
  21734 ****         8.5000  17.0000  38.7500 Du        
  21735 ****         8.5000  17.0000  39.0000 Du        
  21736 ****         8.5000  17.0000  39.2500 Du        
  21737 ****         8.5000  17.0000  40.7500 Du        
  21738 ****         8.5000  17.0000  41.0000 Du        
  21739 ****         8.5000  17.0000  41.2500 Du        
  21740 ****         8.5000  17.0000  41.5000 Du        
  21741 ****         8.5000  17.2500  38.0000 Du        
  21742 ****         8.5000  17.2500  38.2500 Du        
  21743 ****         8.5000  17.2500  38.5000 Du        
  21744 ****         8.5000  17.2500  38.7500 Du        
  21745 ****         8.5000  17.2500  39.0000 Du        
  21746 ****         8.5000  17.2500  39.2500 Du        
  21747 ****         8.5000  17.5000  38.0000 Du        
  21748 ****         8.5000  17.5000  38.2500 Du        
  21749 ****         8.5000  17.5000  38.5000 Du        
  21750 ****         8.5000  17.5000  38.7500 Du        
  21751 ****         8.5000  17.5000  39.0000 Du        
  21752 ****         8.5000  17.5000  39.2500 Du        
  21753 ****         8.5000  17.7500  37.7500 Du        
  21754 ****         8.5000  17.7500  38.0000 Du        
  21755 ****         8.5000  17.7500  38.2500 Du        
  21756 ****         8.5000  17.7500  38.5000 Du        
  21757 ****         8.5000  17.7500  38.7500 Du        
  21758 ****         8.5000  17.7500  39.0000 Du        
  21759 ****         8.5000  17.7500  39.2500 Du        
  21760 ****         8.5000  18.0000  37.7500 Du        
  21761 ****         8.5000  18.0000  38.0000 Du        
  21762 ****         8.5000  18.0000  38.2500 Du        
  21763 ****         8.5000  18.0000  38.5000 Du        
  21764 ****         8.5000  18.0000  38.7500 Du        
  21765 ****         8.5000  18.0000  39.0000 Du        
  21766 ****         8.5000  18.0000  39.2500 Du        
  21767 ****         8.5000  18.2500  37.7500 Du        
  21768 ****         8.5000  18.2500  38.0000 Du        
  21769 ****         8.5000  18.2500  38.2500 Du        
  21770 ****         8.5000  18.2500  38.5000 Du        
  21771 ****         8.5000  18.2500  38.7500 Du        
  21772 ****         8.5000  18.2500  39.0000 Du        
  21773 ****         8.5000  18.2500  39.2500 Du        
  21774 ****         8.5000  18.5000  37.5000 Du        
  21775 ****         8.5000  18.5000  37.7500 Du        
  21776 ****         8.5000  18.5000  38.0000 Du        
  21777 ****         8.5000  18.5000  38.2500 Du        
  21778 ****         8.5000  18.5000  38.5000 Du        
  21779 ****         8.5000  18.5000  38.7500 Du        
  21780 ****         8.5000  18.5000  39.0000 Du        
  21781 ****         8.5000  18.7500  37.5000 Du        
  21782 ****         8.5000  18.7500  37.7500 Du        
  21783 ****         8.5000  18.7500  38.0000 Du        
  21784 ****         8.5000  18.7500  38.2500 Du        
  21785 ****         8.5000  18.7500  38.5000 Du        
  21786 ****         8.5000  18.7500  38.7500 Du        
  21787 ****         8.5000  18.7500  39.0000 Du        
  21788 ****         8.5000  19.0000  37.5000 Du        
  21789 ****         8.5000  19.0000  37.7500 Du        
  21790 ****         8.5000  19.0000  38.0000 Du        
  21791 ****         8.5000  19.0000  38.2500 Du        
  21792 ****         8.5000  19.0000  38.5000 Du        
  21793 ****         8.5000  19.0000  38.7500 Du        
  21794 ****         8.5000  19.0000  39.0000 Du        
  21795 ****         8.5000  19.2500  37.7500 Du        
  21796 ****         8.5000  19.2500  38.0000 Du        
  21797 ****         8.5000  19.2500  38.2500 Du        
  21798 ****         8.5000  19.2500  38.5000 Du        
  21799 ****         8.5000  19.2500  38.7500 Du        
  21800 ****         8.5000  19.2500  39.0000 Du        
  21801 ****         8.5000  19.5000  38.0000 Du        
  21802 ****         8.5000  19.5000  38.2500 Du        
  21803 ****         8.5000  19.5000  38.5000 Du        
  21804 ****         8.7500  -3.2500  26.5000 Du        
  21805 ****         8.7500  -3.2500  26.7500 Du        
  21806 ****         8.7500  -3.0000  26.5000 Du        
  21807 ****         8.7500  -3.0000  26.7500 Du        
  21808 ****         8.7500   4.0000  24.5000 Du        
  21809 ****         8.7500   4.2500  24.5000 Du        
  21810 ****         8.7500   4.2500  24.7500 Du        
  21811 ****         8.7500   4.5000  24.2500 Du        
  21812 ****         8.7500   4.5000  24.5000 Du        
  21813 ****         8.7500   4.5000  24.7500 Du        
  21814 ****         8.7500   4.7500  24.0000 Du        
  21815 ****         8.7500   4.7500  24.2500 Du        
  21816 ****         8.7500   4.7500  24.5000 Du        
  21817 ****         8.7500   4.7500  24.7500 Du        
  21818 ****         8.7500   5.0000  24.0000 Du        
  21819 ****         8.7500   5.0000  24.2500 Du        
  21820 ****         8.7500   5.0000  24.5000 Du        
  21821 ****         8.7500   5.0000  24.7500 Du        
  21822 ****         8.7500   5.2500  24.0000 Du        
  21823 ****         8.7500   5.2500  24.2500 Du        
  21824 ****         8.7500   5.2500  24.5000 Du        
  21825 ****         8.7500   5.2500  24.7500 Du        
  21826 ****         8.7500   5.5000  23.7500 Du        
  21827 ****         8.7500   5.5000  24.0000 Du        
  21828 ****         8.7500   5.5000  24.2500 Du        
  21829 ****         8.7500   5.5000  24.5000 Du        
  21830 ****         8.7500   5.5000  24.7500 Du        
  21831 ****         8.7500   5.7500  23.7500 Du        
  21832 ****         8.7500   5.7500  24.0000 Du        
  21833 ****         8.7500   5.7500  24.2500 Du        
  21834 ****         8.7500   5.7500  24.5000 Du        
  21835 ****         8.7500   5.7500  24.7500 Du        
  21836 ****         8.7500   6.0000  24.0000 Du        
  21837 ****         8.7500   6.0000  24.2500 Du        
  21838 ****         8.7500   6.0000  24.5000 Du        
  21839 ****         8.7500   6.0000  24.7500 Du        
  21840 ****         8.7500   6.2500  24.2500 Du        
  21841 ****         8.7500   6.2500  24.5000 Du        
  21842 ****         8.7500   9.0000  36.0000 Du        
  21843 ****         8.7500   9.0000  36.2500 Du        
  21844 ****         8.7500   9.2500  35.7500 Du        
  21845 ****         8.7500   9.2500  36.0000 Du        
  21846 ****         8.7500   9.2500  36.2500 Du        
  21847 ****         8.7500   9.2500  36.5000 Du        
  21848 ****         8.7500   9.5000  35.5000 Du        
  21849 ****         8.7500   9.5000  35.7500 Du        
  21850 ****         8.7500   9.5000  36.0000 Du        
  21851 ****         8.7500   9.5000  36.2500 Du        
  21852 ****         8.7500   9.5000  36.5000 Du        
  21853 ****         8.7500   9.5000  36.7500 Du        
  21854 ****         8.7500   9.7500  35.2500 Du        
  21855 ****         8.7500   9.7500  35.5000 Du        
  21856 ****         8.7500   9.7500  35.7500 Du        
  21857 ****         8.7500   9.7500  36.0000 Du        
  21858 ****         8.7500   9.7500  36.2500 Du        
  21859 ****         8.7500   9.7500  36.5000 Du        
  21860 ****         8.7500   9.7500  36.7500 Du        
  21861 ****         8.7500  10.0000  35.2500 Du        
  21862 ****         8.7500  10.0000  35.5000 Du        
  21863 ****         8.7500  10.0000  35.7500 Du        
  21864 ****         8.7500  10.0000  36.0000 Du        
  21865 ****         8.7500  10.0000  36.2500 Du        
  21866 ****         8.7500  10.0000  36.5000 Du        
  21867 ****         8.7500  10.0000  36.7500 Du        
  21868 ****         8.7500  10.2500  35.5000 Du        
  21869 ****         8.7500  10.2500  35.7500 Du        
  21870 ****         8.7500  10.2500  36.0000 Du        
  21871 ****         8.7500  10.2500  36.2500 Du        
  21872 ****         8.7500  10.2500  36.5000 Du        
  21873 ****         8.7500  10.2500  36.7500 Du        
  21874 ****         8.7500  10.5000  35.7500 Du        
  21875 ****         8.7500  10.5000  36.0000 Du        
  21876 ****         8.7500  10.5000  36.2500 Du        
  21877 ****         8.7500  10.5000  36.5000 Du        
  21878 ****         8.7500  10.5000  36.7500 Du        
  21879 ****         8.7500  10.7500  36.2500 Du        
  21880 ****         8.7500  10.7500  36.5000 Du        
  21881 ****         8.7500  10.7500  36.7500 Du        
  21882 ****         8.7500  12.0000  11.0000 Du        
  21883 ****         8.7500  12.0000  11.2500 Du        
  21884 ****         8.7500  12.2500  10.5000 Du        
  21885 ****         8.7500  12.2500  10.7500 Du        
  21886 ****         8.7500  12.2500  11.0000 Du        
  21887 ****         8.7500  12.2500  11.2500 Du        
  21888 ****         8.7500  12.2500  11.5000 Du        
  21889 ****         8.7500  12.5000  10.0000 Du        
  21890 ****         8.7500  12.5000  10.2500 Du        
  21891 ****         8.7500  12.5000  10.5000 Du        
  21892 ****         8.7500  12.5000  10.7500 Du        
  21893 ****         8.7500  12.5000  11.0000 Du        
  21894 ****         8.7500  12.5000  11.2500 Du        
  21895 ****         8.7500  12.5000  11.5000 Du        
  21896 ****         8.7500  12.7500   9.7500 Du        
  21897 ****         8.7500  12.7500  10.0000 Du        
  21898 ****         8.7500  12.7500  10.2500 Du        
  21899 ****         8.7500  12.7500  10.5000 Du        
  21900 ****         8.7500  12.7500  10.7500 Du        
  21901 ****         8.7500  12.7500  11.0000 Du        
  21902 ****         8.7500  12.7500  11.2500 Du        
  21903 ****         8.7500  12.7500  11.5000 Du        
  21904 ****         8.7500  13.0000   9.5000 Du        
  21905 ****         8.7500  13.0000   9.7500 Du        
  21906 ****         8.7500  13.0000  10.0000 Du        
  21907 ****         8.7500  13.0000  10.2500 Du        
  21908 ****         8.7500  13.0000  10.5000 Du        
  21909 ****         8.7500  13.0000  10.7500 Du        
  21910 ****         8.7500  13.0000  11.0000 Du        
  21911 ****         8.7500  13.0000  11.2500 Du        
  21912 ****         8.7500  13.0000  11.5000 Du        
  21913 ****         8.7500  13.2500   9.5000 Du        
  21914 ****         8.7500  13.2500   9.7500 Du        
  21915 ****         8.7500  13.2500  10.0000 Du        
  21916 ****         8.7500  13.2500  10.2500 Du        
  21917 ****         8.7500  13.2500  10.5000 Du        
  21918 ****         8.7500  13.2500  10.7500 Du        
  21919 ****         8.7500  13.2500  11.0000 Du        
  21920 ****         8.7500  13.2500  11.2500 Du        
  21921 ****         8.7500  13.2500  11.5000 Du        
  21922 ****         8.7500  13.5000   9.5000 Du        
  21923 ****         8.7500  13.5000   9.7500 Du        
  21924 ****         8.7500  13.5000  10.0000 Du        
  21925 ****         8.7500  13.5000  10.2500 Du        
  21926 ****         8.7500  13.5000  10.5000 Du        
  21927 ****         8.7500  13.5000  10.7500 Du        
  21928 ****         8.7500  13.5000  11.0000 Du        
  21929 ****         8.7500  13.5000  11.2500 Du        
  21930 ****         8.7500  13.5000  11.5000 Du        
  21931 ****         8.7500  13.7500   9.2500 Du        
  21932 ****         8.7500  13.7500   9.5000 Du        
  21933 ****         8.7500  13.7500   9.7500 Du        
  21934 ****         8.7500  13.7500  10.0000 Du        
  21935 ****         8.7500  13.7500  10.2500 Du        
  21936 ****         8.7500  13.7500  10.5000 Du        
  21937 ****         8.7500  13.7500  10.7500 Du        
  21938 ****         8.7500  13.7500  11.0000 Du        
  21939 ****         8.7500  13.7500  11.2500 Du        
  21940 ****         8.7500  13.7500  11.5000 Du        
  21941 ****         8.7500  14.0000   9.2500 Du        
  21942 ****         8.7500  14.0000   9.5000 Du        
  21943 ****         8.7500  14.0000   9.7500 Du        
  21944 ****         8.7500  14.0000  10.0000 Du        
  21945 ****         8.7500  14.0000  10.2500 Du        
  21946 ****         8.7500  14.0000  10.5000 Du        
  21947 ****         8.7500  14.0000  10.7500 Du        
  21948 ****         8.7500  14.0000  11.0000 Du        
  21949 ****         8.7500  14.0000  11.2500 Du        
  21950 ****         8.7500  14.0000  11.5000 Du        
  21951 ****         8.7500  14.2500   9.0000 Du        
  21952 ****         8.7500  14.2500   9.2500 Du        
  21953 ****         8.7500  14.2500   9.5000 Du        
  21954 ****         8.7500  14.2500   9.7500 Du        
  21955 ****         8.7500  14.2500  10.0000 Du        
  21956 ****         8.7500  14.2500  10.2500 Du        
  21957 ****         8.7500  14.2500  10.5000 Du        
  21958 ****         8.7500  14.2500  10.7500 Du        
  21959 ****         8.7500  14.2500  11.0000 Du        
  21960 ****         8.7500  14.2500  11.2500 Du        
  21961 ****         8.7500  14.5000   9.0000 Du        
  21962 ****         8.7500  14.5000   9.2500 Du        
  21963 ****         8.7500  14.5000   9.5000 Du        
  21964 ****         8.7500  14.5000   9.7500 Du        
  21965 ****         8.7500  14.5000  10.0000 Du        
  21966 ****         8.7500  14.5000  10.2500 Du        
  21967 ****         8.7500  14.5000  10.5000 Du        
  21968 ****         8.7500  14.5000  10.7500 Du        
  21969 ****         8.7500  14.5000  37.7500 Du        
  21970 ****         8.7500  14.5000  38.0000 Du        
  21971 ****         8.7500  14.5000  38.2500 Du        
  21972 ****         8.7500  14.7500   8.7500 Du        
  21973 ****         8.7500  14.7500   9.0000 Du        
  21974 ****         8.7500  14.7500   9.2500 Du        
  21975 ****         8.7500  14.7500   9.5000 Du        
  21976 ****         8.7500  14.7500   9.7500 Du        
  21977 ****         8.7500  14.7500  10.0000 Du        
  21978 ****         8.7500  14.7500  10.2500 Du        
  21979 ****         8.7500  14.7500  10.5000 Du        
  21980 ****         8.7500  14.7500  37.7500 Du        
  21981 ****         8.7500  14.7500  38.0000 Du        
  21982 ****         8.7500  14.7500  38.2500 Du        
  21983 ****         8.7500  14.7500  38.5000 Du        
  21984 ****         8.7500  15.0000   5.0000 Du        
  21985 ****         8.7500  15.0000   8.2500 Du        
  21986 ****         8.7500  15.0000   8.5000 Du        
  21987 ****         8.7500  15.0000   8.7500 Du        
  21988 ****         8.7500  15.0000   9.0000 Du        
  21989 ****         8.7500  15.0000   9.2500 Du        
  21990 ****         8.7500  15.0000   9.5000 Du        
  21991 ****         8.7500  15.0000   9.7500 Du        
  21992 ****         8.7500  15.0000  10.0000 Du        
  21993 ****         8.7500  15.0000  10.2500 Du        
  21994 ****         8.7500  15.0000  37.7500 Du        
  21995 ****         8.7500  15.0000  38.0000 Du        
  21996 ****         8.7500  15.0000  38.2500 Du        
  21997 ****         8.7500  15.0000  38.5000 Du        
  21998 ****         8.7500  15.0000  38.7500 Du        
  21999 ****         8.7500  15.2500   5.0000 Du        
  22000 ****         8.7500  15.2500   5.2500 Du        
  22001 ****         8.7500  15.2500   8.0000 Du        
  22002 ****         8.7500  15.2500   8.2500 Du        
  22003 ****         8.7500  15.2500   8.5000 Du        
  22004 ****         8.7500  15.2500   8.7500 Du        
  22005 ****         8.7500  15.2500   9.0000 Du        
  22006 ****         8.7500  15.2500   9.2500 Du        
  22007 ****         8.7500  15.2500   9.5000 Du        
  22008 ****         8.7500  15.2500   9.7500 Du        
  22009 ****         8.7500  15.2500  10.0000 Du        
  22010 ****         8.7500  15.2500  37.7500 Du        
  22011 ****         8.7500  15.2500  38.0000 Du        
  22012 ****         8.7500  15.2500  38.2500 Du        
  22013 ****         8.7500  15.2500  38.5000 Du        
  22014 ****         8.7500  15.2500  38.7500 Du        
  22015 ****         8.7500  15.2500  39.0000 Du        
  22016 ****         8.7500  15.2500  39.2500 Du        
  22017 ****         8.7500  15.5000   5.0000 Du        
  22018 ****         8.7500  15.5000   5.2500 Du        
  22019 ****         8.7500  15.5000   8.2500 Du        
  22020 ****         8.7500  15.5000   8.5000 Du        
  22021 ****         8.7500  15.5000   8.7500 Du        
  22022 ****         8.7500  15.5000   9.0000 Du        
  22023 ****         8.7500  15.5000   9.2500 Du        
  22024 ****         8.7500  15.5000   9.5000 Du        
  22025 ****         8.7500  15.5000  37.5000 Du        
  22026 ****         8.7500  15.5000  37.7500 Du        
  22027 ****         8.7500  15.5000  38.0000 Du        
  22028 ****         8.7500  15.5000  38.2500 Du        
  22029 ****         8.7500  15.5000  38.5000 Du        
  22030 ****         8.7500  15.5000  38.7500 Du        
  22031 ****         8.7500  15.5000  39.0000 Du        
  22032 ****         8.7500  15.5000  39.2500 Du        
  22033 ****         8.7500  15.7500  37.5000 Du        
  22034 ****         8.7500  15.7500  37.7500 Du        
  22035 ****         8.7500  15.7500  38.0000 Du        
  22036 ****         8.7500  15.7500  38.2500 Du        
  22037 ****         8.7500  15.7500  38.5000 Du        
  22038 ****         8.7500  15.7500  38.7500 Du        
  22039 ****         8.7500  15.7500  39.0000 Du        
  22040 ****         8.7500  15.7500  39.2500 Du        
  22041 ****         8.7500  15.7500  39.5000 Du        
  22042 ****         8.7500  15.7500  39.7500 Du        
  22043 ****         8.7500  15.7500  40.0000 Du        
  22044 ****         8.7500  15.7500  40.2500 Du        
  22045 ****         8.7500  15.7500  40.5000 Du        
  22046 ****         8.7500  15.7500  40.7500 Du        
  22047 ****         8.7500  15.7500  41.0000 Du        
  22048 ****         8.7500  16.0000  37.5000 Du        
  22049 ****         8.7500  16.0000  37.7500 Du        
  22050 ****         8.7500  16.0000  38.0000 Du        
  22051 ****         8.7500  16.0000  38.2500 Du        
  22052 ****         8.7500  16.0000  38.5000 Du        
  22053 ****         8.7500  16.0000  38.7500 Du        
  22054 ****         8.7500  16.0000  39.0000 Du        
  22055 ****         8.7500  16.0000  39.2500 Du        
  22056 ****         8.7500  16.0000  39.5000 Du        
  22057 ****         8.7500  16.0000  39.7500 Du        
  22058 ****         8.7500  16.0000  40.0000 Du        
  22059 ****         8.7500  16.0000  40.2500 Du        
  22060 ****         8.7500  16.0000  40.5000 Du        
  22061 ****         8.7500  16.0000  40.7500 Du        
  22062 ****         8.7500  16.0000  41.0000 Du        
  22063 ****         8.7500  16.0000  41.2500 Du        
  22064 ****         8.7500  16.2500  37.7500 Du        
  22065 ****         8.7500  16.2500  38.0000 Du        
  22066 ****         8.7500  16.2500  38.2500 Du        
  22067 ****         8.7500  16.2500  38.5000 Du        
  22068 ****         8.7500  16.2500  38.7500 Du        
  22069 ****         8.7500  16.2500  39.0000 Du        
  22070 ****         8.7500  16.2500  39.2500 Du        
  22071 ****         8.7500  16.2500  39.5000 Du        
  22072 ****         8.7500  16.2500  39.7500 Du        
  22073 ****         8.7500  16.2500  40.0000 Du        
  22074 ****         8.7500  16.2500  40.2500 Du        
  22075 ****         8.7500  16.2500  40.5000 Du        
  22076 ****         8.7500  16.2500  40.7500 Du        
  22077 ****         8.7500  16.2500  41.0000 Du        
  22078 ****         8.7500  16.2500  41.2500 Du        
  22079 ****         8.7500  16.5000  37.7500 Du        
  22080 ****         8.7500  16.5000  38.0000 Du        
  22081 ****         8.7500  16.5000  38.2500 Du        
  22082 ****         8.7500  16.5000  38.5000 Du        
  22083 ****         8.7500  16.5000  38.7500 Du        
  22084 ****         8.7500  16.5000  39.0000 Du        
  22085 ****         8.7500  16.5000  39.2500 Du        
  22086 ****         8.7500  16.5000  39.5000 Du        
  22087 ****         8.7500  16.5000  39.7500 Du        
  22088 ****         8.7500  16.5000  40.0000 Du        
  22089 ****         8.7500  16.5000  40.2500 Du        
  22090 ****         8.7500  16.5000  40.5000 Du        
  22091 ****         8.7500  16.5000  40.7500 Du        
  22092 ****         8.7500  16.5000  41.0000 Du        
  22093 ****         8.7500  16.5000  41.2500 Du        
  22094 ****         8.7500  16.7500  37.7500 Du        
  22095 ****         8.7500  16.7500  38.0000 Du        
  22096 ****         8.7500  16.7500  38.2500 Du        
  22097 ****         8.7500  16.7500  38.5000 Du        
  22098 ****         8.7500  16.7500  38.7500 Du        
  22099 ****         8.7500  16.7500  39.0000 Du        
  22100 ****         8.7500  16.7500  39.2500 Du        
  22101 ****         8.7500  16.7500  39.5000 Du        
  22102 ****         8.7500  16.7500  39.7500 Du        
  22103 ****         8.7500  16.7500  40.0000 Du        
  22104 ****         8.7500  16.7500  40.2500 Du        
  22105 ****         8.7500  16.7500  40.5000 Du        
  22106 ****         8.7500  16.7500  40.7500 Du        
  22107 ****         8.7500  16.7500  41.0000 Du        
  22108 ****         8.7500  16.7500  41.2500 Du        
  22109 ****         8.7500  16.7500  41.5000 Du        
  22110 ****         8.7500  17.0000  37.7500 Du        
  22111 ****         8.7500  17.0000  38.0000 Du        
  22112 ****         8.7500  17.0000  38.2500 Du        
  22113 ****         8.7500  17.0000  38.5000 Du        
  22114 ****         8.7500  17.0000  38.7500 Du        
  22115 ****         8.7500  17.0000  39.0000 Du        
  22116 ****         8.7500  17.0000  39.2500 Du        
  22117 ****         8.7500  17.0000  40.0000 Du        
  22118 ****         8.7500  17.0000  40.5000 Du        
  22119 ****         8.7500  17.0000  40.7500 Du        
  22120 ****         8.7500  17.0000  41.0000 Du        
  22121 ****         8.7500  17.0000  41.2500 Du        
  22122 ****         8.7500  17.0000  41.5000 Du        
  22123 ****         8.7500  17.2500  37.7500 Du        
  22124 ****         8.7500  17.2500  38.0000 Du        
  22125 ****         8.7500  17.2500  38.2500 Du        
  22126 ****         8.7500  17.2500  38.5000 Du        
  22127 ****         8.7500  17.2500  38.7500 Du        
  22128 ****         8.7500  17.2500  39.0000 Du        
  22129 ****         8.7500  17.2500  39.2500 Du        
  22130 ****         8.7500  17.5000  37.7500 Du        
  22131 ****         8.7500  17.5000  38.0000 Du        
  22132 ****         8.7500  17.5000  38.2500 Du        
  22133 ****         8.7500  17.5000  38.5000 Du        
  22134 ****         8.7500  17.5000  38.7500 Du        
  22135 ****         8.7500  17.5000  39.0000 Du        
  22136 ****         8.7500  17.5000  39.2500 Du        
  22137 ****         8.7500  17.7500  37.7500 Du        
  22138 ****         8.7500  17.7500  38.0000 Du        
  22139 ****         8.7500  17.7500  38.2500 Du        
  22140 ****         8.7500  17.7500  38.5000 Du        
  22141 ****         8.7500  17.7500  38.7500 Du        
  22142 ****         8.7500  17.7500  39.0000 Du        
  22143 ****         8.7500  17.7500  39.2500 Du        
  22144 ****         8.7500  18.0000  37.5000 Du        
  22145 ****         8.7500  18.0000  37.7500 Du        
  22146 ****         8.7500  18.0000  38.0000 Du        
  22147 ****         8.7500  18.0000  38.2500 Du        
  22148 ****         8.7500  18.0000  38.5000 Du        
  22149 ****         8.7500  18.0000  38.7500 Du        
  22150 ****         8.7500  18.0000  39.0000 Du        
  22151 ****         8.7500  18.2500  37.5000 Du        
  22152 ****         8.7500  18.2500  37.7500 Du        
  22153 ****         8.7500  18.2500  38.0000 Du        
  22154 ****         8.7500  18.2500  38.2500 Du        
  22155 ****         8.7500  18.2500  38.5000 Du        
  22156 ****         8.7500  18.2500  38.7500 Du        
  22157 ****         8.7500  18.2500  39.0000 Du        
  22158 ****         8.7500  18.5000  37.5000 Du        
  22159 ****         8.7500  18.5000  37.7500 Du        
  22160 ****         8.7500  18.5000  38.0000 Du        
  22161 ****         8.7500  18.5000  38.2500 Du        
  22162 ****         8.7500  18.5000  38.5000 Du        
  22163 ****         8.7500  18.5000  38.7500 Du        
  22164 ****         8.7500  18.7500  37.2500 Du        
  22165 ****         8.7500  18.7500  37.5000 Du        
  22166 ****         8.7500  18.7500  37.7500 Du        
  22167 ****         8.7500  18.7500  38.0000 Du        
  22168 ****         8.7500  18.7500  38.2500 Du        
  22169 ****         8.7500  18.7500  38.5000 Du        
  22170 ****         8.7500  18.7500  38.7500 Du        
  22171 ****         8.7500  19.0000  37.5000 Du        
  22172 ****         8.7500  19.0000  37.7500 Du        
  22173 ****         8.7500  19.0000  38.0000 Du        
  22174 ****         8.7500  19.0000  38.2500 Du        
  22175 ****         8.7500  19.0000  38.5000 Du        
  22176 ****         8.7500  19.0000  38.7500 Du        
  22177 ****         8.7500  19.2500  37.7500 Du        
  22178 ****         8.7500  19.2500  38.0000 Du        
  22179 ****         8.7500  19.2500  38.2500 Du        
  22180 ****         8.7500  19.2500  38.5000 Du        
  22181 ****         8.7500  19.2500  38.7500 Du        
  22182 ****         8.7500  19.5000  38.0000 Du        
  22183 ****         8.7500  19.5000  38.2500 Du        
  22184 ****         9.0000  -3.2500  26.5000 Du        
  22185 ****         9.0000  -3.2500  26.7500 Du        
  22186 ****         9.0000  -3.2500  27.0000 Du        
  22187 ****         9.0000  -3.0000  26.2500 Du        
  22188 ****         9.0000  -3.0000  26.5000 Du        
  22189 ****         9.0000  -3.0000  26.7500 Du        
  22190 ****         9.0000  -3.0000  27.0000 Du        
  22191 ****         9.0000  -2.7500  26.5000 Du        
  22192 ****         9.0000  -2.7500  26.7500 Du        
  22193 ****         9.0000   4.2500  24.2500 Du        
  22194 ****         9.0000   4.2500  24.5000 Du        
  22195 ****         9.0000   4.2500  24.7500 Du        
  22196 ****         9.0000   4.5000  24.5000 Du        
  22197 ****         9.0000   4.5000  24.7500 Du        
  22198 ****         9.0000   4.7500  24.2500 Du        
  22199 ****         9.0000   4.7500  24.5000 Du        
  22200 ****         9.0000   4.7500  24.7500 Du        
  22201 ****         9.0000   5.0000  24.0000 Du        
  22202 ****         9.0000   5.0000  24.2500 Du        
  22203 ****         9.0000   5.0000  24.5000 Du        
  22204 ****         9.0000   5.0000  24.7500 Du        
  22205 ****         9.0000   5.2500  24.0000 Du        
  22206 ****         9.0000   5.2500  24.2500 Du        
  22207 ****         9.0000   5.2500  24.5000 Du        
  22208 ****         9.0000   5.2500  24.7500 Du        
  22209 ****         9.0000   5.5000  23.7500 Du        
  22210 ****         9.0000   5.5000  24.0000 Du        
  22211 ****         9.0000   5.5000  24.2500 Du        
  22212 ****         9.0000   5.5000  24.5000 Du        
  22213 ****         9.0000   5.5000  24.7500 Du        
  22214 ****         9.0000   5.7500  23.7500 Du        
  22215 ****         9.0000   5.7500  24.0000 Du        
  22216 ****         9.0000   5.7500  24.2500 Du        
  22217 ****         9.0000   5.7500  24.5000 Du        
  22218 ****         9.0000   5.7500  24.7500 Du        
  22219 ****         9.0000   6.0000  24.0000 Du        
  22220 ****         9.0000   6.0000  24.2500 Du        
  22221 ****         9.0000   6.0000  24.5000 Du        
  22222 ****         9.0000   6.0000  24.7500 Du        
  22223 ****         9.0000   6.2500  24.2500 Du        
  22224 ****         9.0000   6.2500  24.5000 Du        
  22225 ****         9.0000   6.2500  24.7500 Du        
  22226 ****         9.0000   6.5000  24.5000 Du        
  22227 ****         9.0000   9.0000  36.0000 Du        
  22228 ****         9.0000   9.0000  36.2500 Du        
  22229 ****         9.0000   9.0000  36.5000 Du        
  22230 ****         9.0000   9.2500  35.7500 Du        
  22231 ****         9.0000   9.2500  36.0000 Du        
  22232 ****         9.0000   9.2500  36.2500 Du        
  22233 ****         9.0000   9.2500  36.5000 Du        
  22234 ****         9.0000   9.5000  35.5000 Du        
  22235 ****         9.0000   9.5000  35.7500 Du        
  22236 ****         9.0000   9.5000  36.0000 Du        
  22237 ****         9.0000   9.5000  36.2500 Du        
  22238 ****         9.0000   9.5000  36.5000 Du        
  22239 ****         9.0000   9.7500  35.5000 Du        
  22240 ****         9.0000   9.7500  35.7500 Du        
  22241 ****         9.0000   9.7500  36.0000 Du        
  22242 ****         9.0000   9.7500  36.2500 Du        
  22243 ****         9.0000   9.7500  36.5000 Du        
  22244 ****         9.0000  10.0000  35.2500 Du        
  22245 ****         9.0000  10.0000  35.5000 Du        
  22246 ****         9.0000  10.0000  35.7500 Du        
  22247 ****         9.0000  10.0000  36.0000 Du        
  22248 ****         9.0000  10.0000  36.2500 Du        
  22249 ****         9.0000  10.0000  36.5000 Du        
  22250 ****         9.0000  10.2500  35.5000 Du        
  22251 ****         9.0000  10.2500  35.7500 Du        
  22252 ****         9.0000  10.2500  36.0000 Du        
  22253 ****         9.0000  10.2500  36.2500 Du        
  22254 ****         9.0000  10.2500  36.5000 Du        
  22255 ****         9.0000  10.5000  35.7500 Du        
  22256 ****         9.0000  10.5000  36.0000 Du        
  22257 ****         9.0000  10.5000  36.2500 Du        
  22258 ****         9.0000  10.5000  36.5000 Du        
  22259 ****         9.0000  10.7500  36.2500 Du        
  22260 ****         9.0000  12.0000  11.2500 Du        
  22261 ****         9.0000  12.2500  10.2500 Du        
  22262 ****         9.0000  12.2500  10.5000 Du        
  22263 ****         9.0000  12.2500  10.7500 Du        
  22264 ****         9.0000  12.2500  11.0000 Du        
  22265 ****         9.0000  12.2500  11.2500 Du        
  22266 ****         9.0000  12.2500  11.5000 Du        
  22267 ****         9.0000  12.2500  11.7500 Du        
  22268 ****         9.0000  12.5000   9.7500 Du        
  22269 ****         9.0000  12.5000  10.0000 Du        
  22270 ****         9.0000  12.5000  10.2500 Du        
  22271 ****         9.0000  12.5000  10.5000 Du        
  22272 ****         9.0000  12.5000  10.7500 Du        
  22273 ****         9.0000  12.5000  11.0000 Du        
  22274 ****         9.0000  12.5000  11.2500 Du        
  22275 ****         9.0000  12.5000  11.5000 Du        
  22276 ****         9.0000  12.7500   9.5000 Du        
  22277 ****         9.0000  12.7500   9.7500 Du        
  22278 ****         9.0000  12.7500  10.0000 Du        
  22279 ****         9.0000  12.7500  10.2500 Du        
  22280 ****         9.0000  12.7500  10.5000 Du        
  22281 ****         9.0000  12.7500  10.7500 Du        
  22282 ****         9.0000  12.7500  11.0000 Du        
  22283 ****         9.0000  12.7500  11.2500 Du        
  22284 ****         9.0000  12.7500  11.5000 Du        
  22285 ****         9.0000  13.0000   9.5000 Du        
  22286 ****         9.0000  13.0000   9.7500 Du        
  22287 ****         9.0000  13.0000  10.0000 Du        
  22288 ****         9.0000  13.0000  10.2500 Du        
  22289 ****         9.0000  13.0000  10.5000 Du        
  22290 ****         9.0000  13.0000  10.7500 Du        
  22291 ****         9.0000  13.0000  11.0000 Du        
  22292 ****         9.0000  13.0000  11.2500 Du        
  22293 ****         9.0000  13.0000  11.5000 Du        
  22294 ****         9.0000  13.2500   9.5000 Du        
  22295 ****         9.0000  13.2500   9.7500 Du        
  22296 ****         9.0000  13.2500  10.0000 Du        
  22297 ****         9.0000  13.2500  10.2500 Du        
  22298 ****         9.0000  13.2500  10.5000 Du        
  22299 ****         9.0000  13.2500  10.7500 Du        
  22300 ****         9.0000  13.2500  11.0000 Du        
  22301 ****         9.0000  13.2500  11.2500 Du        
  22302 ****         9.0000  13.2500  11.5000 Du        
  22303 ****         9.0000  13.5000   9.2500 Du        
  22304 ****         9.0000  13.5000   9.5000 Du        
  22305 ****         9.0000  13.5000   9.7500 Du        
  22306 ****         9.0000  13.5000  10.0000 Du        
  22307 ****         9.0000  13.5000  10.2500 Du        
  22308 ****         9.0000  13.5000  10.5000 Du        
  22309 ****         9.0000  13.5000  10.7500 Du        
  22310 ****         9.0000  13.5000  11.0000 Du        
  22311 ****         9.0000  13.5000  11.2500 Du        
  22312 ****         9.0000  13.5000  11.5000 Du        
  22313 ****         9.0000  13.7500   9.2500 Du        
  22314 ****         9.0000  13.7500   9.5000 Du        
  22315 ****         9.0000  13.7500   9.7500 Du        
  22316 ****         9.0000  13.7500  10.0000 Du        
  22317 ****         9.0000  13.7500  10.2500 Du        
  22318 ****         9.0000  13.7500  10.5000 Du        
  22319 ****         9.0000  13.7500  10.7500 Du        
  22320 ****         9.0000  13.7500  11.0000 Du        
  22321 ****         9.0000  13.7500  11.2500 Du        
  22322 ****         9.0000  13.7500  11.5000 Du        
  22323 ****         9.0000  13.7500  11.7500 Du        
  22324 ****         9.0000  14.0000   9.0000 Du        
  22325 ****         9.0000  14.0000   9.2500 Du        
  22326 ****         9.0000  14.0000   9.5000 Du        
  22327 ****         9.0000  14.0000   9.7500 Du        
  22328 ****         9.0000  14.0000  10.0000 Du        
  22329 ****         9.0000  14.0000  10.2500 Du        
  22330 ****         9.0000  14.0000  10.5000 Du        
  22331 ****         9.0000  14.0000  10.7500 Du        
  22332 ****         9.0000  14.0000  11.0000 Du        
  22333 ****         9.0000  14.0000  11.2500 Du        
  22334 ****         9.0000  14.0000  11.5000 Du        
  22335 ****         9.0000  14.0000  11.7500 Du        
  22336 ****         9.0000  14.2500   9.0000 Du        
  22337 ****         9.0000  14.2500   9.2500 Du        
  22338 ****         9.0000  14.2500   9.5000 Du        
  22339 ****         9.0000  14.2500   9.7500 Du        
  22340 ****         9.0000  14.2500  10.0000 Du        
  22341 ****         9.0000  14.2500  10.2500 Du        
  22342 ****         9.0000  14.2500  10.5000 Du        
  22343 ****         9.0000  14.2500  10.7500 Du        
  22344 ****         9.0000  14.2500  11.0000 Du        
  22345 ****         9.0000  14.2500  11.2500 Du        
  22346 ****         9.0000  14.5000   4.0000 Du        
  22347 ****         9.0000  14.5000   4.2500 Du        
  22348 ****         9.0000  14.5000   8.7500 Du        
  22349 ****         9.0000  14.5000   9.0000 Du        
  22350 ****         9.0000  14.5000   9.2500 Du        
  22351 ****         9.0000  14.5000   9.5000 Du        
  22352 ****         9.0000  14.5000   9.7500 Du        
  22353 ****         9.0000  14.5000  10.0000 Du        
  22354 ****         9.0000  14.5000  10.2500 Du        
  22355 ****         9.0000  14.5000  10.5000 Du        
  22356 ****         9.0000  14.5000  10.7500 Du        
  22357 ****         9.0000  14.5000  11.0000 Du        
  22358 ****         9.0000  14.7500   4.0000 Du        
  22359 ****         9.0000  14.7500   4.2500 Du        
  22360 ****         9.0000  14.7500   4.5000 Du        
  22361 ****         9.0000  14.7500   8.5000 Du        
  22362 ****         9.0000  14.7500   8.7500 Du        
  22363 ****         9.0000  14.7500   9.0000 Du        
  22364 ****         9.0000  14.7500   9.2500 Du        
  22365 ****         9.0000  14.7500   9.5000 Du        
  22366 ****         9.0000  14.7500   9.7500 Du        
  22367 ****         9.0000  14.7500  10.0000 Du        
  22368 ****         9.0000  14.7500  10.2500 Du        
  22369 ****         9.0000  14.7500  10.5000 Du        
  22370 ****         9.0000  14.7500  38.0000 Du        
  22371 ****         9.0000  15.0000   4.0000 Du        
  22372 ****         9.0000  15.0000   4.2500 Du        
  22373 ****         9.0000  15.0000   4.5000 Du        
  22374 ****         9.0000  15.0000   4.7500 Du        
  22375 ****         9.0000  15.0000   5.0000 Du        
  22376 ****         9.0000  15.0000   8.2500 Du        
  22377 ****         9.0000  15.0000   8.5000 Du        
  22378 ****         9.0000  15.0000   8.7500 Du        
  22379 ****         9.0000  15.0000   9.0000 Du        
  22380 ****         9.0000  15.0000   9.2500 Du        
  22381 ****         9.0000  15.0000   9.5000 Du        
  22382 ****         9.0000  15.0000   9.7500 Du        
  22383 ****         9.0000  15.0000  10.0000 Du        
  22384 ****         9.0000  15.0000  37.7500 Du        
  22385 ****         9.0000  15.0000  38.0000 Du        
  22386 ****         9.0000  15.0000  38.2500 Du        
  22387 ****         9.0000  15.0000  38.5000 Du        
  22388 ****         9.0000  15.2500   4.0000 Du        
  22389 ****         9.0000  15.2500   4.2500 Du        
  22390 ****         9.0000  15.2500   4.5000 Du        
  22391 ****         9.0000  15.2500   4.7500 Du        
  22392 ****         9.0000  15.2500   5.0000 Du        
  22393 ****         9.0000  15.2500   5.2500 Du        
  22394 ****         9.0000  15.2500   8.2500 Du        
  22395 ****         9.0000  15.2500   8.5000 Du        
  22396 ****         9.0000  15.2500   8.7500 Du        
  22397 ****         9.0000  15.2500   9.0000 Du        
  22398 ****         9.0000  15.2500  37.5000 Du        
  22399 ****         9.0000  15.2500  37.7500 Du        
  22400 ****         9.0000  15.2500  38.0000 Du        
  22401 ****         9.0000  15.2500  38.2500 Du        
  22402 ****         9.0000  15.2500  38.5000 Du        
  22403 ****         9.0000  15.2500  38.7500 Du        
  22404 ****         9.0000  15.5000   4.0000 Du        
  22405 ****         9.0000  15.5000   4.2500 Du        
  22406 ****         9.0000  15.5000   4.5000 Du        
  22407 ****         9.0000  15.5000   4.7500 Du        
  22408 ****         9.0000  15.5000   5.0000 Du        
  22409 ****         9.0000  15.5000  37.5000 Du        
  22410 ****         9.0000  15.5000  37.7500 Du        
  22411 ****         9.0000  15.5000  38.0000 Du        
  22412 ****         9.0000  15.5000  38.2500 Du        
  22413 ****         9.0000  15.5000  38.5000 Du        
  22414 ****         9.0000  15.5000  38.7500 Du        
  22415 ****         9.0000  15.5000  39.0000 Du        
  22416 ****         9.0000  15.7500   4.0000 Du        
  22417 ****         9.0000  15.7500   4.2500 Du        
  22418 ****         9.0000  15.7500   4.5000 Du        
  22419 ****         9.0000  15.7500   4.7500 Du        
  22420 ****         9.0000  15.7500  37.5000 Du        
  22421 ****         9.0000  15.7500  37.7500 Du        
  22422 ****         9.0000  15.7500  38.0000 Du        
  22423 ****         9.0000  15.7500  38.2500 Du        
  22424 ****         9.0000  15.7500  38.5000 Du        
  22425 ****         9.0000  15.7500  38.7500 Du        
  22426 ****         9.0000  15.7500  39.0000 Du        
  22427 ****         9.0000  15.7500  39.2500 Du        
  22428 ****         9.0000  16.0000   4.0000 Du        
  22429 ****         9.0000  16.0000   4.2500 Du        
  22430 ****         9.0000  16.0000   4.5000 Du        
  22431 ****         9.0000  16.0000  37.5000 Du        
  22432 ****         9.0000  16.0000  37.7500 Du        
  22433 ****         9.0000  16.0000  38.0000 Du        
  22434 ****         9.0000  16.0000  38.2500 Du        
  22435 ****         9.0000  16.0000  38.5000 Du        
  22436 ****         9.0000  16.0000  38.7500 Du        
  22437 ****         9.0000  16.0000  39.0000 Du        
  22438 ****         9.0000  16.0000  39.2500 Du        
  22439 ****         9.0000  16.0000  39.5000 Du        
  22440 ****         9.0000  16.0000  39.7500 Du        
  22441 ****         9.0000  16.0000  40.0000 Du        
  22442 ****         9.0000  16.0000  40.2500 Du        
  22443 ****         9.0000  16.0000  40.5000 Du        
  22444 ****         9.0000  16.2500   4.0000 Du        
  22445 ****         9.0000  16.2500  37.5000 Du        
  22446 ****         9.0000  16.2500  37.7500 Du        
  22447 ****         9.0000  16.2500  38.0000 Du        
  22448 ****         9.0000  16.2500  38.2500 Du        
  22449 ****         9.0000  16.2500  38.5000 Du        
  22450 ****         9.0000  16.2500  38.7500 Du        
  22451 ****         9.0000  16.2500  39.0000 Du        
  22452 ****         9.0000  16.2500  39.2500 Du        
  22453 ****         9.0000  16.2500  39.5000 Du        
  22454 ****         9.0000  16.2500  39.7500 Du        
  22455 ****         9.0000  16.2500  40.0000 Du        
  22456 ****         9.0000  16.2500  40.2500 Du        
  22457 ****         9.0000  16.2500  40.5000 Du        
  22458 ****         9.0000  16.2500  40.7500 Du        
  22459 ****         9.0000  16.2500  41.0000 Du        
  22460 ****         9.0000  16.5000  37.5000 Du        
  22461 ****         9.0000  16.5000  37.7500 Du        
  22462 ****         9.0000  16.5000  38.0000 Du        
  22463 ****         9.0000  16.5000  38.2500 Du        
  22464 ****         9.0000  16.5000  38.5000 Du        
  22465 ****         9.0000  16.5000  38.7500 Du        
  22466 ****         9.0000  16.5000  39.0000 Du        
  22467 ****         9.0000  16.5000  39.2500 Du        
  22468 ****         9.0000  16.5000  39.5000 Du        
  22469 ****         9.0000  16.5000  39.7500 Du        
  22470 ****         9.0000  16.5000  40.0000 Du        
  22471 ****         9.0000  16.5000  40.2500 Du        
  22472 ****         9.0000  16.5000  40.5000 Du        
  22473 ****         9.0000  16.5000  40.7500 Du        
  22474 ****         9.0000  16.5000  41.0000 Du        
  22475 ****         9.0000  16.7500  37.5000 Du        
  22476 ****         9.0000  16.7500  37.7500 Du        
  22477 ****         9.0000  16.7500  38.0000 Du        
  22478 ****         9.0000  16.7500  38.2500 Du        
  22479 ****         9.0000  16.7500  38.5000 Du        
  22480 ****         9.0000  16.7500  38.7500 Du        
  22481 ****         9.0000  16.7500  39.0000 Du        
  22482 ****         9.0000  16.7500  39.2500 Du        
  22483 ****         9.0000  16.7500  39.5000 Du        
  22484 ****         9.0000  16.7500  39.7500 Du        
  22485 ****         9.0000  16.7500  40.0000 Du        
  22486 ****         9.0000  16.7500  40.2500 Du        
  22487 ****         9.0000  16.7500  40.5000 Du        
  22488 ****         9.0000  16.7500  40.7500 Du        
  22489 ****         9.0000  16.7500  41.0000 Du        
  22490 ****         9.0000  16.7500  41.2500 Du        
  22491 ****         9.0000  17.0000  37.5000 Du        
  22492 ****         9.0000  17.0000  37.7500 Du        
  22493 ****         9.0000  17.0000  38.0000 Du        
  22494 ****         9.0000  17.0000  38.2500 Du        
  22495 ****         9.0000  17.0000  38.5000 Du        
  22496 ****         9.0000  17.0000  38.7500 Du        
  22497 ****         9.0000  17.0000  39.0000 Du        
  22498 ****         9.0000  17.0000  39.2500 Du        
  22499 ****         9.0000  17.0000  39.7500 Du        
  22500 ****         9.0000  17.0000  40.0000 Du        
  22501 ****         9.0000  17.0000  40.2500 Du        
  22502 ****         9.0000  17.0000  40.5000 Du        
  22503 ****         9.0000  17.0000  40.7500 Du        
  22504 ****         9.0000  17.0000  41.0000 Du        
  22505 ****         9.0000  17.0000  41.2500 Du        
  22506 ****         9.0000  17.2500  37.5000 Du        
  22507 ****         9.0000  17.2500  37.7500 Du        
  22508 ****         9.0000  17.2500  38.0000 Du        
  22509 ****         9.0000  17.2500  38.2500 Du        
  22510 ****         9.0000  17.2500  38.5000 Du        
  22511 ****         9.0000  17.2500  38.7500 Du        
  22512 ****         9.0000  17.2500  39.0000 Du        
  22513 ****         9.0000  17.2500  39.2500 Du        
  22514 ****         9.0000  17.5000  37.7500 Du        
  22515 ****         9.0000  17.5000  38.0000 Du        
  22516 ****         9.0000  17.5000  38.2500 Du        
  22517 ****         9.0000  17.5000  38.5000 Du        
  22518 ****         9.0000  17.5000  38.7500 Du        
  22519 ****         9.0000  17.5000  39.0000 Du        
  22520 ****         9.0000  17.5000  39.2500 Du        
  22521 ****         9.0000  17.7500  37.5000 Du        
  22522 ****         9.0000  17.7500  37.7500 Du        
  22523 ****         9.0000  17.7500  38.0000 Du        
  22524 ****         9.0000  17.7500  38.2500 Du        
  22525 ****         9.0000  17.7500  38.5000 Du        
  22526 ****         9.0000  17.7500  38.7500 Du        
  22527 ****         9.0000  17.7500  39.0000 Du        
  22528 ****         9.0000  18.0000  37.5000 Du        
  22529 ****         9.0000  18.0000  37.7500 Du        
  22530 ****         9.0000  18.0000  38.0000 Du        
  22531 ****         9.0000  18.0000  38.2500 Du        
  22532 ****         9.0000  18.0000  38.5000 Du        
  22533 ****         9.0000  18.0000  38.7500 Du        
  22534 ****         9.0000  18.0000  39.0000 Du        
  22535 ****         9.0000  18.2500  37.5000 Du        
  22536 ****         9.0000  18.2500  37.7500 Du        
  22537 ****         9.0000  18.2500  38.0000 Du        
  22538 ****         9.0000  18.2500  38.2500 Du        
  22539 ****         9.0000  18.2500  38.5000 Du        
  22540 ****         9.0000  18.2500  38.7500 Du        
  22541 ****         9.0000  18.2500  39.0000 Du        
  22542 ****         9.0000  18.5000  37.2500 Du        
  22543 ****         9.0000  18.5000  37.5000 Du        
  22544 ****         9.0000  18.5000  37.7500 Du        
  22545 ****         9.0000  18.5000  38.0000 Du        
  22546 ****         9.0000  18.5000  38.2500 Du        
  22547 ****         9.0000  18.5000  38.5000 Du        
  22548 ****         9.0000  18.5000  38.7500 Du        
  22549 ****         9.0000  18.7500  37.2500 Du        
  22550 ****         9.0000  18.7500  37.5000 Du        
  22551 ****         9.0000  18.7500  37.7500 Du        
  22552 ****         9.0000  18.7500  38.0000 Du        
  22553 ****         9.0000  18.7500  38.2500 Du        
  22554 ****         9.0000  18.7500  38.5000 Du        
  22555 ****         9.0000  18.7500  38.7500 Du        
  22556 ****         9.0000  19.0000  37.2500 Du        
  22557 ****         9.0000  19.0000  37.5000 Du        
  22558 ****         9.0000  19.0000  37.7500 Du        
  22559 ****         9.0000  19.0000  38.0000 Du        
  22560 ****         9.0000  19.0000  38.2500 Du        
  22561 ****         9.0000  19.0000  38.5000 Du        
  22562 ****         9.0000  19.0000  38.7500 Du        
  22563 ****         9.0000  19.2500  37.7500 Du        
  22564 ****         9.0000  19.2500  38.0000 Du        
  22565 ****         9.0000  19.2500  38.2500 Du        
  22566 ****         9.0000  19.2500  38.5000 Du        
  22567 ****         9.0000  19.2500  38.7500 Du        
  22568 ****         9.0000  19.5000  38.0000 Du        
  22569 ****         9.0000  19.5000  38.2500 Du        
  22570 ****         9.2500  -3.5000  26.5000 Du        
  22571 ****         9.2500  -3.2500  26.2500 Du        
  22572 ****         9.2500  -3.2500  26.5000 Du        
  22573 ****         9.2500  -3.2500  26.7500 Du        
  22574 ****         9.2500  -3.0000  26.2500 Du        
  22575 ****         9.2500  -3.0000  26.5000 Du        
  22576 ****         9.2500  -3.0000  26.7500 Du        
  22577 ****         9.2500  -2.7500  26.5000 Du        
  22578 ****         9.2500  -2.7500  26.7500 Du        
  22579 ****         9.2500   5.0000  24.5000 Du        
  22580 ****         9.2500   5.2500  24.5000 Du        
  22581 ****         9.2500   5.5000  24.0000 Du        
  22582 ****         9.2500   5.5000  24.2500 Du        
  22583 ****         9.2500   5.5000  24.5000 Du        
  22584 ****         9.2500   5.7500  23.7500 Du        
  22585 ****         9.2500   5.7500  24.0000 Du        
  22586 ****         9.2500   5.7500  24.2500 Du        
  22587 ****         9.2500   5.7500  24.5000 Du        
  22588 ****         9.2500   5.7500  24.7500 Du        
  22589 ****         9.2500   6.0000  24.0000 Du        
  22590 ****         9.2500   6.0000  24.2500 Du        
  22591 ****         9.2500   6.0000  24.5000 Du        
  22592 ****         9.2500   6.0000  24.7500 Du        
  22593 ****         9.2500   6.2500  24.0000 Du        
  22594 ****         9.2500   6.2500  24.2500 Du        
  22595 ****         9.2500   6.2500  24.5000 Du        
  22596 ****         9.2500   6.2500  24.7500 Du        
  22597 ****         9.2500   6.5000  24.5000 Du        
  22598 ****         9.2500   9.0000  36.2500 Du        
  22599 ****         9.2500   9.0000  36.5000 Du        
  22600 ****         9.2500   9.2500  36.0000 Du        
  22601 ****         9.2500   9.2500  36.2500 Du        
  22602 ****         9.2500   9.2500  36.5000 Du        
  22603 ****         9.2500   9.5000  35.7500 Du        
  22604 ****         9.2500   9.5000  36.0000 Du        
  22605 ****         9.2500   9.5000  36.2500 Du        
  22606 ****         9.2500   9.5000  36.5000 Du        
  22607 ****         9.2500   9.7500  35.5000 Du        
  22608 ****         9.2500   9.7500  35.7500 Du        
  22609 ****         9.2500   9.7500  36.0000 Du        
  22610 ****         9.2500   9.7500  36.2500 Du        
  22611 ****         9.2500   9.7500  36.5000 Du        
  22612 ****         9.2500  10.0000  35.2500 Du        
  22613 ****         9.2500  10.0000  35.5000 Du        
  22614 ****         9.2500  10.0000  35.7500 Du        
  22615 ****         9.2500  10.0000  36.0000 Du        
  22616 ****         9.2500  10.0000  36.2500 Du        
  22617 ****         9.2500  10.2500  35.5000 Du        
  22618 ****         9.2500  10.2500  35.7500 Du        
  22619 ****         9.2500  10.2500  36.0000 Du        
  22620 ****         9.2500  10.2500  36.2500 Du        
  22621 ****         9.2500  10.5000  35.7500 Du        
  22622 ****         9.2500  10.5000  36.0000 Du        
  22623 ****         9.2500  10.5000  36.2500 Du        
  22624 ****         9.2500  12.2500  10.2500 Du        
  22625 ****         9.2500  12.2500  10.5000 Du        
  22626 ****         9.2500  12.2500  10.7500 Du        
  22627 ****         9.2500  12.2500  11.0000 Du        
  22628 ****         9.2500  12.2500  11.2500 Du        
  22629 ****         9.2500  12.2500  11.5000 Du        
  22630 ****         9.2500  12.2500  11.7500 Du        
  22631 ****         9.2500  12.5000   9.7500 Du        
  22632 ****         9.2500  12.5000  10.0000 Du        
  22633 ****         9.2500  12.5000  10.2500 Du        
  22634 ****         9.2500  12.5000  10.5000 Du        
  22635 ****         9.2500  12.5000  10.7500 Du        
  22636 ****         9.2500  12.5000  11.0000 Du        
  22637 ****         9.2500  12.5000  11.2500 Du        
  22638 ****         9.2500  12.5000  11.5000 Du        
  22639 ****         9.2500  12.5000  11.7500 Du        
  22640 ****         9.2500  12.7500   9.5000 Du        
  22641 ****         9.2500  12.7500   9.7500 Du        
  22642 ****         9.2500  12.7500  10.0000 Du        
  22643 ****         9.2500  12.7500  10.2500 Du        
  22644 ****         9.2500  12.7500  10.5000 Du        
  22645 ****         9.2500  12.7500  10.7500 Du        
  22646 ****         9.2500  12.7500  11.0000 Du        
  22647 ****         9.2500  12.7500  11.2500 Du        
  22648 ****         9.2500  12.7500  11.5000 Du        
  22649 ****         9.2500  12.7500  11.7500 Du        
  22650 ****         9.2500  13.0000   9.2500 Du        
  22651 ****         9.2500  13.0000   9.5000 Du        
  22652 ****         9.2500  13.0000   9.7500 Du        
  22653 ****         9.2500  13.0000  10.0000 Du        
  22654 ****         9.2500  13.0000  10.2500 Du        
  22655 ****         9.2500  13.0000  10.5000 Du        
  22656 ****         9.2500  13.0000  10.7500 Du        
  22657 ****         9.2500  13.0000  11.0000 Du        
  22658 ****         9.2500  13.0000  11.2500 Du        
  22659 ****         9.2500  13.0000  11.5000 Du        
  22660 ****         9.2500  13.0000  11.7500 Du        
  22661 ****         9.2500  13.2500   9.2500 Du        
  22662 ****         9.2500  13.2500   9.5000 Du        
  22663 ****         9.2500  13.2500   9.7500 Du        
  22664 ****         9.2500  13.2500  10.0000 Du        
  22665 ****         9.2500  13.2500  10.2500 Du        
  22666 ****         9.2500  13.2500  10.5000 Du        
  22667 ****         9.2500  13.2500  10.7500 Du        
  22668 ****         9.2500  13.2500  11.0000 Du        
  22669 ****         9.2500  13.2500  11.2500 Du        
  22670 ****         9.2500  13.2500  11.5000 Du        
  22671 ****         9.2500  13.2500  11.7500 Du        
  22672 ****         9.2500  13.5000   9.2500 Du        
  22673 ****         9.2500  13.5000   9.5000 Du        
  22674 ****         9.2500  13.5000   9.7500 Du        
  22675 ****         9.2500  13.5000  10.0000 Du        
  22676 ****         9.2500  13.5000  10.2500 Du        
  22677 ****         9.2500  13.5000  10.5000 Du        
  22678 ****         9.2500  13.5000  10.7500 Du        
  22679 ****         9.2500  13.5000  11.0000 Du        
  22680 ****         9.2500  13.5000  11.2500 Du        
  22681 ****         9.2500  13.5000  11.5000 Du        
  22682 ****         9.2500  13.5000  11.7500 Du        
  22683 ****         9.2500  13.7500   9.0000 Du        
  22684 ****         9.2500  13.7500   9.2500 Du        
  22685 ****         9.2500  13.7500   9.5000 Du        
  22686 ****         9.2500  13.7500   9.7500 Du        
  22687 ****         9.2500  13.7500  10.0000 Du        
  22688 ****         9.2500  13.7500  10.2500 Du        
  22689 ****         9.2500  13.7500  10.5000 Du        
  22690 ****         9.2500  13.7500  10.7500 Du        
  22691 ****         9.2500  13.7500  11.0000 Du        
  22692 ****         9.2500  13.7500  11.2500 Du        
  22693 ****         9.2500  13.7500  11.5000 Du        
  22694 ****         9.2500  13.7500  11.7500 Du        
  22695 ****         9.2500  14.0000   9.0000 Du        
  22696 ****         9.2500  14.0000   9.2500 Du        
  22697 ****         9.2500  14.0000   9.5000 Du        
  22698 ****         9.2500  14.0000   9.7500 Du        
  22699 ****         9.2500  14.0000  10.0000 Du        
  22700 ****         9.2500  14.0000  10.2500 Du        
  22701 ****         9.2500  14.0000  10.5000 Du        
  22702 ****         9.2500  14.0000  10.7500 Du        
  22703 ****         9.2500  14.0000  11.0000 Du        
  22704 ****         9.2500  14.0000  11.2500 Du        
  22705 ****         9.2500  14.0000  11.5000 Du        
  22706 ****         9.2500  14.0000  11.7500 Du        
  22707 ****         9.2500  14.2500   4.0000 Du        
  22708 ****         9.2500  14.2500   9.0000 Du        
  22709 ****         9.2500  14.2500   9.2500 Du        
  22710 ****         9.2500  14.2500   9.5000 Du        
  22711 ****         9.2500  14.2500   9.7500 Du        
  22712 ****         9.2500  14.2500  10.0000 Du        
  22713 ****         9.2500  14.2500  10.2500 Du        
  22714 ****         9.2500  14.2500  10.5000 Du        
  22715 ****         9.2500  14.2500  10.7500 Du        
  22716 ****         9.2500  14.2500  11.0000 Du        
  22717 ****         9.2500  14.2500  11.2500 Du        
  22718 ****         9.2500  14.2500  11.5000 Du        
  22719 ****         9.2500  14.5000   4.0000 Du        
  22720 ****         9.2500  14.5000   4.2500 Du        
  22721 ****         9.2500  14.5000   8.7500 Du        
  22722 ****         9.2500  14.5000   9.0000 Du        
  22723 ****         9.2500  14.5000   9.2500 Du        
  22724 ****         9.2500  14.5000   9.5000 Du        
  22725 ****         9.2500  14.5000   9.7500 Du        
  22726 ****         9.2500  14.5000  10.0000 Du        
  22727 ****         9.2500  14.5000  10.2500 Du        
  22728 ****         9.2500  14.7500   4.0000 Du        
  22729 ****         9.2500  14.7500   4.2500 Du        
  22730 ****         9.2500  14.7500   4.5000 Du        
  22731 ****         9.2500  14.7500   8.5000 Du        
  22732 ****         9.2500  14.7500   8.7500 Du        
  22733 ****         9.2500  14.7500   9.0000 Du        
  22734 ****         9.2500  14.7500   9.2500 Du        
  22735 ****         9.2500  14.7500   9.5000 Du        
  22736 ****         9.2500  14.7500   9.7500 Du        
  22737 ****         9.2500  15.0000   4.0000 Du        
  22738 ****         9.2500  15.0000   4.2500 Du        
  22739 ****         9.2500  15.0000   4.5000 Du        
  22740 ****         9.2500  15.0000   4.7500 Du        
  22741 ****         9.2500  15.0000   5.0000 Du        
  22742 ****         9.2500  15.0000   8.2500 Du        
  22743 ****         9.2500  15.0000   8.5000 Du        
  22744 ****         9.2500  15.0000   8.7500 Du        
  22745 ****         9.2500  15.0000  37.7500 Du        
  22746 ****         9.2500  15.0000  38.0000 Du        
  22747 ****         9.2500  15.2500   4.0000 Du        
  22748 ****         9.2500  15.2500   4.2500 Du        
  22749 ****         9.2500  15.2500   4.5000 Du        
  22750 ****         9.2500  15.2500   4.7500 Du        
  22751 ****         9.2500  15.2500   5.0000 Du        
  22752 ****         9.2500  15.2500   5.2500 Du        
  22753 ****         9.2500  15.2500  37.5000 Du        
  22754 ****         9.2500  15.2500  37.7500 Du        
  22755 ****         9.2500  15.2500  38.0000 Du        
  22756 ****         9.2500  15.2500  38.2500 Du        
  22757 ****         9.2500  15.2500  38.5000 Du        
  22758 ****         9.2500  15.5000   4.0000 Du        
  22759 ****         9.2500  15.5000   4.2500 Du        
  22760 ****         9.2500  15.5000   4.5000 Du        
  22761 ****         9.2500  15.5000   4.7500 Du        
  22762 ****         9.2500  15.5000   5.0000 Du        
  22763 ****         9.2500  15.5000  37.5000 Du        
  22764 ****         9.2500  15.5000  37.7500 Du        
  22765 ****         9.2500  15.5000  38.0000 Du        
  22766 ****         9.2500  15.5000  38.2500 Du        
  22767 ****         9.2500  15.5000  38.5000 Du        
  22768 ****         9.2500  15.7500   4.0000 Du        
  22769 ****         9.2500  15.7500   4.2500 Du        
  22770 ****         9.2500  15.7500   4.5000 Du        
  22771 ****         9.2500  15.7500   4.7500 Du        
  22772 ****         9.2500  15.7500  37.5000 Du        
  22773 ****         9.2500  15.7500  37.7500 Du        
  22774 ****         9.2500  15.7500  38.0000 Du        
  22775 ****         9.2500  15.7500  38.2500 Du        
  22776 ****         9.2500  15.7500  38.5000 Du        
  22777 ****         9.2500  15.7500  38.7500 Du        
  22778 ****         9.2500  15.7500  39.0000 Du        
  22779 ****         9.2500  16.0000   4.0000 Du        
  22780 ****         9.2500  16.0000   4.2500 Du        
  22781 ****         9.2500  16.0000   4.5000 Du        
  22782 ****         9.2500  16.0000  37.2500 Du        
  22783 ****         9.2500  16.0000  37.5000 Du        
  22784 ****         9.2500  16.0000  37.7500 Du        
  22785 ****         9.2500  16.0000  38.0000 Du        
  22786 ****         9.2500  16.0000  38.2500 Du        
  22787 ****         9.2500  16.0000  38.5000 Du        
  22788 ****         9.2500  16.0000  38.7500 Du        
  22789 ****         9.2500  16.0000  39.0000 Du        
  22790 ****         9.2500  16.0000  39.2500 Du        
  22791 ****         9.2500  16.2500   4.0000 Du        
  22792 ****         9.2500  16.2500  37.5000 Du        
  22793 ****         9.2500  16.2500  37.7500 Du        
  22794 ****         9.2500  16.2500  38.0000 Du        
  22795 ****         9.2500  16.2500  38.2500 Du        
  22796 ****         9.2500  16.2500  38.5000 Du        
  22797 ****         9.2500  16.2500  38.7500 Du        
  22798 ****         9.2500  16.2500  39.0000 Du        
  22799 ****         9.2500  16.2500  39.2500 Du        
  22800 ****         9.2500  16.2500  39.5000 Du        
  22801 ****         9.2500  16.2500  39.7500 Du        
  22802 ****         9.2500  16.2500  40.0000 Du        
  22803 ****         9.2500  16.2500  40.2500 Du        
  22804 ****         9.2500  16.5000  37.5000 Du        
  22805 ****         9.2500  16.5000  37.7500 Du        
  22806 ****         9.2500  16.5000  38.0000 Du        
  22807 ****         9.2500  16.5000  38.2500 Du        
  22808 ****         9.2500  16.5000  38.5000 Du        
  22809 ****         9.2500  16.5000  38.7500 Du        
  22810 ****         9.2500  16.5000  39.0000 Du        
  22811 ****         9.2500  16.5000  39.2500 Du        
  22812 ****         9.2500  16.5000  39.5000 Du        
  22813 ****         9.2500  16.5000  39.7500 Du        
  22814 ****         9.2500  16.5000  40.0000 Du        
  22815 ****         9.2500  16.7500  37.5000 Du        
  22816 ****         9.2500  16.7500  37.7500 Du        
  22817 ****         9.2500  16.7500  38.0000 Du        
  22818 ****         9.2500  16.7500  38.2500 Du        
  22819 ****         9.2500  16.7500  38.5000 Du        
  22820 ****         9.2500  16.7500  38.7500 Du        
  22821 ****         9.2500  16.7500  39.0000 Du        
  22822 ****         9.2500  16.7500  39.2500 Du        
  22823 ****         9.2500  16.7500  39.5000 Du        
  22824 ****         9.2500  16.7500  39.7500 Du        
  22825 ****         9.2500  16.7500  40.0000 Du        
  22826 ****         9.2500  16.7500  40.2500 Du        
  22827 ****         9.2500  17.0000  37.5000 Du        
  22828 ****         9.2500  17.0000  37.7500 Du        
  22829 ****         9.2500  17.0000  38.0000 Du        
  22830 ****         9.2500  17.0000  38.2500 Du        
  22831 ****         9.2500  17.0000  38.5000 Du        
  22832 ****         9.2500  17.0000  38.7500 Du        
  22833 ****         9.2500  17.0000  39.0000 Du        
  22834 ****         9.2500  17.0000  39.2500 Du        
  22835 ****         9.2500  17.0000  39.5000 Du        
  22836 ****         9.2500  17.0000  39.7500 Du        
  22837 ****         9.2500  17.0000  40.0000 Du        
  22838 ****         9.2500  17.0000  40.2500 Du        
  22839 ****         9.2500  17.0000  40.7500 Du        
  22840 ****         9.2500  17.2500  37.5000 Du        
  22841 ****         9.2500  17.2500  37.7500 Du        
  22842 ****         9.2500  17.2500  38.0000 Du        
  22843 ****         9.2500  17.2500  38.2500 Du        
  22844 ****         9.2500  17.2500  38.5000 Du        
  22845 ****         9.2500  17.2500  38.7500 Du        
  22846 ****         9.2500  17.2500  39.0000 Du        
  22847 ****         9.2500  17.2500  39.2500 Du        
  22848 ****         9.2500  17.5000  37.5000 Du        
  22849 ****         9.2500  17.5000  37.7500 Du        
  22850 ****         9.2500  17.5000  38.0000 Du        
  22851 ****         9.2500  17.5000  38.2500 Du        
  22852 ****         9.2500  17.5000  38.5000 Du        
  22853 ****         9.2500  17.5000  38.7500 Du        
  22854 ****         9.2500  17.5000  39.0000 Du        
  22855 ****         9.2500  17.7500  37.5000 Du        
  22856 ****         9.2500  17.7500  37.7500 Du        
  22857 ****         9.2500  17.7500  38.0000 Du        
  22858 ****         9.2500  17.7500  38.2500 Du        
  22859 ****         9.2500  17.7500  38.5000 Du        
  22860 ****         9.2500  17.7500  38.7500 Du        
  22861 ****         9.2500  17.7500  39.0000 Du        
  22862 ****         9.2500  18.0000  37.5000 Du        
  22863 ****         9.2500  18.0000  37.7500 Du        
  22864 ****         9.2500  18.0000  38.0000 Du        
  22865 ****         9.2500  18.0000  38.2500 Du        
  22866 ****         9.2500  18.0000  38.5000 Du        
  22867 ****         9.2500  18.0000  38.7500 Du        
  22868 ****         9.2500  18.0000  39.0000 Du        
  22869 ****         9.2500  18.2500  37.2500 Du        
  22870 ****         9.2500  18.2500  37.5000 Du        
  22871 ****         9.2500  18.2500  37.7500 Du        
  22872 ****         9.2500  18.2500  38.0000 Du        
  22873 ****         9.2500  18.2500  38.2500 Du        
  22874 ****         9.2500  18.2500  38.5000 Du        
  22875 ****         9.2500  18.2500  38.7500 Du        
  22876 ****         9.2500  18.5000  37.2500 Du        
  22877 ****         9.2500  18.5000  37.5000 Du        
  22878 ****         9.2500  18.5000  37.7500 Du        
  22879 ****         9.2500  18.5000  38.0000 Du        
  22880 ****         9.2500  18.5000  38.2500 Du        
  22881 ****         9.2500  18.5000  38.5000 Du        
  22882 ****         9.2500  18.7500  37.2500 Du        
  22883 ****         9.2500  18.7500  37.5000 Du        
  22884 ****         9.2500  18.7500  37.7500 Du        
  22885 ****         9.2500  18.7500  38.0000 Du        
  22886 ****         9.2500  18.7500  38.2500 Du        
  22887 ****         9.2500  18.7500  38.5000 Du        
  22888 ****         9.2500  18.7500  44.0000 Du        
  22889 ****         9.2500  18.7500  44.2500 Du        
  22890 ****         9.2500  18.7500  44.5000 Du        
  22891 ****         9.2500  19.0000  37.2500 Du        
  22892 ****         9.2500  19.0000  37.5000 Du        
  22893 ****         9.2500  19.0000  37.7500 Du        
  22894 ****         9.2500  19.0000  38.0000 Du        
  22895 ****         9.2500  19.0000  38.2500 Du        
  22896 ****         9.2500  19.0000  38.5000 Du        
  22897 ****         9.2500  19.0000  44.2500 Du        
  22898 ****         9.2500  19.2500  37.7500 Du        
  22899 ****         9.2500  19.2500  38.0000 Du        
  22900 ****         9.2500  19.2500  38.2500 Du        
  22901 ****         9.2500  19.2500  38.5000 Du        
  22902 ****         9.5000  -3.5000  26.5000 Du        
  22903 ****         9.5000  -3.2500  26.2500 Du        
  22904 ****         9.5000  -3.2500  26.5000 Du        
  22905 ****         9.5000  -3.2500  26.7500 Du        
  22906 ****         9.5000  -3.0000  26.0000 Du        
  22907 ****         9.5000  -3.0000  26.2500 Du        
  22908 ****         9.5000  -3.0000  26.5000 Du        
  22909 ****         9.5000  -3.0000  26.7500 Du        
  22910 ****         9.5000  -2.7500  26.5000 Du        
  22911 ****         9.5000  -2.7500  26.7500 Du        
  22912 ****         9.5000   5.7500  24.5000 Du        
  22913 ****         9.5000   6.0000  24.5000 Du        
  22914 ****         9.5000   6.0000  24.7500 Du        
  22915 ****         9.5000   6.2500  24.5000 Du        
  22916 ****         9.5000   6.2500  24.7500 Du        
  22917 ****         9.5000   6.5000  24.5000 Du        
  22918 ****         9.5000   6.5000  24.7500 Du        
  22919 ****         9.5000   6.7500  24.7500 Du        
  22920 ****         9.5000   9.2500  36.2500 Du        
  22921 ****         9.5000   9.5000  36.0000 Du        
  22922 ****         9.5000   9.5000  36.2500 Du        
  22923 ****         9.5000   9.7500  35.7500 Du        
  22924 ****         9.5000   9.7500  36.0000 Du        
  22925 ****         9.5000   9.7500  36.2500 Du        
  22926 ****         9.5000  10.0000  35.5000 Du        
  22927 ****         9.5000  10.0000  35.7500 Du        
  22928 ****         9.5000  10.0000  36.0000 Du        
  22929 ****         9.5000  10.0000  36.2500 Du        
  22930 ****         9.5000  10.2500  35.5000 Du        
  22931 ****         9.5000  10.2500  35.7500 Du        
  22932 ****         9.5000  10.2500  36.0000 Du        
  22933 ****         9.5000  10.2500  36.2500 Du        
  22934 ****         9.5000  10.5000  35.7500 Du        
  22935 ****         9.5000  10.5000  36.0000 Du        
  22936 ****         9.5000  12.2500  10.7500 Du        
  22937 ****         9.5000  12.2500  11.0000 Du        
  22938 ****         9.5000  12.2500  11.2500 Du        
  22939 ****         9.5000  12.2500  11.5000 Du        
  22940 ****         9.5000  12.2500  11.7500 Du        
  22941 ****         9.5000  12.5000   9.5000 Du        
  22942 ****         9.5000  12.5000   9.7500 Du        
  22943 ****         9.5000  12.5000  10.0000 Du        
  22944 ****         9.5000  12.5000  10.2500 Du        
  22945 ****         9.5000  12.5000  10.5000 Du        
  22946 ****         9.5000  12.5000  10.7500 Du        
  22947 ****         9.5000  12.5000  11.0000 Du        
  22948 ****         9.5000  12.5000  11.2500 Du        
  22949 ****         9.5000  12.5000  11.5000 Du        
  22950 ****         9.5000  12.5000  11.7500 Du        
  22951 ****         9.5000  12.5000  12.0000 Du        
  22952 ****         9.5000  12.7500   9.2500 Du        
  22953 ****         9.5000  12.7500   9.5000 Du        
  22954 ****         9.5000  12.7500   9.7500 Du        
  22955 ****         9.5000  12.7500  10.0000 Du        
  22956 ****         9.5000  12.7500  10.2500 Du        
  22957 ****         9.5000  12.7500  10.5000 Du        
  22958 ****         9.5000  12.7500  10.7500 Du        
  22959 ****         9.5000  12.7500  11.0000 Du        
  22960 ****         9.5000  12.7500  11.2500 Du        
  22961 ****         9.5000  12.7500  11.5000 Du        
  22962 ****         9.5000  12.7500  11.7500 Du        
  22963 ****         9.5000  12.7500  12.0000 Du        
  22964 ****         9.5000  13.0000   9.2500 Du        
  22965 ****         9.5000  13.0000   9.5000 Du        
  22966 ****         9.5000  13.0000   9.7500 Du        
  22967 ****         9.5000  13.0000  10.0000 Du        
  22968 ****         9.5000  13.0000  10.2500 Du        
  22969 ****         9.5000  13.0000  10.5000 Du        
  22970 ****         9.5000  13.0000  10.7500 Du        
  22971 ****         9.5000  13.0000  11.0000 Du        
  22972 ****         9.5000  13.0000  11.2500 Du        
  22973 ****         9.5000  13.0000  11.5000 Du        
  22974 ****         9.5000  13.0000  11.7500 Du        
  22975 ****         9.5000  13.0000  12.0000 Du        
  22976 ****         9.5000  13.2500   9.2500 Du        
  22977 ****         9.5000  13.2500   9.5000 Du        
  22978 ****         9.5000  13.2500   9.7500 Du        
  22979 ****         9.5000  13.2500  10.0000 Du        
  22980 ****         9.5000  13.2500  10.2500 Du        
  22981 ****         9.5000  13.2500  10.5000 Du        
  22982 ****         9.5000  13.2500  10.7500 Du        
  22983 ****         9.5000  13.2500  11.0000 Du        
  22984 ****         9.5000  13.2500  11.2500 Du        
  22985 ****         9.5000  13.2500  11.5000 Du        
  22986 ****         9.5000  13.2500  11.7500 Du        
  22987 ****         9.5000  13.2500  12.0000 Du        
  22988 ****         9.5000  13.5000   9.2500 Du        
  22989 ****         9.5000  13.5000   9.5000 Du        
  22990 ****         9.5000  13.5000   9.7500 Du        
  22991 ****         9.5000  13.5000  10.0000 Du        
  22992 ****         9.5000  13.5000  10.2500 Du        
  22993 ****         9.5000  13.5000  10.5000 Du        
  22994 ****         9.5000  13.5000  10.7500 Du        
  22995 ****         9.5000  13.5000  11.0000 Du        
  22996 ****         9.5000  13.5000  11.2500 Du        
  22997 ****         9.5000  13.5000  11.5000 Du        
  22998 ****         9.5000  13.5000  11.7500 Du        
  22999 ****         9.5000  13.7500   9.0000 Du        
  23000 ****         9.5000  13.7500   9.2500 Du        
  23001 ****         9.5000  13.7500   9.5000 Du        
  23002 ****         9.5000  13.7500   9.7500 Du        
  23003 ****         9.5000  13.7500  10.0000 Du        
  23004 ****         9.5000  13.7500  10.2500 Du        
  23005 ****         9.5000  13.7500  10.5000 Du        
  23006 ****         9.5000  13.7500  10.7500 Du        
  23007 ****         9.5000  13.7500  11.0000 Du        
  23008 ****         9.5000  13.7500  11.2500 Du        
  23009 ****         9.5000  13.7500  11.5000 Du        
  23010 ****         9.5000  13.7500  11.7500 Du        
  23011 ****         9.5000  13.7500  12.0000 Du        
  23012 ****         9.5000  14.0000   9.0000 Du        
  23013 ****         9.5000  14.0000   9.2500 Du        
  23014 ****         9.5000  14.0000   9.5000 Du        
  23015 ****         9.5000  14.0000   9.7500 Du        
  23016 ****         9.5000  14.0000  10.0000 Du        
  23017 ****         9.5000  14.0000  10.2500 Du        
  23018 ****         9.5000  14.0000  10.5000 Du        
  23019 ****         9.5000  14.0000  10.7500 Du        
  23020 ****         9.5000  14.0000  11.0000 Du        
  23021 ****         9.5000  14.0000  11.2500 Du        
  23022 ****         9.5000  14.0000  11.7500 Du        
  23023 ****         9.5000  14.0000  12.0000 Du        
  23024 ****         9.5000  14.2500   4.0000 Du        
  23025 ****         9.5000  14.2500   8.7500 Du        
  23026 ****         9.5000  14.2500   9.0000 Du        
  23027 ****         9.5000  14.2500   9.2500 Du        
  23028 ****         9.5000  14.2500   9.5000 Du        
  23029 ****         9.5000  14.2500   9.7500 Du        
  23030 ****         9.5000  14.2500  10.0000 Du        
  23031 ****         9.5000  14.2500  10.2500 Du        
  23032 ****         9.5000  14.5000   4.0000 Du        
  23033 ****         9.5000  14.5000   4.2500 Du        
  23034 ****         9.5000  14.5000   8.7500 Du        
  23035 ****         9.5000  14.5000   9.0000 Du        
  23036 ****         9.5000  14.5000   9.2500 Du        
  23037 ****         9.5000  14.7500   4.0000 Du        
  23038 ****         9.5000  14.7500   4.2500 Du        
  23039 ****         9.5000  14.7500   4.5000 Du        
  23040 ****         9.5000  14.7500   4.7500 Du        
  23041 ****         9.5000  15.0000   4.0000 Du        
  23042 ****         9.5000  15.0000   4.2500 Du        
  23043 ****         9.5000  15.0000   4.5000 Du        
  23044 ****         9.5000  15.0000   4.7500 Du        
  23045 ****         9.5000  15.0000   5.0000 Du        
  23046 ****         9.5000  15.2500   4.0000 Du        
  23047 ****         9.5000  15.2500   4.2500 Du        
  23048 ****         9.5000  15.2500   4.5000 Du        
  23049 ****         9.5000  15.2500   4.7500 Du        
  23050 ****         9.5000  15.2500   5.0000 Du        
  23051 ****         9.5000  15.2500   5.2500 Du        
  23052 ****         9.5000  15.2500  37.7500 Du        
  23053 ****         9.5000  15.2500  38.0000 Du        
  23054 ****         9.5000  15.5000   4.0000 Du        
  23055 ****         9.5000  15.5000   4.2500 Du        
  23056 ****         9.5000  15.5000   4.5000 Du        
  23057 ****         9.5000  15.5000   4.7500 Du        
  23058 ****         9.5000  15.5000   5.0000 Du        
  23059 ****         9.5000  15.5000  37.5000 Du        
  23060 ****         9.5000  15.5000  37.7500 Du        
  23061 ****         9.5000  15.5000  38.0000 Du        
  23062 ****         9.5000  15.5000  38.2500 Du        
  23063 ****         9.5000  15.7500   4.0000 Du        
  23064 ****         9.5000  15.7500   4.2500 Du        
  23065 ****         9.5000  15.7500   4.5000 Du        
  23066 ****         9.5000  15.7500   4.7500 Du        
  23067 ****         9.5000  15.7500  37.2500 Du        
  23068 ****         9.5000  15.7500  37.5000 Du        
  23069 ****         9.5000  15.7500  37.7500 Du        
  23070 ****         9.5000  15.7500  38.0000 Du        
  23071 ****         9.5000  15.7500  38.2500 Du        
  23072 ****         9.5000  15.7500  38.5000 Du        
  23073 ****         9.5000  15.7500  38.7500 Du        
  23074 ****         9.5000  16.0000   4.0000 Du        
  23075 ****         9.5000  16.0000   4.2500 Du        
  23076 ****         9.5000  16.0000  37.2500 Du        
  23077 ****         9.5000  16.0000  37.5000 Du        
  23078 ****         9.5000  16.0000  37.7500 Du        
  23079 ****         9.5000  16.0000  38.0000 Du        
  23080 ****         9.5000  16.0000  38.2500 Du        
  23081 ****         9.5000  16.0000  38.5000 Du        
  23082 ****         9.5000  16.0000  38.7500 Du        
  23083 ****         9.5000  16.0000  39.0000 Du        
  23084 ****         9.5000  16.2500   4.0000 Du        
  23085 ****         9.5000  16.2500  37.2500 Du        
  23086 ****         9.5000  16.2500  37.5000 Du        
  23087 ****         9.5000  16.2500  37.7500 Du        
  23088 ****         9.5000  16.2500  38.0000 Du        
  23089 ****         9.5000  16.2500  38.2500 Du        
  23090 ****         9.5000  16.2500  38.5000 Du        
  23091 ****         9.5000  16.2500  38.7500 Du        
  23092 ****         9.5000  16.2500  39.0000 Du        
  23093 ****         9.5000  16.2500  39.2500 Du        
  23094 ****         9.5000  16.5000  37.2500 Du        
  23095 ****         9.5000  16.5000  37.5000 Du        
  23096 ****         9.5000  16.5000  37.7500 Du        
  23097 ****         9.5000  16.5000  38.0000 Du        
  23098 ****         9.5000  16.5000  38.2500 Du        
  23099 ****         9.5000  16.5000  38.5000 Du        
  23100 ****         9.5000  16.5000  38.7500 Du        
  23101 ****         9.5000  16.5000  39.0000 Du        
  23102 ****         9.5000  16.5000  39.2500 Du        
  23103 ****         9.5000  16.7500  37.5000 Du        
  23104 ****         9.5000  16.7500  37.7500 Du        
  23105 ****         9.5000  16.7500  38.0000 Du        
  23106 ****         9.5000  16.7500  38.2500 Du        
  23107 ****         9.5000  16.7500  38.5000 Du        
  23108 ****         9.5000  16.7500  38.7500 Du        
  23109 ****         9.5000  16.7500  39.0000 Du        
  23110 ****         9.5000  16.7500  39.2500 Du        
  23111 ****         9.5000  17.0000  37.5000 Du        
  23112 ****         9.5000  17.0000  37.7500 Du        
  23113 ****         9.5000  17.0000  38.0000 Du        
  23114 ****         9.5000  17.0000  38.2500 Du        
  23115 ****         9.5000  17.0000  38.5000 Du        
  23116 ****         9.5000  17.0000  38.7500 Du        
  23117 ****         9.5000  17.0000  39.0000 Du        
  23118 ****         9.5000  17.0000  39.2500 Du        
  23119 ****         9.5000  17.2500  37.5000 Du        
  23120 ****         9.5000  17.2500  37.7500 Du        
  23121 ****         9.5000  17.2500  38.0000 Du        
  23122 ****         9.5000  17.2500  38.2500 Du        
  23123 ****         9.5000  17.2500  38.5000 Du        
  23124 ****         9.5000  17.2500  38.7500 Du        
  23125 ****         9.5000  17.2500  39.0000 Du        
  23126 ****         9.5000  17.2500  39.2500 Du        
  23127 ****         9.5000  17.5000  37.5000 Du        
  23128 ****         9.5000  17.5000  37.7500 Du        
  23129 ****         9.5000  17.5000  38.0000 Du        
  23130 ****         9.5000  17.5000  38.2500 Du        
  23131 ****         9.5000  17.5000  38.5000 Du        
  23132 ****         9.5000  17.5000  38.7500 Du        
  23133 ****         9.5000  17.5000  39.0000 Du        
  23134 ****         9.5000  17.7500  37.5000 Du        
  23135 ****         9.5000  17.7500  37.7500 Du        
  23136 ****         9.5000  17.7500  38.0000 Du        
  23137 ****         9.5000  17.7500  38.2500 Du        
  23138 ****         9.5000  17.7500  38.5000 Du        
  23139 ****         9.5000  17.7500  38.7500 Du        
  23140 ****         9.5000  17.7500  39.0000 Du        
  23141 ****         9.5000  18.0000  37.5000 Du        
  23142 ****         9.5000  18.0000  37.7500 Du        
  23143 ****         9.5000  18.0000  38.0000 Du        
  23144 ****         9.5000  18.0000  38.2500 Du        
  23145 ****         9.5000  18.0000  38.5000 Du        
  23146 ****         9.5000  18.0000  38.7500 Du        
  23147 ****         9.5000  18.2500  37.2500 Du        
  23148 ****         9.5000  18.2500  37.5000 Du        
  23149 ****         9.5000  18.2500  37.7500 Du        
  23150 ****         9.5000  18.2500  38.0000 Du        
  23151 ****         9.5000  18.2500  38.2500 Du        
  23152 ****         9.5000  18.2500  38.5000 Du        
  23153 ****         9.5000  18.5000  37.2500 Du        
  23154 ****         9.5000  18.5000  37.5000 Du        
  23155 ****         9.5000  18.5000  37.7500 Du        
  23156 ****         9.5000  18.5000  38.0000 Du        
  23157 ****         9.5000  18.5000  38.2500 Du        
  23158 ****         9.5000  18.7500  37.2500 Du        
  23159 ****         9.5000  18.7500  37.5000 Du        
  23160 ****         9.5000  18.7500  37.7500 Du        
  23161 ****         9.5000  18.7500  38.0000 Du        
  23162 ****         9.5000  18.7500  38.2500 Du        
  23163 ****         9.5000  18.7500  44.2500 Du        
  23164 ****         9.5000  19.0000  37.5000 Du        
  23165 ****         9.5000  19.0000  37.7500 Du        
  23166 ****         9.5000  19.0000  38.0000 Du        
  23167 ****         9.5000  19.0000  38.2500 Du        
  23168 ****         9.5000  19.0000  44.2500 Du        
  23169 ****         9.5000  19.2500  37.7500 Du        
  23170 ****         9.5000  19.2500  38.0000 Du        
  23171 ****         9.5000  19.2500  38.2500 Du        
  23172 ****         9.7500  -3.5000  26.0000 Du        
  23173 ****         9.7500  -3.5000  26.2500 Du        
  23174 ****         9.7500  -3.5000  26.5000 Du        
  23175 ****         9.7500  -3.2500  25.7500 Du        
  23176 ****         9.7500  -3.2500  26.0000 Du        
  23177 ****         9.7500  -3.2500  26.2500 Du        
  23178 ****         9.7500  -3.2500  26.5000 Du        
  23179 ****         9.7500  -3.2500  26.7500 Du        
  23180 ****         9.7500  -3.0000  26.0000 Du        
  23181 ****         9.7500  -3.0000  26.2500 Du        
  23182 ****         9.7500  -3.0000  26.5000 Du        
  23183 ****         9.7500  -3.0000  26.7500 Du        
  23184 ****         9.7500  -2.7500  26.2500 Du        
  23185 ****         9.7500  -2.7500  26.5000 Du        
  23186 ****         9.7500   6.2500  24.5000 Du        
  23187 ****         9.7500   6.5000  24.5000 Du        
  23188 ****         9.7500   6.5000  24.7500 Du        
  23189 ****         9.7500   6.7500  24.5000 Du        
  23190 ****         9.7500   6.7500  24.7500 Du        
  23191 ****         9.7500   9.7500  35.7500 Du        
  23192 ****         9.7500   9.7500  36.0000 Du        
  23193 ****         9.7500  10.0000  35.7500 Du        
  23194 ****         9.7500  10.0000  36.0000 Du        
  23195 ****         9.7500  10.2500  35.5000 Du        
  23196 ****         9.7500  10.2500  35.7500 Du        
  23197 ****         9.7500  10.2500  36.0000 Du        
  23198 ****         9.7500  10.5000  35.7500 Du        
  23199 ****         9.7500  12.2500  11.2500 Du        
  23200 ****         9.7500  12.2500  11.5000 Du        
  23201 ****         9.7500  12.2500  11.7500 Du        
  23202 ****         9.7500  12.2500  12.0000 Du        
  23203 ****         9.7500  12.5000   9.5000 Du        
  23204 ****         9.7500  12.5000   9.7500 Du        
  23205 ****         9.7500  12.5000  10.0000 Du        
  23206 ****         9.7500  12.5000  10.2500 Du        
  23207 ****         9.7500  12.5000  10.5000 Du        
  23208 ****         9.7500  12.5000  10.7500 Du        
  23209 ****         9.7500  12.5000  11.0000 Du        
  23210 ****         9.7500  12.5000  11.2500 Du        
  23211 ****         9.7500  12.5000  11.5000 Du        
  23212 ****         9.7500  12.5000  11.7500 Du        
  23213 ****         9.7500  12.5000  12.0000 Du        
  23214 ****         9.7500  12.5000  12.2500 Du        
  23215 ****         9.7500  12.7500   9.2500 Du        
  23216 ****         9.7500  12.7500   9.5000 Du        
  23217 ****         9.7500  12.7500   9.7500 Du        
  23218 ****         9.7500  12.7500  10.0000 Du        
  23219 ****         9.7500  12.7500  10.2500 Du        
  23220 ****         9.7500  12.7500  10.5000 Du        
  23221 ****         9.7500  12.7500  10.7500 Du        
  23222 ****         9.7500  12.7500  11.0000 Du        
  23223 ****         9.7500  12.7500  11.2500 Du        
  23224 ****         9.7500  12.7500  11.5000 Du        
  23225 ****         9.7500  12.7500  11.7500 Du        
  23226 ****         9.7500  12.7500  12.0000 Du        
  23227 ****         9.7500  12.7500  12.2500 Du        
  23228 ****         9.7500  13.0000   9.2500 Du        
  23229 ****         9.7500  13.0000   9.5000 Du        
  23230 ****         9.7500  13.0000   9.7500 Du        
  23231 ****         9.7500  13.0000  10.0000 Du        
  23232 ****         9.7500  13.0000  10.2500 Du        
  23233 ****         9.7500  13.0000  10.5000 Du        
  23234 ****         9.7500  13.0000  10.7500 Du        
  23235 ****         9.7500  13.0000  11.0000 Du        
  23236 ****         9.7500  13.0000  11.2500 Du        
  23237 ****         9.7500  13.0000  11.5000 Du        
  23238 ****         9.7500  13.0000  11.7500 Du        
  23239 ****         9.7500  13.0000  12.0000 Du        
  23240 ****         9.7500  13.0000  12.2500 Du        
  23241 ****         9.7500  13.2500   9.2500 Du        
  23242 ****         9.7500  13.2500   9.5000 Du        
  23243 ****         9.7500  13.2500   9.7500 Du        
  23244 ****         9.7500  13.2500  10.0000 Du        
  23245 ****         9.7500  13.2500  10.2500 Du        
  23246 ****         9.7500  13.2500  10.5000 Du        
  23247 ****         9.7500  13.2500  10.7500 Du        
  23248 ****         9.7500  13.2500  11.0000 Du        
  23249 ****         9.7500  13.2500  11.2500 Du        
  23250 ****         9.7500  13.2500  11.5000 Du        
  23251 ****         9.7500  13.2500  11.7500 Du        
  23252 ****         9.7500  13.2500  12.0000 Du        
  23253 ****         9.7500  13.2500  12.2500 Du        
  23254 ****         9.7500  13.5000   9.0000 Du        
  23255 ****         9.7500  13.5000   9.2500 Du        
  23256 ****         9.7500  13.5000   9.5000 Du        
  23257 ****         9.7500  13.5000   9.7500 Du        
  23258 ****         9.7500  13.5000  10.0000 Du        
  23259 ****         9.7500  13.5000  10.2500 Du        
  23260 ****         9.7500  13.5000  10.5000 Du        
  23261 ****         9.7500  13.5000  10.7500 Du        
  23262 ****         9.7500  13.5000  11.0000 Du        
  23263 ****         9.7500  13.5000  11.2500 Du        
  23264 ****         9.7500  13.5000  11.7500 Du        
  23265 ****         9.7500  13.5000  12.0000 Du        
  23266 ****         9.7500  13.5000  12.2500 Du        
  23267 ****         9.7500  13.7500   9.0000 Du        
  23268 ****         9.7500  13.7500   9.2500 Du        
  23269 ****         9.7500  13.7500   9.5000 Du        
  23270 ****         9.7500  13.7500   9.7500 Du        
  23271 ****         9.7500  13.7500  10.0000 Du        
  23272 ****         9.7500  13.7500  10.2500 Du        
  23273 ****         9.7500  13.7500  10.5000 Du        
  23274 ****         9.7500  13.7500  10.7500 Du        
  23275 ****         9.7500  13.7500  11.0000 Du        
  23276 ****         9.7500  13.7500  11.2500 Du        
  23277 ****         9.7500  13.7500  11.7500 Du        
  23278 ****         9.7500  13.7500  12.0000 Du        
  23279 ****         9.7500  13.7500  12.2500 Du        
  23280 ****         9.7500  14.0000   9.0000 Du        
  23281 ****         9.7500  14.0000   9.2500 Du        
  23282 ****         9.7500  14.0000   9.5000 Du        
  23283 ****         9.7500  14.0000   9.7500 Du        
  23284 ****         9.7500  14.0000  10.0000 Du        
  23285 ****         9.7500  14.0000  12.0000 Du        
  23286 ****         9.7500  14.2500   4.0000 Du        
  23287 ****         9.7500  14.2500   8.7500 Du        
  23288 ****         9.7500  14.2500   9.0000 Du        
  23289 ****         9.7500  14.2500   9.2500 Du        
  23290 ****         9.7500  14.5000   4.0000 Du        
  23291 ****         9.7500  14.5000   4.2500 Du        
  23292 ****         9.7500  14.5000   4.5000 Du        
  23293 ****         9.7500  14.7500   4.0000 Du        
  23294 ****         9.7500  14.7500   4.2500 Du        
  23295 ****         9.7500  14.7500   4.5000 Du        
  23296 ****         9.7500  14.7500   4.7500 Du        
  23297 ****         9.7500  15.0000   4.0000 Du        
  23298 ****         9.7500  15.0000   4.2500 Du        
  23299 ****         9.7500  15.0000   4.5000 Du        
  23300 ****         9.7500  15.0000   4.7500 Du        
  23301 ****         9.7500  15.0000   5.0000 Du        
  23302 ****         9.7500  15.0000   5.2500 Du        
  23303 ****         9.7500  15.2500   4.0000 Du        
  23304 ****         9.7500  15.2500   4.2500 Du        
  23305 ****         9.7500  15.2500   4.5000 Du        
  23306 ****         9.7500  15.2500   4.7500 Du        
  23307 ****         9.7500  15.2500   5.0000 Du        
  23308 ****         9.7500  15.2500   5.2500 Du        
  23309 ****         9.7500  15.5000   4.0000 Du        
  23310 ****         9.7500  15.5000   4.2500 Du        
  23311 ****         9.7500  15.5000   4.5000 Du        
  23312 ****         9.7500  15.5000   4.7500 Du        
  23313 ****         9.7500  15.5000   5.0000 Du        
  23314 ****         9.7500  15.5000  37.5000 Du        
  23315 ****         9.7500  15.5000  37.7500 Du        
  23316 ****         9.7500  15.5000  38.0000 Du        
  23317 ****         9.7500  15.7500   4.0000 Du        
  23318 ****         9.7500  15.7500   4.2500 Du        
  23319 ****         9.7500  15.7500   4.5000 Du        
  23320 ****         9.7500  15.7500   4.7500 Du        
  23321 ****         9.7500  15.7500  37.2500 Du        
  23322 ****         9.7500  15.7500  37.5000 Du        
  23323 ****         9.7500  15.7500  37.7500 Du        
  23324 ****         9.7500  15.7500  38.0000 Du        
  23325 ****         9.7500  15.7500  38.2500 Du        
  23326 ****         9.7500  15.7500  38.5000 Du        
  23327 ****         9.7500  16.0000   4.0000 Du        
  23328 ****         9.7500  16.0000   4.2500 Du        
  23329 ****         9.7500  16.0000   4.5000 Du        
  23330 ****         9.7500  16.0000  37.2500 Du        
  23331 ****         9.7500  16.0000  37.5000 Du        
  23332 ****         9.7500  16.0000  37.7500 Du        
  23333 ****         9.7500  16.0000  38.0000 Du        
  23334 ****         9.7500  16.0000  38.2500 Du        
  23335 ****         9.7500  16.0000  38.5000 Du        
  23336 ****         9.7500  16.0000  38.7500 Du        
  23337 ****         9.7500  16.2500   4.0000 Du        
  23338 ****         9.7500  16.2500  37.2500 Du        
  23339 ****         9.7500  16.2500  37.5000 Du        
  23340 ****         9.7500  16.2500  37.7500 Du        
  23341 ****         9.7500  16.2500  38.0000 Du        
  23342 ****         9.7500  16.2500  38.2500 Du        
  23343 ****         9.7500  16.2500  38.5000 Du        
  23344 ****         9.7500  16.2500  38.7500 Du        
  23345 ****         9.7500  16.2500  39.0000 Du        
  23346 ****         9.7500  16.5000  37.2500 Du        
  23347 ****         9.7500  16.5000  37.5000 Du        
  23348 ****         9.7500  16.5000  37.7500 Du        
  23349 ****         9.7500  16.5000  38.0000 Du        
  23350 ****         9.7500  16.5000  38.2500 Du        
  23351 ****         9.7500  16.5000  38.5000 Du        
  23352 ****         9.7500  16.5000  38.7500 Du        
  23353 ****         9.7500  16.5000  39.0000 Du        
  23354 ****         9.7500  16.7500  37.2500 Du        
  23355 ****         9.7500  16.7500  37.5000 Du        
  23356 ****         9.7500  16.7500  37.7500 Du        
  23357 ****         9.7500  16.7500  38.0000 Du        
  23358 ****         9.7500  16.7500  38.2500 Du        
  23359 ****         9.7500  16.7500  38.5000 Du        
  23360 ****         9.7500  16.7500  38.7500 Du        
  23361 ****         9.7500  16.7500  39.0000 Du        
  23362 ****         9.7500  16.7500  39.2500 Du        
  23363 ****         9.7500  17.0000  37.5000 Du        
  23364 ****         9.7500  17.0000  37.7500 Du        
  23365 ****         9.7500  17.0000  38.0000 Du        
  23366 ****         9.7500  17.0000  38.2500 Du        
  23367 ****         9.7500  17.0000  38.5000 Du        
  23368 ****         9.7500  17.0000  38.7500 Du        
  23369 ****         9.7500  17.0000  39.0000 Du        
  23370 ****         9.7500  17.0000  39.2500 Du        
  23371 ****         9.7500  17.2500  37.5000 Du        
  23372 ****         9.7500  17.2500  37.7500 Du        
  23373 ****         9.7500  17.2500  38.0000 Du        
  23374 ****         9.7500  17.2500  38.2500 Du        
  23375 ****         9.7500  17.2500  38.5000 Du        
  23376 ****         9.7500  17.2500  38.7500 Du        
  23377 ****         9.7500  17.2500  39.0000 Du        
  23378 ****         9.7500  17.2500  39.2500 Du        
  23379 ****         9.7500  17.5000  37.5000 Du        
  23380 ****         9.7500  17.5000  37.7500 Du        
  23381 ****         9.7500  17.5000  38.0000 Du        
  23382 ****         9.7500  17.5000  38.2500 Du        
  23383 ****         9.7500  17.5000  38.5000 Du        
  23384 ****         9.7500  17.5000  38.7500 Du        
  23385 ****         9.7500  17.5000  39.0000 Du        
  23386 ****         9.7500  17.7500  37.5000 Du        
  23387 ****         9.7500  17.7500  37.7500 Du        
  23388 ****         9.7500  17.7500  38.0000 Du        
  23389 ****         9.7500  17.7500  38.2500 Du        
  23390 ****         9.7500  17.7500  38.5000 Du        
  23391 ****         9.7500  17.7500  38.7500 Du        
  23392 ****         9.7500  18.0000  37.5000 Du        
  23393 ****         9.7500  18.0000  37.7500 Du        
  23394 ****         9.7500  18.0000  38.0000 Du        
  23395 ****         9.7500  18.0000  38.2500 Du        
  23396 ****         9.7500  18.0000  38.5000 Du        
  23397 ****         9.7500  18.2500  37.2500 Du        
  23398 ****         9.7500  18.2500  37.5000 Du        
  23399 ****         9.7500  18.2500  37.7500 Du        
  23400 ****         9.7500  18.2500  38.0000 Du        
  23401 ****         9.7500  18.2500  38.2500 Du        
  23402 ****         9.7500  18.5000  37.2500 Du        
  23403 ****         9.7500  18.5000  37.5000 Du        
  23404 ****         9.7500  18.5000  37.7500 Du        
  23405 ****         9.7500  18.5000  38.0000 Du        
  23406 ****         9.7500  18.5000  38.2500 Du        
  23407 ****         9.7500  18.7500  37.2500 Du        
  23408 ****         9.7500  18.7500  37.5000 Du        
  23409 ****         9.7500  18.7500  37.7500 Du        
  23410 ****         9.7500  18.7500  38.0000 Du        
  23411 ****         9.7500  18.7500  38.2500 Du        
  23412 ****         9.7500  18.7500  44.2500 Du        
  23413 ****         9.7500  19.0000  37.5000 Du        
  23414 ****         9.7500  19.0000  37.7500 Du        
  23415 ****         9.7500  19.0000  38.0000 Du        
  23416 ****         9.7500  19.0000  38.2500 Du        
  23417 ****         9.7500  19.0000  44.0000 Du        
  23418 ****         9.7500  19.0000  44.2500 Du        
  23419 ****         9.7500  19.2500  37.7500 Du        
  23420 ****         9.7500  19.2500  38.0000 Du        
  23421 ****         9.7500  19.2500  38.2500 Du        
  23422 ****        10.0000  -3.5000  26.0000 Du        
  23423 ****        10.0000  -3.5000  26.2500 Du        
  23424 ****        10.0000  -3.5000  26.5000 Du        
  23425 ****        10.0000  -3.2500  25.7500 Du        
  23426 ****        10.0000  -3.2500  26.0000 Du        
  23427 ****        10.0000  -3.2500  26.2500 Du        
  23428 ****        10.0000  -3.2500  26.5000 Du        
  23429 ****        10.0000  -3.0000  25.7500 Du        
  23430 ****        10.0000  -3.0000  26.0000 Du        
  23431 ****        10.0000  -3.0000  26.2500 Du        
  23432 ****        10.0000  -3.0000  26.5000 Du        
  23433 ****        10.0000  -3.0000  26.7500 Du        
  23434 ****        10.0000  -2.7500  26.0000 Du        
  23435 ****        10.0000  -2.7500  26.2500 Du        
  23436 ****        10.0000  -2.7500  26.5000 Du        
  23437 ****        10.0000   6.5000  24.5000 Du        
  23438 ****        10.0000   6.7500  24.7500 Du        
  23439 ****        10.0000   6.7500  25.0000 Du        
  23440 ****        10.0000  10.0000  35.7500 Du        
  23441 ****        10.0000  10.2500  35.7500 Du        
  23442 ****        10.0000  12.2500  11.7500 Du        
  23443 ****        10.0000  12.2500  12.0000 Du        
  23444 ****        10.0000  12.5000   9.2500 Du        
  23445 ****        10.0000  12.5000   9.5000 Du        
  23446 ****        10.0000  12.5000   9.7500 Du        
  23447 ****        10.0000  12.5000  10.0000 Du        
  23448 ****        10.0000  12.5000  10.2500 Du        
  23449 ****        10.0000  12.5000  10.5000 Du        
  23450 ****        10.0000  12.5000  10.7500 Du        
  23451 ****        10.0000  12.5000  11.0000 Du        
  23452 ****        10.0000  12.5000  11.2500 Du        
  23453 ****        10.0000  12.5000  11.5000 Du        
  23454 ****        10.0000  12.5000  11.7500 Du        
  23455 ****        10.0000  12.5000  12.0000 Du        
  23456 ****        10.0000  12.5000  12.2500 Du        
  23457 ****        10.0000  12.7500   9.2500 Du        
  23458 ****        10.0000  12.7500   9.5000 Du        
  23459 ****        10.0000  12.7500   9.7500 Du        
  23460 ****        10.0000  12.7500  10.0000 Du        
  23461 ****        10.0000  12.7500  10.2500 Du        
  23462 ****        10.0000  12.7500  10.5000 Du        
  23463 ****        10.0000  12.7500  10.7500 Du        
  23464 ****        10.0000  12.7500  11.0000 Du        
  23465 ****        10.0000  12.7500  11.2500 Du        
  23466 ****        10.0000  12.7500  11.5000 Du        
  23467 ****        10.0000  12.7500  11.7500 Du        
  23468 ****        10.0000  12.7500  12.0000 Du        
  23469 ****        10.0000  12.7500  12.2500 Du        
  23470 ****        10.0000  13.0000   9.2500 Du        
  23471 ****        10.0000  13.0000   9.5000 Du        
  23472 ****        10.0000  13.0000   9.7500 Du        
  23473 ****        10.0000  13.0000  10.0000 Du        
  23474 ****        10.0000  13.0000  10.2500 Du        
  23475 ****        10.0000  13.0000  10.5000 Du        
  23476 ****        10.0000  13.0000  10.7500 Du        
  23477 ****        10.0000  13.0000  11.0000 Du        
  23478 ****        10.0000  13.0000  11.2500 Du        
  23479 ****        10.0000  13.0000  11.5000 Du        
  23480 ****        10.0000  13.0000  11.7500 Du        
  23481 ****        10.0000  13.0000  12.0000 Du        
  23482 ****        10.0000  13.0000  12.2500 Du        
  23483 ****        10.0000  13.2500   9.0000 Du        
  23484 ****        10.0000  13.2500   9.2500 Du        
  23485 ****        10.0000  13.2500   9.5000 Du        
  23486 ****        10.0000  13.2500   9.7500 Du        
  23487 ****        10.0000  13.2500  10.0000 Du        
  23488 ****        10.0000  13.2500  10.2500 Du        
  23489 ****        10.0000  13.2500  10.5000 Du        
  23490 ****        10.0000  13.2500  10.7500 Du        
  23491 ****        10.0000  13.2500  11.0000 Du        
  23492 ****        10.0000  13.2500  11.2500 Du        
  23493 ****        10.0000  13.2500  11.5000 Du        
  23494 ****        10.0000  13.2500  11.7500 Du        
  23495 ****        10.0000  13.2500  12.0000 Du        
  23496 ****        10.0000  13.2500  12.2500 Du        
  23497 ****        10.0000  13.2500  12.5000 Du        
  23498 ****        10.0000  13.5000   9.0000 Du        
  23499 ****        10.0000  13.5000   9.2500 Du        
  23500 ****        10.0000  13.5000   9.5000 Du        
  23501 ****        10.0000  13.5000   9.7500 Du        
  23502 ****        10.0000  13.5000  10.0000 Du        
  23503 ****        10.0000  13.5000  10.2500 Du        
  23504 ****        10.0000  13.5000  12.0000 Du        
  23505 ****        10.0000  13.5000  12.2500 Du        
  23506 ****        10.0000  13.7500   9.0000 Du        
  23507 ****        10.0000  13.7500   9.2500 Du        
  23508 ****        10.0000  13.7500   9.5000 Du        
  23509 ****        10.0000  13.7500   9.7500 Du        
  23510 ****        10.0000  13.7500  10.0000 Du        
  23511 ****        10.0000  13.7500  12.2500 Du        
  23512 ****        10.0000  14.0000   8.7500 Du        
  23513 ****        10.0000  14.0000   9.0000 Du        
  23514 ****        10.0000  14.0000   9.2500 Du        
  23515 ****        10.0000  14.2500   4.0000 Du        
  23516 ****        10.0000  14.2500   4.2500 Du        
  23517 ****        10.0000  14.5000   4.0000 Du        
  23518 ****        10.0000  14.5000   4.2500 Du        
  23519 ****        10.0000  14.5000   4.5000 Du        
  23520 ****        10.0000  14.7500   4.0000 Du        
  23521 ****        10.0000  14.7500   4.2500 Du        
  23522 ****        10.0000  14.7500   4.5000 Du        
  23523 ****        10.0000  14.7500   4.7500 Du        
  23524 ****        10.0000  15.0000   4.0000 Du        
  23525 ****        10.0000  15.0000   4.2500 Du        
  23526 ****        10.0000  15.0000   4.5000 Du        
  23527 ****        10.0000  15.0000   4.7500 Du        
  23528 ****        10.0000  15.0000   5.0000 Du        
  23529 ****        10.0000  15.0000   5.2500 Du        
  23530 ****        10.0000  15.2500   4.0000 Du        
  23531 ****        10.0000  15.2500   4.2500 Du        
  23532 ****        10.0000  15.2500   4.5000 Du        
  23533 ****        10.0000  15.2500   4.7500 Du        
  23534 ****        10.0000  15.2500   5.0000 Du        
  23535 ****        10.0000  15.2500   5.2500 Du        
  23536 ****        10.0000  15.5000   4.0000 Du        
  23537 ****        10.0000  15.5000   4.2500 Du        
  23538 ****        10.0000  15.5000   4.5000 Du        
  23539 ****        10.0000  15.5000   4.7500 Du        
  23540 ****        10.0000  15.5000   5.0000 Du        
  23541 ****        10.0000  15.5000  37.7500 Du        
  23542 ****        10.0000  15.7500   4.0000 Du        
  23543 ****        10.0000  15.7500   4.2500 Du        
  23544 ****        10.0000  15.7500   4.5000 Du        
  23545 ****        10.0000  15.7500   4.7500 Du        
  23546 ****        10.0000  15.7500  37.2500 Du        
  23547 ****        10.0000  15.7500  37.5000 Du        
  23548 ****        10.0000  15.7500  37.7500 Du        
  23549 ****        10.0000  15.7500  38.0000 Du        
  23550 ****        10.0000  15.7500  38.2500 Du        
  23551 ****        10.0000  16.0000   4.0000 Du        
  23552 ****        10.0000  16.0000   4.2500 Du        
  23553 ****        10.0000  16.0000   4.5000 Du        
  23554 ****        10.0000  16.0000  37.2500 Du        
  23555 ****        10.0000  16.0000  37.5000 Du        
  23556 ****        10.0000  16.0000  37.7500 Du        
  23557 ****        10.0000  16.0000  38.0000 Du        
  23558 ****        10.0000  16.0000  38.2500 Du        
  23559 ****        10.0000  16.0000  38.5000 Du        
  23560 ****        10.0000  16.2500   4.0000 Du        
  23561 ****        10.0000  16.2500  37.2500 Du        
  23562 ****        10.0000  16.2500  37.5000 Du        
  23563 ****        10.0000  16.2500  37.7500 Du        
  23564 ****        10.0000  16.2500  38.0000 Du        
  23565 ****        10.0000  16.2500  38.2500 Du        
  23566 ****        10.0000  16.2500  38.5000 Du        
  23567 ****        10.0000  16.2500  38.7500 Du        
  23568 ****        10.0000  16.5000  37.2500 Du        
  23569 ****        10.0000  16.5000  37.5000 Du        
  23570 ****        10.0000  16.5000  37.7500 Du        
  23571 ****        10.0000  16.5000  38.0000 Du        
  23572 ****        10.0000  16.5000  38.2500 Du        
  23573 ****        10.0000  16.5000  38.5000 Du        
  23574 ****        10.0000  16.5000  38.7500 Du        
  23575 ****        10.0000  16.5000  39.0000 Du        
  23576 ****        10.0000  16.7500  37.2500 Du        
  23577 ****        10.0000  16.7500  37.5000 Du        
  23578 ****        10.0000  16.7500  37.7500 Du        
  23579 ****        10.0000  16.7500  38.0000 Du        
  23580 ****        10.0000  16.7500  38.2500 Du        
  23581 ****        10.0000  16.7500  38.5000 Du        
  23582 ****        10.0000  16.7500  38.7500 Du        
  23583 ****        10.0000  16.7500  39.0000 Du        
  23584 ****        10.0000  17.0000  37.2500 Du        
  23585 ****        10.0000  17.0000  37.5000 Du        
  23586 ****        10.0000  17.0000  37.7500 Du        
  23587 ****        10.0000  17.0000  38.0000 Du        
  23588 ****        10.0000  17.0000  38.2500 Du        
  23589 ****        10.0000  17.0000  38.5000 Du        
  23590 ****        10.0000  17.0000  38.7500 Du        
  23591 ****        10.0000  17.0000  39.0000 Du        
  23592 ****        10.0000  17.2500  37.2500 Du        
  23593 ****        10.0000  17.2500  37.5000 Du        
  23594 ****        10.0000  17.2500  37.7500 Du        
  23595 ****        10.0000  17.2500  38.0000 Du        
  23596 ****        10.0000  17.2500  38.2500 Du        
  23597 ****        10.0000  17.2500  38.5000 Du        
  23598 ****        10.0000  17.2500  38.7500 Du        
  23599 ****        10.0000  17.2500  39.0000 Du        
  23600 ****        10.0000  17.5000  37.5000 Du        
  23601 ****        10.0000  17.5000  37.7500 Du        
  23602 ****        10.0000  17.5000  38.0000 Du        
  23603 ****        10.0000  17.5000  38.2500 Du        
  23604 ****        10.0000  17.5000  38.5000 Du        
  23605 ****        10.0000  17.5000  38.7500 Du        
  23606 ****        10.0000  17.5000  39.0000 Du        
  23607 ****        10.0000  17.7500  37.5000 Du        
  23608 ****        10.0000  17.7500  37.7500 Du        
  23609 ****        10.0000  17.7500  38.0000 Du        
  23610 ****        10.0000  17.7500  38.2500 Du        
  23611 ****        10.0000  17.7500  38.5000 Du        
  23612 ****        10.0000  17.7500  38.7500 Du        
  23613 ****        10.0000  18.0000  37.2500 Du        
  23614 ****        10.0000  18.0000  37.5000 Du        
  23615 ****        10.0000  18.0000  37.7500 Du        
  23616 ****        10.0000  18.0000  38.0000 Du        
  23617 ****        10.0000  18.0000  38.2500 Du        
  23618 ****        10.0000  18.0000  38.5000 Du        
  23619 ****        10.0000  18.2500  37.2500 Du        
  23620 ****        10.0000  18.2500  37.5000 Du        
  23621 ****        10.0000  18.2500  37.7500 Du        
  23622 ****        10.0000  18.2500  38.0000 Du        
  23623 ****        10.0000  18.2500  38.2500 Du        
  23624 ****        10.0000  18.5000  37.2500 Du        
  23625 ****        10.0000  18.5000  37.5000 Du        
  23626 ****        10.0000  18.5000  37.7500 Du        
  23627 ****        10.0000  18.5000  38.0000 Du        
  23628 ****        10.0000  18.7500  37.2500 Du        
  23629 ****        10.0000  18.7500  37.5000 Du        
  23630 ****        10.0000  18.7500  37.7500 Du        
  23631 ****        10.0000  18.7500  38.0000 Du        
  23632 ****        10.0000  19.0000  37.2500 Du        
  23633 ****        10.0000  19.0000  37.5000 Du        
  23634 ****        10.0000  19.0000  37.7500 Du        
  23635 ****        10.0000  19.0000  38.0000 Du        
  23636 ****        10.0000  19.0000  44.0000 Du        
  23637 ****        10.0000  19.0000  44.2500 Du        
  23638 ****        10.0000  19.2500  44.2500 Du        
  23639 ****        10.2500  -3.7500  26.0000 Du        
  23640 ****        10.2500  -3.5000  25.7500 Du        
  23641 ****        10.2500  -3.5000  26.0000 Du        
  23642 ****        10.2500  -3.5000  26.2500 Du        
  23643 ****        10.2500  -3.5000  26.5000 Du        
  23644 ****        10.2500  -3.2500  25.5000 Du        
  23645 ****        10.2500  -3.2500  25.7500 Du        
  23646 ****        10.2500  -3.2500  26.0000 Du        
  23647 ****        10.2500  -3.2500  26.2500 Du        
  23648 ****        10.2500  -3.2500  26.5000 Du        
  23649 ****        10.2500  -3.0000  25.5000 Du        
  23650 ****        10.2500  -3.0000  25.7500 Du        
  23651 ****        10.2500  -3.0000  26.0000 Du        
  23652 ****        10.2500  -3.0000  26.2500 Du        
  23653 ****        10.2500  -3.0000  26.5000 Du        
  23654 ****        10.2500  -2.7500  25.7500 Du        
  23655 ****        10.2500  -2.7500  26.0000 Du        
  23656 ****        10.2500  -2.7500  26.2500 Du        
  23657 ****        10.2500   6.7500  24.7500 Du        
  23658 ****        10.2500   7.0000  25.0000 Du        
  23659 ****        10.2500  12.5000   9.2500 Du        
  23660 ****        10.2500  12.5000   9.5000 Du        
  23661 ****        10.2500  12.5000   9.7500 Du        
  23662 ****        10.2500  12.5000  10.0000 Du        
  23663 ****        10.2500  12.5000  10.2500 Du        
  23664 ****        10.2500  12.5000  11.0000 Du        
  23665 ****        10.2500  12.5000  11.2500 Du        
  23666 ****        10.2500  12.5000  11.7500 Du        
  23667 ****        10.2500  12.5000  12.0000 Du        
  23668 ****        10.2500  12.5000  12.2500 Du        
  23669 ****        10.2500  12.7500   9.0000 Du        
  23670 ****        10.2500  12.7500   9.2500 Du        
  23671 ****        10.2500  12.7500   9.5000 Du        
  23672 ****        10.2500  12.7500   9.7500 Du        
  23673 ****        10.2500  12.7500  10.0000 Du        
  23674 ****        10.2500  12.7500  10.2500 Du        
  23675 ****        10.2500  12.7500  10.5000 Du        
  23676 ****        10.2500  12.7500  10.7500 Du        
  23677 ****        10.2500  12.7500  11.0000 Du        
  23678 ****        10.2500  12.7500  11.2500 Du        
  23679 ****        10.2500  12.7500  11.5000 Du        
  23680 ****        10.2500  12.7500  11.7500 Du        
  23681 ****        10.2500  12.7500  12.0000 Du        
  23682 ****        10.2500  12.7500  12.2500 Du        
  23683 ****        10.2500  12.7500  12.5000 Du        
  23684 ****        10.2500  12.7500  12.7500 Du        
  23685 ****        10.2500  12.7500  13.0000 Du        
  23686 ****        10.2500  13.0000   9.0000 Du        
  23687 ****        10.2500  13.0000   9.2500 Du        
  23688 ****        10.2500  13.0000   9.5000 Du        
  23689 ****        10.2500  13.0000   9.7500 Du        
  23690 ****        10.2500  13.0000  10.0000 Du        
  23691 ****        10.2500  13.0000  10.2500 Du        
  23692 ****        10.2500  13.0000  10.5000 Du        
  23693 ****        10.2500  13.0000  10.7500 Du        
  23694 ****        10.2500  13.0000  11.0000 Du        
  23695 ****        10.2500  13.0000  11.2500 Du        
  23696 ****        10.2500  13.0000  11.5000 Du        
  23697 ****        10.2500  13.0000  11.7500 Du        
  23698 ****        10.2500  13.0000  12.0000 Du        
  23699 ****        10.2500  13.0000  12.2500 Du        
  23700 ****        10.2500  13.0000  12.5000 Du        
  23701 ****        10.2500  13.0000  12.7500 Du        
  23702 ****        10.2500  13.0000  13.0000 Du        
  23703 ****        10.2500  13.0000  13.2500 Du        
  23704 ****        10.2500  13.2500   9.0000 Du        
  23705 ****        10.2500  13.2500   9.2500 Du        
  23706 ****        10.2500  13.2500   9.5000 Du        
  23707 ****        10.2500  13.2500   9.7500 Du        
  23708 ****        10.2500  13.2500  10.0000 Du        
  23709 ****        10.2500  13.2500  10.2500 Du        
  23710 ****        10.2500  13.2500  10.5000 Du        
  23711 ****        10.2500  13.2500  10.7500 Du        
  23712 ****        10.2500  13.2500  11.2500 Du        
  23713 ****        10.2500  13.2500  11.7500 Du        
  23714 ****        10.2500  13.2500  12.0000 Du        
  23715 ****        10.2500  13.2500  12.2500 Du        
  23716 ****        10.2500  13.2500  12.5000 Du        
  23717 ****        10.2500  13.2500  12.7500 Du        
  23718 ****        10.2500  13.2500  13.0000 Du        
  23719 ****        10.2500  13.5000   9.0000 Du        
  23720 ****        10.2500  13.5000   9.2500 Du        
  23721 ****        10.2500  13.5000   9.5000 Du        
  23722 ****        10.2500  13.5000   9.7500 Du        
  23723 ****        10.2500  13.5000  10.0000 Du        
  23724 ****        10.2500  13.5000  13.0000 Du        
  23725 ****        10.2500  13.7500   9.0000 Du        
  23726 ****        10.2500  13.7500   9.2500 Du        
  23727 ****        10.2500  14.0000   9.0000 Du        
  23728 ****        10.2500  14.2500   4.0000 Du        
  23729 ****        10.2500  14.2500   4.2500 Du        
  23730 ****        10.2500  14.5000   4.0000 Du        
  23731 ****        10.2500  14.5000   4.2500 Du        
  23732 ****        10.2500  14.5000   4.5000 Du        
  23733 ****        10.2500  14.7500   4.0000 Du        
  23734 ****        10.2500  14.7500   4.2500 Du        
  23735 ****        10.2500  14.7500   4.5000 Du        
  23736 ****        10.2500  14.7500   4.7500 Du        
  23737 ****        10.2500  14.7500   5.0000 Du        
  23738 ****        10.2500  15.0000   4.0000 Du        
  23739 ****        10.2500  15.0000   4.2500 Du        
  23740 ****        10.2500  15.0000   4.5000 Du        
  23741 ****        10.2500  15.0000   4.7500 Du        
  23742 ****        10.2500  15.0000   5.0000 Du        
  23743 ****        10.2500  15.0000   5.2500 Du        
  23744 ****        10.2500  15.0000   5.5000 Du        
  23745 ****        10.2500  15.2500   4.0000 Du        
  23746 ****        10.2500  15.2500   4.2500 Du        
  23747 ****        10.2500  15.2500   4.5000 Du        
  23748 ****        10.2500  15.2500   4.7500 Du        
  23749 ****        10.2500  15.2500   5.0000 Du        
  23750 ****        10.2500  15.2500   5.2500 Du        
  23751 ****        10.2500  15.2500   5.5000 Du        
  23752 ****        10.2500  15.5000   4.0000 Du        
  23753 ****        10.2500  15.5000   4.2500 Du        
  23754 ****        10.2500  15.5000   4.5000 Du        
  23755 ****        10.2500  15.5000   4.7500 Du        
  23756 ****        10.2500  15.5000   5.0000 Du        
  23757 ****        10.2500  15.5000   5.2500 Du        
  23758 ****        10.2500  15.7500   4.0000 Du        
  23759 ****        10.2500  15.7500   4.2500 Du        
  23760 ****        10.2500  15.7500   4.5000 Du        
  23761 ****        10.2500  15.7500   4.7500 Du        
  23762 ****        10.2500  15.7500  37.2500 Du        
  23763 ****        10.2500  15.7500  37.5000 Du        
  23764 ****        10.2500  15.7500  37.7500 Du        
  23765 ****        10.2500  15.7500  38.0000 Du        
  23766 ****        10.2500  16.0000   4.0000 Du        
  23767 ****        10.2500  16.0000   4.2500 Du        
  23768 ****        10.2500  16.0000   4.5000 Du        
  23769 ****        10.2500  16.0000  37.2500 Du        
  23770 ****        10.2500  16.0000  37.5000 Du        
  23771 ****        10.2500  16.0000  37.7500 Du        
  23772 ****        10.2500  16.0000  38.0000 Du        
  23773 ****        10.2500  16.0000  38.2500 Du        
  23774 ****        10.2500  16.2500   4.0000 Du        
  23775 ****        10.2500  16.2500  37.2500 Du        
  23776 ****        10.2500  16.2500  37.5000 Du        
  23777 ****        10.2500  16.2500  37.7500 Du        
  23778 ****        10.2500  16.2500  38.0000 Du        
  23779 ****        10.2500  16.2500  38.2500 Du        
  23780 ****        10.2500  16.2500  38.5000 Du        
  23781 ****        10.2500  16.5000  37.2500 Du        
  23782 ****        10.2500  16.5000  37.5000 Du        
  23783 ****        10.2500  16.5000  37.7500 Du        
  23784 ****        10.2500  16.5000  38.0000 Du        
  23785 ****        10.2500  16.5000  38.2500 Du        
  23786 ****        10.2500  16.5000  38.5000 Du        
  23787 ****        10.2500  16.5000  38.7500 Du        
  23788 ****        10.2500  16.7500  37.2500 Du        
  23789 ****        10.2500  16.7500  37.5000 Du        
  23790 ****        10.2500  16.7500  37.7500 Du        
  23791 ****        10.2500  16.7500  38.0000 Du        
  23792 ****        10.2500  16.7500  38.2500 Du        
  23793 ****        10.2500  16.7500  38.5000 Du        
  23794 ****        10.2500  16.7500  38.7500 Du        
  23795 ****        10.2500  16.7500  39.0000 Du        
  23796 ****        10.2500  17.0000  37.2500 Du        
  23797 ****        10.2500  17.0000  37.5000 Du        
  23798 ****        10.2500  17.0000  37.7500 Du        
  23799 ****        10.2500  17.0000  38.0000 Du        
  23800 ****        10.2500  17.0000  38.2500 Du        
  23801 ****        10.2500  17.0000  38.5000 Du        
  23802 ****        10.2500  17.0000  38.7500 Du        
  23803 ****        10.2500  17.0000  39.0000 Du        
  23804 ****        10.2500  17.2500  37.2500 Du        
  23805 ****        10.2500  17.2500  37.5000 Du        
  23806 ****        10.2500  17.2500  37.7500 Du        
  23807 ****        10.2500  17.2500  38.0000 Du        
  23808 ****        10.2500  17.2500  38.2500 Du        
  23809 ****        10.2500  17.2500  38.5000 Du        
  23810 ****        10.2500  17.2500  38.7500 Du        
  23811 ****        10.2500  17.2500  39.0000 Du        
  23812 ****        10.2500  17.5000  37.5000 Du        
  23813 ****        10.2500  17.5000  37.7500 Du        
  23814 ****        10.2500  17.5000  38.0000 Du        
  23815 ****        10.2500  17.5000  38.2500 Du        
  23816 ****        10.2500  17.5000  38.5000 Du        
  23817 ****        10.2500  17.5000  38.7500 Du        
  23818 ****        10.2500  17.7500  37.2500 Du        
  23819 ****        10.2500  17.7500  37.5000 Du        
  23820 ****        10.2500  17.7500  37.7500 Du        
  23821 ****        10.2500  17.7500  38.0000 Du        
  23822 ****        10.2500  17.7500  38.2500 Du        
  23823 ****        10.2500  17.7500  38.7500 Du        
  23824 ****        10.2500  18.0000  37.2500 Du        
  23825 ****        10.2500  18.0000  37.5000 Du        
  23826 ****        10.2500  18.0000  37.7500 Du        
  23827 ****        10.2500  18.0000  38.0000 Du        
  23828 ****        10.2500  18.0000  38.2500 Du        
  23829 ****        10.2500  18.2500  37.2500 Du        
  23830 ****        10.2500  18.2500  37.5000 Du        
  23831 ****        10.2500  18.2500  37.7500 Du        
  23832 ****        10.2500  18.2500  38.0000 Du        
  23833 ****        10.2500  18.2500  38.2500 Du        
  23834 ****        10.2500  18.5000  37.2500 Du        
  23835 ****        10.2500  18.5000  37.5000 Du        
  23836 ****        10.2500  18.5000  37.7500 Du        
  23837 ****        10.2500  18.7500  37.2500 Du        
  23838 ****        10.2500  18.7500  37.5000 Du        
  23839 ****        10.2500  18.7500  37.7500 Du        
  23840 ****        10.2500  19.0000  37.2500 Du        
  23841 ****        10.2500  19.0000  37.5000 Du        
  23842 ****        10.2500  19.0000  37.7500 Du        
  23843 ****        10.2500  19.0000  44.2500 Du        
  23844 ****        10.2500  19.2500  44.2500 Du        
  23845 ****        10.5000  -3.7500  25.7500 Du        
  23846 ****        10.5000  -3.7500  26.0000 Du        
  23847 ****        10.5000  -3.7500  26.2500 Du        
  23848 ****        10.5000  -3.5000  25.5000 Du        
  23849 ****        10.5000  -3.5000  25.7500 Du        
  23850 ****        10.5000  -3.5000  26.0000 Du        
  23851 ****        10.5000  -3.5000  26.2500 Du        
  23852 ****        10.5000  -3.5000  26.5000 Du        
  23853 ****        10.5000  -3.2500  25.5000 Du        
  23854 ****        10.5000  -3.2500  25.7500 Du        
  23855 ****        10.5000  -3.2500  26.0000 Du        
  23856 ****        10.5000  -3.2500  26.2500 Du        
  23857 ****        10.5000  -3.2500  26.5000 Du        
  23858 ****        10.5000  -3.0000  25.5000 Du        
  23859 ****        10.5000  -3.0000  25.7500 Du        
  23860 ****        10.5000  -3.0000  26.0000 Du        
  23861 ****        10.5000  -3.0000  26.2500 Du        
  23862 ****        10.5000  -3.0000  26.5000 Du        
  23863 ****        10.5000  -2.7500  25.7500 Du        
  23864 ****        10.5000  -2.7500  26.0000 Du        
  23865 ****        10.5000   7.0000  25.0000 Du        
  23866 ****        10.5000  11.7500  14.0000 Du        
  23867 ****        10.5000  12.2500  12.7500 Du        
  23868 ****        10.5000  12.2500  13.0000 Du        
  23869 ****        10.5000  12.5000   9.2500 Du        
  23870 ****        10.5000  12.5000  12.7500 Du        
  23871 ****        10.5000  12.5000  13.0000 Du        
  23872 ****        10.5000  12.5000  13.2500 Du        
  23873 ****        10.5000  12.5000  13.5000 Du        
  23874 ****        10.5000  12.5000  13.7500 Du        
  23875 ****        10.5000  12.5000  14.0000 Du        
  23876 ****        10.5000  12.5000  14.2500 Du        
  23877 ****        10.5000  12.7500   9.0000 Du        
  23878 ****        10.5000  12.7500   9.2500 Du        
  23879 ****        10.5000  12.7500   9.5000 Du        
  23880 ****        10.5000  12.7500   9.7500 Du        
  23881 ****        10.5000  12.7500  10.0000 Du        
  23882 ****        10.5000  12.7500  11.2500 Du        
  23883 ****        10.5000  12.7500  12.0000 Du        
  23884 ****        10.5000  12.7500  12.2500 Du        
  23885 ****        10.5000  12.7500  12.5000 Du        
  23886 ****        10.5000  12.7500  12.7500 Du        
  23887 ****        10.5000  12.7500  13.0000 Du        
  23888 ****        10.5000  12.7500  13.2500 Du        
  23889 ****        10.5000  12.7500  13.5000 Du        
  23890 ****        10.5000  12.7500  13.7500 Du        
  23891 ****        10.5000  12.7500  14.0000 Du        
  23892 ****        10.5000  13.0000   9.0000 Du        
  23893 ****        10.5000  13.0000   9.2500 Du        
  23894 ****        10.5000  13.0000   9.5000 Du        
  23895 ****        10.5000  13.0000   9.7500 Du        
  23896 ****        10.5000  13.0000  10.0000 Du        
  23897 ****        10.5000  13.0000  10.2500 Du        
  23898 ****        10.5000  13.0000  10.5000 Du        
  23899 ****        10.5000  13.0000  10.7500 Du        
  23900 ****        10.5000  13.0000  12.0000 Du        
  23901 ****        10.5000  13.0000  12.2500 Du        
  23902 ****        10.5000  13.0000  12.5000 Du        
  23903 ****        10.5000  13.0000  12.7500 Du        
  23904 ****        10.5000  13.0000  13.0000 Du        
  23905 ****        10.5000  13.0000  13.2500 Du        
  23906 ****        10.5000  13.0000  13.5000 Du        
  23907 ****        10.5000  13.0000  13.7500 Du        
  23908 ****        10.5000  13.2500   9.0000 Du        
  23909 ****        10.5000  13.2500   9.2500 Du        
  23910 ****        10.5000  13.2500   9.5000 Du        
  23911 ****        10.5000  13.2500   9.7500 Du        
  23912 ****        10.5000  13.2500  10.0000 Du        
  23913 ****        10.5000  13.2500  12.5000 Du        
  23914 ****        10.5000  13.2500  12.7500 Du        
  23915 ****        10.5000  13.2500  13.0000 Du        
  23916 ****        10.5000  13.2500  13.2500 Du        
  23917 ****        10.5000  13.2500  13.5000 Du        
  23918 ****        10.5000  13.5000   9.0000 Du        
  23919 ****        10.5000  13.5000   9.2500 Du        
  23920 ****        10.5000  13.5000  12.7500 Du        
  23921 ****        10.5000  13.5000  13.0000 Du        
  23922 ****        10.5000  13.5000  13.2500 Du        
  23923 ****        10.5000  13.7500   9.0000 Du        
  23924 ****        10.5000  13.7500  12.7500 Du        
  23925 ****        10.5000  13.7500  13.0000 Du        
  23926 ****        10.5000  14.0000   4.0000 Du        
  23927 ****        10.5000  14.2500   4.0000 Du        
  23928 ****        10.5000  14.2500   4.2500 Du        
  23929 ****        10.5000  14.5000   4.0000 Du        
  23930 ****        10.5000  14.5000   4.2500 Du        
  23931 ****        10.5000  14.5000   4.5000 Du        
  23932 ****        10.5000  14.5000   4.7500 Du        
  23933 ****        10.5000  14.7500   4.0000 Du        
  23934 ****        10.5000  14.7500   4.2500 Du        
  23935 ****        10.5000  14.7500   4.5000 Du        
  23936 ****        10.5000  14.7500   4.7500 Du        
  23937 ****        10.5000  14.7500   5.0000 Du        
  23938 ****        10.5000  14.7500   5.2500 Du        
  23939 ****        10.5000  15.0000   4.0000 Du        
  23940 ****        10.5000  15.0000   4.2500 Du        
  23941 ****        10.5000  15.0000   4.5000 Du        
  23942 ****        10.5000  15.0000   4.7500 Du        
  23943 ****        10.5000  15.0000   5.0000 Du        
  23944 ****        10.5000  15.0000   5.2500 Du        
  23945 ****        10.5000  15.0000   5.5000 Du        
  23946 ****        10.5000  15.2500   4.0000 Du        
  23947 ****        10.5000  15.2500   4.2500 Du        
  23948 ****        10.5000  15.2500   4.5000 Du        
  23949 ****        10.5000  15.2500   4.7500 Du        
  23950 ****        10.5000  15.2500   5.0000 Du        
  23951 ****        10.5000  15.2500   5.2500 Du        
  23952 ****        10.5000  15.2500   5.5000 Du        
  23953 ****        10.5000  15.5000   4.0000 Du        
  23954 ****        10.5000  15.5000   4.2500 Du        
  23955 ****        10.5000  15.5000   4.5000 Du        
  23956 ****        10.5000  15.5000   4.7500 Du        
  23957 ****        10.5000  15.5000   5.0000 Du        
  23958 ****        10.5000  15.5000   5.2500 Du        
  23959 ****        10.5000  15.7500   4.0000 Du        
  23960 ****        10.5000  15.7500   4.2500 Du        
  23961 ****        10.5000  15.7500   4.5000 Du        
  23962 ****        10.5000  15.7500   4.7500 Du        
  23963 ****        10.5000  15.7500  37.2500 Du        
  23964 ****        10.5000  15.7500  37.5000 Du        
  23965 ****        10.5000  15.7500  37.7500 Du        
  23966 ****        10.5000  16.0000   4.0000 Du        
  23967 ****        10.5000  16.0000   4.2500 Du        
  23968 ****        10.5000  16.0000   4.5000 Du        
  23969 ****        10.5000  16.0000  37.2500 Du        
  23970 ****        10.5000  16.0000  37.5000 Du        
  23971 ****        10.5000  16.0000  37.7500 Du        
  23972 ****        10.5000  16.0000  38.0000 Du        
  23973 ****        10.5000  16.2500   4.0000 Du        
  23974 ****        10.5000  16.2500  37.0000 Du        
  23975 ****        10.5000  16.2500  37.2500 Du        
  23976 ****        10.5000  16.2500  37.5000 Du        
  23977 ****        10.5000  16.2500  37.7500 Du        
  23978 ****        10.5000  16.2500  38.0000 Du        
  23979 ****        10.5000  16.2500  38.2500 Du        
  23980 ****        10.5000  16.5000  37.2500 Du        
  23981 ****        10.5000  16.5000  37.5000 Du        
  23982 ****        10.5000  16.5000  37.7500 Du        
  23983 ****        10.5000  16.5000  38.0000 Du        
  23984 ****        10.5000  16.5000  38.2500 Du        
  23985 ****        10.5000  16.7500  37.2500 Du        
  23986 ****        10.5000  16.7500  37.5000 Du        
  23987 ****        10.5000  16.7500  37.7500 Du        
  23988 ****        10.5000  16.7500  38.0000 Du        
  23989 ****        10.5000  16.7500  38.2500 Du        
  23990 ****        10.5000  17.0000  37.2500 Du        
  23991 ****        10.5000  17.0000  37.5000 Du        
  23992 ****        10.5000  17.0000  37.7500 Du        
  23993 ****        10.5000  17.0000  38.0000 Du        
  23994 ****        10.5000  17.0000  38.2500 Du        
  23995 ****        10.5000  17.2500  37.2500 Du        
  23996 ****        10.5000  17.2500  37.5000 Du        
  23997 ****        10.5000  17.2500  37.7500 Du        
  23998 ****        10.5000  17.2500  38.0000 Du        
  23999 ****        10.5000  17.2500  38.2500 Du        
  24000 ****        10.5000  17.5000  37.5000 Du        
  24001 ****        10.5000  17.5000  37.7500 Du        
  24002 ****        10.5000  17.5000  38.0000 Du        
  24003 ****        10.5000  17.5000  38.2500 Du        
  24004 ****        10.5000  17.7500  37.2500 Du        
  24005 ****        10.5000  17.7500  37.7500 Du        
  24006 ****        10.5000  17.7500  38.0000 Du        
  24007 ****        10.5000  17.7500  38.2500 Du        
  24008 ****        10.5000  18.0000  38.0000 Du        
  24009 ****        10.5000  18.5000  37.2500 Du        
  24010 ****        10.5000  18.7500  37.2500 Du        
  24011 ****        10.5000  19.0000  37.2500 Du        
  24012 ****        10.7500  -4.0000  25.7500 Du        
  24013 ****        10.7500  -4.0000  26.0000 Du        
  24014 ****        10.7500  -3.7500  25.5000 Du        
  24015 ****        10.7500  -3.7500  25.7500 Du        
  24016 ****        10.7500  -3.7500  26.0000 Du        
  24017 ****        10.7500  -3.7500  26.2500 Du        
  24018 ****        10.7500  -3.5000  25.2500 Du        
  24019 ****        10.7500  -3.5000  25.5000 Du        
  24020 ****        10.7500  -3.5000  25.7500 Du        
  24021 ****        10.7500  -3.5000  26.0000 Du        
  24022 ****        10.7500  -3.5000  26.2500 Du        
  24023 ****        10.7500  -3.2500  25.2500 Du        
  24024 ****        10.7500  -3.2500  25.5000 Du        
  24025 ****        10.7500  -3.2500  25.7500 Du        
  24026 ****        10.7500  -3.2500  26.0000 Du        
  24027 ****        10.7500  -3.2500  26.2500 Du        
  24028 ****        10.7500  -3.0000  25.2500 Du        
  24029 ****        10.7500  -3.0000  25.5000 Du        
  24030 ****        10.7500  -3.0000  25.7500 Du        
  24031 ****        10.7500  -3.0000  26.0000 Du        
  24032 ****        10.7500  -3.0000  26.2500 Du        
  24033 ****        10.7500  -2.7500  25.5000 Du        
  24034 ****        10.7500  -2.7500  25.7500 Du        
  24035 ****        10.7500  -2.7500  26.0000 Du        
  24036 ****        10.7500   7.2500  25.2500 Du        
  24037 ****        10.7500   7.2500  25.5000 Du        
  24038 ****        10.7500   7.5000  25.5000 Du        
  24039 ****        10.7500  10.7500  15.2500 Du        
  24040 ****        10.7500  11.0000  15.0000 Du        
  24041 ****        10.7500  11.0000  15.2500 Du        
  24042 ****        10.7500  11.2500  14.5000 Du        
  24043 ****        10.7500  11.5000  14.2500 Du        
  24044 ****        10.7500  11.5000  14.7500 Du        
  24045 ****        10.7500  11.7500  13.7500 Du        
  24046 ****        10.7500  11.7500  14.0000 Du        
  24047 ****        10.7500  11.7500  14.2500 Du        
  24048 ****        10.7500  11.7500  14.5000 Du        
  24049 ****        10.7500  11.7500  14.7500 Du        
  24050 ****        10.7500  11.7500  15.0000 Du        
  24051 ****        10.7500  12.0000  13.7500 Du        
  24052 ****        10.7500  12.0000  14.0000 Du        
  24053 ****        10.7500  12.0000  14.2500 Du        
  24054 ****        10.7500  12.0000  14.5000 Du        
  24055 ****        10.7500  12.0000  14.7500 Du        
  24056 ****        10.7500  12.0000  15.0000 Du        
  24057 ****        10.7500  12.2500  13.2500 Du        
  24058 ****        10.7500  12.2500  13.5000 Du        
  24059 ****        10.7500  12.2500  13.7500 Du        
  24060 ****        10.7500  12.2500  14.0000 Du        
  24061 ****        10.7500  12.2500  14.2500 Du        
  24062 ****        10.7500  12.2500  14.5000 Du        
  24063 ****        10.7500  12.2500  14.7500 Du        
  24064 ****        10.7500  12.5000  12.7500 Du        
  24065 ****        10.7500  12.5000  13.0000 Du        
  24066 ****        10.7500  12.5000  13.2500 Du        
  24067 ****        10.7500  12.5000  13.5000 Du        
  24068 ****        10.7500  12.5000  13.7500 Du        
  24069 ****        10.7500  12.5000  14.0000 Du        
  24070 ****        10.7500  12.5000  14.2500 Du        
  24071 ****        10.7500  12.5000  14.5000 Du        
  24072 ****        10.7500  12.5000  14.7500 Du        
  24073 ****        10.7500  12.7500   9.0000 Du        
  24074 ****        10.7500  12.7500   9.2500 Du        
  24075 ****        10.7500  12.7500   9.5000 Du        
  24076 ****        10.7500  12.7500   9.7500 Du        
  24077 ****        10.7500  12.7500  12.7500 Du        
  24078 ****        10.7500  12.7500  13.0000 Du        
  24079 ****        10.7500  12.7500  13.2500 Du        
  24080 ****        10.7500  12.7500  13.5000 Du        
  24081 ****        10.7500  12.7500  13.7500 Du        
  24082 ****        10.7500  12.7500  14.0000 Du        
  24083 ****        10.7500  12.7500  14.2500 Du        
  24084 ****        10.7500  12.7500  14.5000 Du        
  24085 ****        10.7500  12.7500  14.7500 Du        
  24086 ****        10.7500  13.0000   8.7500 Du        
  24087 ****        10.7500  13.0000   9.0000 Du        
  24088 ****        10.7500  13.0000   9.2500 Du        
  24089 ****        10.7500  13.0000   9.5000 Du        
  24090 ****        10.7500  13.0000   9.7500 Du        
  24091 ****        10.7500  13.0000  10.0000 Du        
  24092 ****        10.7500  13.0000  12.5000 Du        
  24093 ****        10.7500  13.0000  12.7500 Du        
  24094 ****        10.7500  13.0000  13.0000 Du        
  24095 ****        10.7500  13.0000  13.2500 Du        
  24096 ****        10.7500  13.0000  13.5000 Du        
  24097 ****        10.7500  13.0000  13.7500 Du        
  24098 ****        10.7500  13.0000  14.0000 Du        
  24099 ****        10.7500  13.0000  14.2500 Du        
  24100 ****        10.7500  13.0000  14.5000 Du        
  24101 ****        10.7500  13.2500   8.7500 Du        
  24102 ****        10.7500  13.2500   9.0000 Du        
  24103 ****        10.7500  13.2500   9.2500 Du        
  24104 ****        10.7500  13.2500   9.5000 Du        
  24105 ****        10.7500  13.2500   9.7500 Du        
  24106 ****        10.7500  13.2500  12.5000 Du        
  24107 ****        10.7500  13.2500  12.7500 Du        
  24108 ****        10.7500  13.2500  13.0000 Du        
  24109 ****        10.7500  13.2500  13.2500 Du        
  24110 ****        10.7500  13.2500  13.5000 Du        
  24111 ****        10.7500  13.2500  13.7500 Du        
  24112 ****        10.7500  13.2500  14.0000 Du        
  24113 ****        10.7500  13.5000   8.7500 Du        
  24114 ****        10.7500  13.5000   9.0000 Du        
  24115 ****        10.7500  13.5000   9.2500 Du        
  24116 ****        10.7500  13.5000  12.7500 Du        
  24117 ****        10.7500  13.5000  13.0000 Du        
  24118 ****        10.7500  13.5000  13.2500 Du        
  24119 ****        10.7500  13.5000  13.5000 Du        
  24120 ****        10.7500  13.5000  13.7500 Du        
  24121 ****        10.7500  13.7500   8.7500 Du        
  24122 ****        10.7500  13.7500  13.0000 Du        
  24123 ****        10.7500  13.7500  13.2500 Du        
  24124 ****        10.7500  14.0000   4.0000 Du        
  24125 ****        10.7500  14.2500   4.0000 Du        
  24126 ****        10.7500  14.2500   4.2500 Du        
  24127 ****        10.7500  14.2500   4.5000 Du        
  24128 ****        10.7500  14.5000   4.0000 Du        
  24129 ****        10.7500  14.5000   4.2500 Du        
  24130 ****        10.7500  14.5000   4.5000 Du        
  24131 ****        10.7500  14.5000   4.7500 Du        
  24132 ****        10.7500  14.5000   5.0000 Du        
  24133 ****        10.7500  14.7500   4.0000 Du        
  24134 ****        10.7500  14.7500   4.2500 Du        
  24135 ****        10.7500  14.7500   4.5000 Du        
  24136 ****        10.7500  14.7500   4.7500 Du        
  24137 ****        10.7500  14.7500   5.0000 Du        
  24138 ****        10.7500  14.7500   5.2500 Du        
  24139 ****        10.7500  14.7500   5.5000 Du        
  24140 ****        10.7500  15.0000   4.0000 Du        
  24141 ****        10.7500  15.0000   4.2500 Du        
  24142 ****        10.7500  15.0000   4.5000 Du        
  24143 ****        10.7500  15.0000   4.7500 Du        
  24144 ****        10.7500  15.0000   5.0000 Du        
  24145 ****        10.7500  15.0000   5.2500 Du        
  24146 ****        10.7500  15.0000   5.5000 Du        
  24147 ****        10.7500  15.0000   5.7500 Du        
  24148 ****        10.7500  15.2500   4.0000 Du        
  24149 ****        10.7500  15.2500   4.2500 Du        
  24150 ****        10.7500  15.2500   4.5000 Du        
  24151 ****        10.7500  15.2500   4.7500 Du        
  24152 ****        10.7500  15.2500   5.0000 Du        
  24153 ****        10.7500  15.2500   5.2500 Du        
  24154 ****        10.7500  15.2500   5.5000 Du        
  24155 ****        10.7500  15.5000   4.0000 Du        
  24156 ****        10.7500  15.5000   4.2500 Du        
  24157 ****        10.7500  15.5000   4.5000 Du        
  24158 ****        10.7500  15.5000   4.7500 Du        
  24159 ****        10.7500  15.5000   5.0000 Du        
  24160 ****        10.7500  15.5000   5.2500 Du        
  24161 ****        10.7500  15.7500   4.0000 Du        
  24162 ****        10.7500  15.7500   4.2500 Du        
  24163 ****        10.7500  15.7500   4.5000 Du        
  24164 ****        10.7500  15.7500   4.7500 Du        
  24165 ****        10.7500  15.7500   5.0000 Du        
  24166 ****        10.7500  15.7500  37.5000 Du        
  24167 ****        10.7500  15.7500  37.7500 Du        
  24168 ****        10.7500  16.0000   4.0000 Du        
  24169 ****        10.7500  16.0000   4.2500 Du        
  24170 ****        10.7500  16.0000   4.5000 Du        
  24171 ****        10.7500  16.0000  37.2500 Du        
  24172 ****        10.7500  16.0000  37.5000 Du        
  24173 ****        10.7500  16.0000  37.7500 Du        
  24174 ****        10.7500  16.0000  38.0000 Du        
  24175 ****        10.7500  16.2500   4.0000 Du        
  24176 ****        10.7500  16.2500  37.0000 Du        
  24177 ****        10.7500  16.2500  37.2500 Du        
  24178 ****        10.7500  16.2500  37.5000 Du        
  24179 ****        10.7500  16.2500  37.7500 Du        
  24180 ****        10.7500  16.2500  38.0000 Du        
  24181 ****        10.7500  16.2500  38.2500 Du        
  24182 ****        10.7500  16.5000  37.0000 Du        
  24183 ****        10.7500  16.5000  37.2500 Du        
  24184 ****        10.7500  16.5000  37.5000 Du        
  24185 ****        10.7500  16.5000  37.7500 Du        
  24186 ****        10.7500  16.5000  38.0000 Du        
  24187 ****        10.7500  16.5000  38.2500 Du        
  24188 ****        10.7500  16.7500  37.2500 Du        
  24189 ****        10.7500  16.7500  37.5000 Du        
  24190 ****        10.7500  16.7500  37.7500 Du        
  24191 ****        10.7500  16.7500  38.0000 Du        
  24192 ****        10.7500  16.7500  38.2500 Du        
  24193 ****        10.7500  17.0000  37.2500 Du        
  24194 ****        10.7500  17.0000  37.5000 Du        
  24195 ****        10.7500  17.0000  37.7500 Du        
  24196 ****        10.7500  17.0000  38.0000 Du        
  24197 ****        10.7500  17.0000  38.2500 Du        
  24198 ****        10.7500  17.2500  37.2500 Du        
  24199 ****        10.7500  17.2500  37.5000 Du        
  24200 ****        10.7500  17.2500  37.7500 Du        
  24201 ****        10.7500  17.2500  38.0000 Du        
  24202 ****        10.7500  17.2500  38.2500 Du        
  24203 ****        10.7500  17.5000  37.2500 Du        
  24204 ****        10.7500  17.5000  37.5000 Du        
  24205 ****        10.7500  17.5000  37.7500 Du        
  24206 ****        10.7500  17.5000  38.0000 Du        
  24207 ****        10.7500  17.5000  38.2500 Du        
  24208 ****        10.7500  17.7500  37.2500 Du        
  24209 ****        10.7500  17.7500  37.5000 Du        
  24210 ****        10.7500  17.7500  37.7500 Du        
  24211 ****        10.7500  17.7500  38.0000 Du        
  24212 ****        10.7500  17.7500  38.2500 Du        
  24213 ****        10.7500  18.0000  37.2500 Du        
  24214 ****        10.7500  18.0000  38.0000 Du        
  24215 ****        10.7500  18.2500  37.2500 Du        
  24216 ****        10.7500  18.5000  37.2500 Du        
  24217 ****        10.7500  18.7500  37.0000 Du        
  24218 ****        10.7500  18.7500  37.2500 Du        
  24219 ****        10.7500  19.0000  37.0000 Du        
  24220 ****        10.7500  19.0000  37.2500 Du        
  24221 ****        10.7500  19.2500  37.2500 Du        
  24222 ****        11.0000  -4.0000  25.7500 Du        
  24223 ****        11.0000  -4.0000  26.0000 Du        
  24224 ****        11.0000  -3.7500  25.5000 Du        
  24225 ****        11.0000  -3.7500  25.7500 Du        
  24226 ****        11.0000  -3.7500  26.0000 Du        
  24227 ****        11.0000  -3.7500  26.2500 Du        
  24228 ****        11.0000  -3.5000  25.2500 Du        
  24229 ****        11.0000  -3.5000  25.5000 Du        
  24230 ****        11.0000  -3.5000  25.7500 Du        
  24231 ****        11.0000  -3.5000  26.0000 Du        
  24232 ****        11.0000  -3.5000  26.2500 Du        
  24233 ****        11.0000  -3.2500  25.0000 Du        
  24234 ****        11.0000  -3.2500  25.2500 Du        
  24235 ****        11.0000  -3.2500  25.5000 Du        
  24236 ****        11.0000  -3.2500  25.7500 Du        
  24237 ****        11.0000  -3.2500  26.0000 Du        
  24238 ****        11.0000  -3.2500  26.2500 Du        
  24239 ****        11.0000  -3.0000  25.0000 Du        
  24240 ****        11.0000  -3.0000  25.2500 Du        
  24241 ****        11.0000  -3.0000  25.5000 Du        
  24242 ****        11.0000  -3.0000  25.7500 Du        
  24243 ****        11.0000  -3.0000  26.0000 Du        
  24244 ****        11.0000  -2.7500  25.5000 Du        
  24245 ****        11.0000  -2.7500  25.7500 Du        
  24246 ****        11.0000   7.2500  25.2500 Du        
  24247 ****        11.0000   7.2500  25.5000 Du        
  24248 ****        11.0000   7.5000  25.2500 Du        
  24249 ****        11.0000   7.5000  25.5000 Du        
  24250 ****        11.0000   7.5000  25.7500 Du        
  24251 ****        11.0000  10.7500  15.2500 Du        
  24252 ****        11.0000  11.0000  14.7500 Du        
  24253 ****        11.0000  11.0000  15.0000 Du        
  24254 ****        11.0000  11.0000  15.2500 Du        
  24255 ****        11.0000  11.2500  14.7500 Du        
  24256 ****        11.0000  11.2500  15.0000 Du        
  24257 ****        11.0000  11.5000  14.2500 Du        
  24258 ****        11.0000  11.5000  14.7500 Du        
  24259 ****        11.0000  11.5000  15.0000 Du        
  24260 ****        11.0000  11.7500  14.0000 Du        
  24261 ****        11.0000  11.7500  14.2500 Du        
  24262 ****        11.0000  11.7500  14.5000 Du        
  24263 ****        11.0000  11.7500  14.7500 Du        
  24264 ****        11.0000  11.7500  15.0000 Du        
  24265 ****        11.0000  12.0000  13.7500 Du        
  24266 ****        11.0000  12.0000  14.0000 Du        
  24267 ****        11.0000  12.0000  14.2500 Du        
  24268 ****        11.0000  12.0000  14.5000 Du        
  24269 ****        11.0000  12.0000  14.7500 Du        
  24270 ****        11.0000  12.0000  15.0000 Du        
  24271 ****        11.0000  12.2500  13.2500 Du        
  24272 ****        11.0000  12.2500  13.5000 Du        
  24273 ****        11.0000  12.2500  13.7500 Du        
  24274 ****        11.0000  12.2500  14.0000 Du        
  24275 ****        11.0000  12.2500  14.2500 Du        
  24276 ****        11.0000  12.2500  14.5000 Du        
  24277 ****        11.0000  12.2500  14.7500 Du        
  24278 ****        11.0000  12.2500  15.0000 Du        
  24279 ****        11.0000  12.5000  13.0000 Du        
  24280 ****        11.0000  12.5000  13.2500 Du        
  24281 ****        11.0000  12.5000  13.5000 Du        
  24282 ****        11.0000  12.5000  13.7500 Du        
  24283 ****        11.0000  12.5000  14.0000 Du        
  24284 ****        11.0000  12.5000  14.2500 Du        
  24285 ****        11.0000  12.5000  14.5000 Du        
  24286 ****        11.0000  12.5000  14.7500 Du        
  24287 ****        11.0000  12.7500   8.7500 Du        
  24288 ****        11.0000  12.7500   9.0000 Du        
  24289 ****        11.0000  12.7500   9.2500 Du        
  24290 ****        11.0000  12.7500  12.7500 Du        
  24291 ****        11.0000  12.7500  13.0000 Du        
  24292 ****        11.0000  12.7500  13.2500 Du        
  24293 ****        11.0000  12.7500  13.5000 Du        
  24294 ****        11.0000  12.7500  13.7500 Du        
  24295 ****        11.0000  12.7500  14.0000 Du        
  24296 ****        11.0000  12.7500  14.2500 Du        
  24297 ****        11.0000  12.7500  14.5000 Du        
  24298 ****        11.0000  12.7500  14.7500 Du        
  24299 ****        11.0000  13.0000   8.5000 Du        
  24300 ****        11.0000  13.0000   8.7500 Du        
  24301 ****        11.0000  13.0000   9.0000 Du        
  24302 ****        11.0000  13.0000   9.2500 Du        
  24303 ****        11.0000  13.0000   9.5000 Du        
  24304 ****        11.0000  13.0000   9.7500 Du        
  24305 ****        11.0000  13.0000  12.7500 Du        
  24306 ****        11.0000  13.0000  13.0000 Du        
  24307 ****        11.0000  13.0000  13.2500 Du        
  24308 ****        11.0000  13.0000  13.5000 Du        
  24309 ****        11.0000  13.0000  13.7500 Du        
  24310 ****        11.0000  13.0000  14.0000 Du        
  24311 ****        11.0000  13.0000  14.2500 Du        
  24312 ****        11.0000  13.0000  14.5000 Du        
  24313 ****        11.0000  13.0000  14.7500 Du        
  24314 ****        11.0000  13.2500   8.5000 Du        
  24315 ****        11.0000  13.2500   8.7500 Du        
  24316 ****        11.0000  13.2500   9.0000 Du        
  24317 ****        11.0000  13.2500   9.2500 Du        
  24318 ****        11.0000  13.2500   9.5000 Du        
  24319 ****        11.0000  13.2500  12.7500 Du        
  24320 ****        11.0000  13.2500  13.0000 Du        
  24321 ****        11.0000  13.2500  13.2500 Du        
  24322 ****        11.0000  13.2500  13.5000 Du        
  24323 ****        11.0000  13.2500  13.7500 Du        
  24324 ****        11.0000  13.2500  14.0000 Du        
  24325 ****        11.0000  13.2500  14.2500 Du        
  24326 ****        11.0000  13.2500  14.5000 Du        
  24327 ****        11.0000  13.5000   8.5000 Du        
  24328 ****        11.0000  13.5000   8.7500 Du        
  24329 ****        11.0000  13.5000   9.0000 Du        
  24330 ****        11.0000  13.5000  13.0000 Du        
  24331 ****        11.0000  13.5000  13.2500 Du        
  24332 ****        11.0000  13.5000  13.5000 Du        
  24333 ****        11.0000  13.5000  13.7500 Du        
  24334 ****        11.0000  13.5000  14.0000 Du        
  24335 ****        11.0000  13.7500  13.0000 Du        
  24336 ****        11.0000  13.7500  13.2500 Du        
  24337 ****        11.0000  14.0000   4.0000 Du        
  24338 ****        11.0000  14.2500   4.0000 Du        
  24339 ****        11.0000  14.2500   4.2500 Du        
  24340 ****        11.0000  14.2500   4.5000 Du        
  24341 ****        11.0000  14.5000   4.0000 Du        
  24342 ****        11.0000  14.5000   4.2500 Du        
  24343 ****        11.0000  14.5000   4.5000 Du        
  24344 ****        11.0000  14.5000   4.7500 Du        
  24345 ****        11.0000  14.5000   5.0000 Du        
  24346 ****        11.0000  14.5000   5.2500 Du        
  24347 ****        11.0000  14.7500   4.0000 Du        
  24348 ****        11.0000  14.7500   4.2500 Du        
  24349 ****        11.0000  14.7500   4.5000 Du        
  24350 ****        11.0000  14.7500   4.7500 Du        
  24351 ****        11.0000  14.7500   5.0000 Du        
  24352 ****        11.0000  14.7500   5.2500 Du        
  24353 ****        11.0000  14.7500   5.5000 Du        
  24354 ****        11.0000  15.0000   4.0000 Du        
  24355 ****        11.0000  15.0000   4.2500 Du        
  24356 ****        11.0000  15.0000   4.5000 Du        
  24357 ****        11.0000  15.0000   4.7500 Du        
  24358 ****        11.0000  15.0000   5.0000 Du        
  24359 ****        11.0000  15.0000   5.2500 Du        
  24360 ****        11.0000  15.0000   5.5000 Du        
  24361 ****        11.0000  15.2500   4.0000 Du        
  24362 ****        11.0000  15.2500   4.2500 Du        
  24363 ****        11.0000  15.2500   4.5000 Du        
  24364 ****        11.0000  15.2500   4.7500 Du        
  24365 ****        11.0000  15.2500   5.0000 Du        
  24366 ****        11.0000  15.2500   5.2500 Du        
  24367 ****        11.0000  15.2500   5.5000 Du        
  24368 ****        11.0000  15.5000   4.0000 Du        
  24369 ****        11.0000  15.5000   4.2500 Du        
  24370 ****        11.0000  15.5000   4.5000 Du        
  24371 ****        11.0000  15.5000   4.7500 Du        
  24372 ****        11.0000  15.5000   5.0000 Du        
  24373 ****        11.0000  15.5000   5.2500 Du        
  24374 ****        11.0000  15.7500   4.0000 Du        
  24375 ****        11.0000  15.7500   4.2500 Du        
  24376 ****        11.0000  15.7500   4.5000 Du        
  24377 ****        11.0000  15.7500   4.7500 Du        
  24378 ****        11.0000  15.7500   5.0000 Du        
  24379 ****        11.0000  15.7500  37.5000 Du        
  24380 ****        11.0000  16.0000   4.0000 Du        
  24381 ****        11.0000  16.0000   4.2500 Du        
  24382 ****        11.0000  16.0000   4.5000 Du        
  24383 ****        11.0000  16.0000  37.2500 Du        
  24384 ****        11.0000  16.0000  37.5000 Du        
  24385 ****        11.0000  16.0000  37.7500 Du        
  24386 ****        11.0000  16.2500   4.0000 Du        
  24387 ****        11.0000  16.2500  37.0000 Du        
  24388 ****        11.0000  16.2500  37.2500 Du        
  24389 ****        11.0000  16.2500  37.5000 Du        
  24390 ****        11.0000  16.2500  37.7500 Du        
  24391 ****        11.0000  16.2500  38.0000 Du        
  24392 ****        11.0000  16.5000  37.0000 Du        
  24393 ****        11.0000  16.5000  37.2500 Du        
  24394 ****        11.0000  16.5000  37.5000 Du        
  24395 ****        11.0000  16.5000  37.7500 Du        
  24396 ****        11.0000  16.5000  38.0000 Du        
  24397 ****        11.0000  16.5000  38.2500 Du        
  24398 ****        11.0000  16.7500  37.0000 Du        
  24399 ****        11.0000  16.7500  37.2500 Du        
  24400 ****        11.0000  16.7500  37.5000 Du        
  24401 ****        11.0000  16.7500  37.7500 Du        
  24402 ****        11.0000  16.7500  38.0000 Du        
  24403 ****        11.0000  16.7500  38.2500 Du        
  24404 ****        11.0000  17.0000  37.0000 Du        
  24405 ****        11.0000  17.0000  37.2500 Du        
  24406 ****        11.0000  17.0000  37.5000 Du        
  24407 ****        11.0000  17.0000  37.7500 Du        
  24408 ****        11.0000  17.0000  38.0000 Du        
  24409 ****        11.0000  17.0000  38.2500 Du        
  24410 ****        11.0000  17.2500  37.0000 Du        
  24411 ****        11.0000  17.2500  37.2500 Du        
  24412 ****        11.0000  17.2500  37.5000 Du        
  24413 ****        11.0000  17.2500  37.7500 Du        
  24414 ****        11.0000  17.2500  38.0000 Du        
  24415 ****        11.0000  17.2500  38.2500 Du        
  24416 ****        11.0000  17.5000  37.2500 Du        
  24417 ****        11.0000  17.5000  37.5000 Du        
  24418 ****        11.0000  17.5000  37.7500 Du        
  24419 ****        11.0000  17.5000  38.0000 Du        
  24420 ****        11.0000  17.5000  38.2500 Du        
  24421 ****        11.0000  17.7500  37.2500 Du        
  24422 ****        11.0000  17.7500  37.5000 Du        
  24423 ****        11.0000  17.7500  37.7500 Du        
  24424 ****        11.0000  17.7500  38.0000 Du        
  24425 ****        11.0000  17.7500  38.2500 Du        
  24426 ****        11.0000  18.0000  37.0000 Du        
  24427 ****        11.0000  18.0000  37.2500 Du        
  24428 ****        11.0000  18.0000  37.7500 Du        
  24429 ****        11.0000  18.0000  38.0000 Du        
  24430 ****        11.0000  18.2500  37.0000 Du        
  24431 ****        11.0000  18.2500  37.2500 Du        
  24432 ****        11.0000  18.5000  37.0000 Du        
  24433 ****        11.0000  18.5000  37.2500 Du        
  24434 ****        11.0000  18.7500  37.0000 Du        
  24435 ****        11.0000  18.7500  37.2500 Du        
  24436 ****        11.0000  19.0000  37.0000 Du        
  24437 ****        11.0000  19.0000  37.2500 Du        
  24438 ****        11.0000  19.2500  37.2500 Du        
  24439 ****        11.2500  -4.0000  25.5000 Du        
  24440 ****        11.2500  -4.0000  25.7500 Du        
  24441 ****        11.2500  -4.0000  26.0000 Du        
  24442 ****        11.2500  -4.0000  26.2500 Du        
  24443 ****        11.2500  -3.7500  25.5000 Du        
  24444 ****        11.2500  -3.7500  25.7500 Du        
  24445 ****        11.2500  -3.7500  26.0000 Du        
  24446 ****        11.2500  -3.7500  26.2500 Du        
  24447 ****        11.2500  -3.5000  25.0000 Du        
  24448 ****        11.2500  -3.5000  25.2500 Du        
  24449 ****        11.2500  -3.5000  25.5000 Du        
  24450 ****        11.2500  -3.5000  25.7500 Du        
  24451 ****        11.2500  -3.5000  26.0000 Du        
  24452 ****        11.2500  -3.5000  26.2500 Du        
  24453 ****        11.2500  -3.2500  25.0000 Du        
  24454 ****        11.2500  -3.2500  25.2500 Du        
  24455 ****        11.2500  -3.2500  25.5000 Du        
  24456 ****        11.2500  -3.2500  25.7500 Du        
  24457 ****        11.2500  -3.2500  26.0000 Du        
  24458 ****        11.2500  -3.0000  25.0000 Du        
  24459 ****        11.2500  -3.0000  25.2500 Du        
  24460 ****        11.2500  -3.0000  25.5000 Du        
  24461 ****        11.2500  -3.0000  25.7500 Du        
  24462 ****        11.2500  -3.0000  26.0000 Du        
  24463 ****        11.2500  -2.7500  25.5000 Du        
  24464 ****        11.2500   7.2500  25.2500 Du        
  24465 ****        11.2500   7.2500  25.5000 Du        
  24466 ****        11.2500   7.5000  25.2500 Du        
  24467 ****        11.2500   7.5000  25.5000 Du        
  24468 ****        11.2500   7.5000  25.7500 Du        
  24469 ****        11.2500   7.7500  25.5000 Du        
  24470 ****        11.2500   7.7500  25.7500 Du        
  24471 ****        11.2500  11.0000  15.0000 Du        
  24472 ****        11.2500  11.0000  15.2500 Du        
  24473 ****        11.2500  11.2500  14.7500 Du        
  24474 ****        11.2500  11.2500  15.0000 Du        
  24475 ****        11.2500  11.2500  15.2500 Du        
  24476 ****        11.2500  11.5000  14.7500 Du        
  24477 ****        11.2500  11.5000  15.0000 Du        
  24478 ****        11.2500  11.7500  14.0000 Du        
  24479 ****        11.2500  11.7500  14.2500 Du        
  24480 ****        11.2500  11.7500  14.7500 Du        
  24481 ****        11.2500  11.7500  15.0000 Du        
  24482 ****        11.2500  12.0000  13.7500 Du        
  24483 ****        11.2500  12.0000  14.0000 Du        
  24484 ****        11.2500  12.0000  14.2500 Du        
  24485 ****        11.2500  12.0000  14.5000 Du        
  24486 ****        11.2500  12.0000  14.7500 Du        
  24487 ****        11.2500  12.0000  15.0000 Du        
  24488 ****        11.2500  12.2500  13.5000 Du        
  24489 ****        11.2500  12.2500  13.7500 Du        
  24490 ****        11.2500  12.2500  14.0000 Du        
  24491 ****        11.2500  12.2500  14.2500 Du        
  24492 ****        11.2500  12.2500  14.5000 Du        
  24493 ****        11.2500  12.2500  14.7500 Du        
  24494 ****        11.2500  12.2500  15.0000 Du        
  24495 ****        11.2500  12.5000  13.0000 Du        
  24496 ****        11.2500  12.5000  13.2500 Du        
  24497 ****        11.2500  12.5000  13.5000 Du        
  24498 ****        11.2500  12.5000  13.7500 Du        
  24499 ****        11.2500  12.5000  14.0000 Du        
  24500 ****        11.2500  12.5000  14.2500 Du        
  24501 ****        11.2500  12.5000  14.5000 Du        
  24502 ****        11.2500  12.5000  14.7500 Du        
  24503 ****        11.2500  12.5000  15.0000 Du        
  24504 ****        11.2500  12.7500   8.5000 Du        
  24505 ****        11.2500  12.7500   8.7500 Du        
  24506 ****        11.2500  12.7500   9.0000 Du        
  24507 ****        11.2500  12.7500   9.2500 Du        
  24508 ****        11.2500  12.7500  13.0000 Du        
  24509 ****        11.2500  12.7500  13.2500 Du        
  24510 ****        11.2500  12.7500  13.5000 Du        
  24511 ****        11.2500  12.7500  13.7500 Du        
  24512 ****        11.2500  12.7500  14.0000 Du        
  24513 ****        11.2500  12.7500  14.2500 Du        
  24514 ****        11.2500  12.7500  14.5000 Du        
  24515 ****        11.2500  12.7500  14.7500 Du        
  24516 ****        11.2500  13.0000   8.2500 Du        
  24517 ****        11.2500  13.0000   8.5000 Du        
  24518 ****        11.2500  13.0000   8.7500 Du        
  24519 ****        11.2500  13.0000   9.0000 Du        
  24520 ****        11.2500  13.0000   9.2500 Du        
  24521 ****        11.2500  13.0000   9.5000 Du        
  24522 ****        11.2500  13.0000  12.7500 Du        
  24523 ****        11.2500  13.0000  13.0000 Du        
  24524 ****        11.2500  13.0000  13.2500 Du        
  24525 ****        11.2500  13.0000  13.5000 Du        
  24526 ****        11.2500  13.0000  13.7500 Du        
  24527 ****        11.2500  13.0000  14.0000 Du        
  24528 ****        11.2500  13.0000  14.2500 Du        
  24529 ****        11.2500  13.0000  14.5000 Du        
  24530 ****        11.2500  13.0000  14.7500 Du        
  24531 ****        11.2500  13.2500   8.2500 Du        
  24532 ****        11.2500  13.2500   8.5000 Du        
  24533 ****        11.2500  13.2500   8.7500 Du        
  24534 ****        11.2500  13.2500   9.0000 Du        
  24535 ****        11.2500  13.2500   9.2500 Du        
  24536 ****        11.2500  13.2500  12.7500 Du        
  24537 ****        11.2500  13.2500  13.0000 Du        
  24538 ****        11.2500  13.2500  13.2500 Du        
  24539 ****        11.2500  13.2500  13.5000 Du        
  24540 ****        11.2500  13.2500  13.7500 Du        
  24541 ****        11.2500  13.2500  14.0000 Du        
  24542 ****        11.2500  13.2500  14.2500 Du        
  24543 ****        11.2500  13.2500  14.5000 Du        
  24544 ****        11.2500  13.2500  14.7500 Du        
  24545 ****        11.2500  13.5000   8.2500 Du        
  24546 ****        11.2500  13.5000   8.5000 Du        
  24547 ****        11.2500  13.5000   8.7500 Du        
  24548 ****        11.2500  13.5000  13.0000 Du        
  24549 ****        11.2500  13.5000  13.2500 Du        
  24550 ****        11.2500  13.5000  13.5000 Du        
  24551 ****        11.2500  13.5000  13.7500 Du        
  24552 ****        11.2500  13.5000  14.0000 Du        
  24553 ****        11.2500  13.5000  14.2500 Du        
  24554 ****        11.2500  13.7500  13.2500 Du        
  24555 ****        11.2500  14.0000   4.0000 Du        
  24556 ****        11.2500  14.2500   4.0000 Du        
  24557 ****        11.2500  14.2500   4.2500 Du        
  24558 ****        11.2500  14.2500   4.5000 Du        
  24559 ****        11.2500  14.2500   4.7500 Du        
  24560 ****        11.2500  14.5000   4.0000 Du        
  24561 ****        11.2500  14.5000   4.2500 Du        
  24562 ****        11.2500  14.5000   4.5000 Du        
  24563 ****        11.2500  14.5000   4.7500 Du        
  24564 ****        11.2500  14.5000   5.0000 Du        
  24565 ****        11.2500  14.5000   5.2500 Du        
  24566 ****        11.2500  14.7500   4.0000 Du        
  24567 ****        11.2500  14.7500   4.2500 Du        
  24568 ****        11.2500  14.7500   4.5000 Du        
  24569 ****        11.2500  14.7500   4.7500 Du        
  24570 ****        11.2500  14.7500   5.0000 Du        
  24571 ****        11.2500  14.7500   5.2500 Du        
  24572 ****        11.2500  14.7500   5.5000 Du        
  24573 ****        11.2500  15.0000   4.0000 Du        
  24574 ****        11.2500  15.0000   4.2500 Du        
  24575 ****        11.2500  15.0000   4.5000 Du        
  24576 ****        11.2500  15.0000   4.7500 Du        
  24577 ****        11.2500  15.0000   5.0000 Du        
  24578 ****        11.2500  15.0000   5.2500 Du        
  24579 ****        11.2500  15.2500   4.0000 Du        
  24580 ****        11.2500  15.2500   4.2500 Du        
  24581 ****        11.2500  15.2500   4.5000 Du        
  24582 ****        11.2500  15.2500   4.7500 Du        
  24583 ****        11.2500  15.2500   5.0000 Du        
  24584 ****        11.2500  15.2500   5.2500 Du        
  24585 ****        11.2500  15.5000   4.0000 Du        
  24586 ****        11.2500  15.5000   4.2500 Du        
  24587 ****        11.2500  15.5000   4.5000 Du        
  24588 ****        11.2500  15.5000   4.7500 Du        
  24589 ****        11.2500  15.5000   5.0000 Du        
  24590 ****        11.2500  15.7500   4.0000 Du        
  24591 ****        11.2500  15.7500   4.2500 Du        
  24592 ****        11.2500  15.7500   4.5000 Du        
  24593 ****        11.2500  15.7500   4.7500 Du        
  24594 ****        11.2500  16.0000   4.0000 Du        
  24595 ****        11.2500  16.0000  37.2500 Du        
  24596 ****        11.2500  16.0000  37.5000 Du        
  24597 ****        11.2500  16.0000  37.7500 Du        
  24598 ****        11.2500  16.2500  37.2500 Du        
  24599 ****        11.2500  16.2500  37.5000 Du        
  24600 ****        11.2500  16.2500  37.7500 Du        
  24601 ****        11.2500  16.2500  38.0000 Du        
  24602 ****        11.2500  16.5000  37.2500 Du        
  24603 ****        11.2500  16.5000  37.5000 Du        
  24604 ****        11.2500  16.5000  37.7500 Du        
  24605 ****        11.2500  16.5000  38.0000 Du        
  24606 ****        11.2500  16.5000  38.2500 Du        
  24607 ****        11.2500  16.7500  37.0000 Du        
  24608 ****        11.2500  16.7500  37.2500 Du        
  24609 ****        11.2500  16.7500  37.5000 Du        
  24610 ****        11.2500  16.7500  37.7500 Du        
  24611 ****        11.2500  16.7500  38.0000 Du        
  24612 ****        11.2500  16.7500  38.2500 Du        
  24613 ****        11.2500  17.0000  37.2500 Du        
  24614 ****        11.2500  17.0000  37.5000 Du        
  24615 ****        11.2500  17.0000  37.7500 Du        
  24616 ****        11.2500  17.0000  38.0000 Du        
  24617 ****        11.2500  17.0000  38.2500 Du        
  24618 ****        11.2500  17.2500  37.2500 Du        
  24619 ****        11.2500  17.2500  37.5000 Du        
  24620 ****        11.2500  17.2500  37.7500 Du        
  24621 ****        11.2500  17.2500  38.0000 Du        
  24622 ****        11.2500  17.2500  38.2500 Du        
  24623 ****        11.2500  17.5000  37.2500 Du        
  24624 ****        11.2500  17.5000  37.5000 Du        
  24625 ****        11.2500  17.5000  37.7500 Du        
  24626 ****        11.2500  17.5000  38.0000 Du        
  24627 ****        11.2500  17.7500  37.2500 Du        
  24628 ****        11.2500  17.7500  37.5000 Du        
  24629 ****        11.2500  17.7500  37.7500 Du        
  24630 ****        11.2500  17.7500  38.0000 Du        
  24631 ****        11.2500  18.0000  37.0000 Du        
  24632 ****        11.2500  18.0000  37.2500 Du        
  24633 ****        11.2500  18.0000  37.7500 Du        
  24634 ****        11.2500  18.2500  37.0000 Du        
  24635 ****        11.2500  18.2500  37.2500 Du        
  24636 ****        11.2500  18.5000  37.0000 Du        
  24637 ****        11.2500  18.5000  37.2500 Du        
  24638 ****        11.2500  18.7500  36.7500 Du        
  24639 ****        11.2500  18.7500  37.0000 Du        
  24640 ****        11.2500  18.7500  37.2500 Du        
  24641 ****        11.2500  19.0000  36.7500 Du        
  24642 ****        11.2500  19.0000  37.0000 Du        
  24643 ****        11.2500  19.0000  37.2500 Du        
  24644 ****        11.2500  19.2500  37.0000 Du        
  24645 ****        11.2500  19.2500  37.2500 Du        
  24646 ****        11.5000  -4.0000  25.5000 Du        
  24647 ****        11.5000  -4.0000  25.7500 Du        
  24648 ****        11.5000  -4.0000  26.0000 Du        
  24649 ****        11.5000  -4.0000  26.2500 Du        
  24650 ****        11.5000  -3.7500  25.2500 Du        
  24651 ****        11.5000  -3.7500  25.5000 Du        
  24652 ****        11.5000  -3.7500  25.7500 Du        
  24653 ****        11.5000  -3.7500  26.0000 Du        
  24654 ****        11.5000  -3.7500  26.2500 Du        
  24655 ****        11.5000  -3.5000  25.0000 Du        
  24656 ****        11.5000  -3.5000  25.2500 Du        
  24657 ****        11.5000  -3.5000  25.5000 Du        
  24658 ****        11.5000  -3.5000  25.7500 Du        
  24659 ****        11.5000  -3.5000  26.0000 Du        
  24660 ****        11.5000  -3.2500  25.0000 Du        
  24661 ****        11.5000  -3.2500  25.2500 Du        
  24662 ****        11.5000  -3.2500  25.5000 Du        
  24663 ****        11.5000  -3.2500  25.7500 Du        
  24664 ****        11.5000  -3.2500  26.0000 Du        
  24665 ****        11.5000  -3.0000  25.0000 Du        
  24666 ****        11.5000  -3.0000  25.2500 Du        
  24667 ****        11.5000  -3.0000  25.5000 Du        
  24668 ****        11.5000   2.5000  -3.7500 Du        
  24669 ****        11.5000   2.5000  -3.5000 Du        
  24670 ****        11.5000   7.5000  25.2500 Du        
  24671 ****        11.5000   7.5000  25.5000 Du        
  24672 ****        11.5000   7.5000  25.7500 Du        
  24673 ****        11.5000   7.5000  26.0000 Du        
  24674 ****        11.5000   7.7500  25.2500 Du        
  24675 ****        11.5000   7.7500  25.5000 Du        
  24676 ****        11.5000   7.7500  25.7500 Du        
  24677 ****        11.5000   7.7500  26.0000 Du        
  24678 ****        11.5000   9.5000  19.0000 Du        
  24679 ****        11.5000   9.5000  19.2500 Du        
  24680 ****        11.5000  10.2500  15.7500 Du        
  24681 ****        11.5000  10.2500  16.0000 Du        
  24682 ****        11.5000  10.5000  15.2500 Du        
  24683 ****        11.5000  10.5000  15.5000 Du        
  24684 ****        11.5000  10.5000  15.7500 Du        
  24685 ****        11.5000  10.5000  16.0000 Du        
  24686 ****        11.5000  10.7500  15.2500 Du        
  24687 ****        11.5000  10.7500  15.5000 Du        
  24688 ****        11.5000  10.7500  15.7500 Du        
  24689 ****        11.5000  10.7500  16.0000 Du        
  24690 ****        11.5000  11.0000  15.0000 Du        
  24691 ****        11.5000  11.0000  15.2500 Du        
  24692 ****        11.5000  11.0000  15.5000 Du        
  24693 ****        11.5000  11.2500  14.7500 Du        
  24694 ****        11.5000  11.2500  15.0000 Du        
  24695 ****        11.5000  11.2500  15.2500 Du        
  24696 ****        11.5000  11.5000  14.2500 Du        
  24697 ****        11.5000  11.5000  14.5000 Du        
  24698 ****        11.5000  11.5000  14.7500 Du        
  24699 ****        11.5000  11.5000  15.0000 Du        
  24700 ****        11.5000  11.5000  15.2500 Du        
  24701 ****        11.5000  11.7500  14.0000 Du        
  24702 ****        11.5000  11.7500  14.2500 Du        
  24703 ****        11.5000  11.7500  14.5000 Du        
  24704 ****        11.5000  11.7500  14.7500 Du        
  24705 ****        11.5000  11.7500  15.0000 Du        
  24706 ****        11.5000  11.7500  15.2500 Du        
  24707 ****        11.5000  12.0000  13.7500 Du        
  24708 ****        11.5000  12.0000  14.0000 Du        
  24709 ****        11.5000  12.0000  14.2500 Du        
  24710 ****        11.5000  12.0000  14.5000 Du        
  24711 ****        11.5000  12.0000  14.7500 Du        
  24712 ****        11.5000  12.0000  15.0000 Du        
  24713 ****        11.5000  12.2500  13.5000 Du        
  24714 ****        11.5000  12.2500  13.7500 Du        
  24715 ****        11.5000  12.2500  14.0000 Du        
  24716 ****        11.5000  12.2500  14.2500 Du        
  24717 ****        11.5000  12.2500  14.5000 Du        
  24718 ****        11.5000  12.2500  14.7500 Du        
  24719 ****        11.5000  12.2500  15.0000 Du        
  24720 ****        11.5000  12.5000  13.0000 Du        
  24721 ****        11.5000  12.5000  13.2500 Du        
  24722 ****        11.5000  12.5000  13.5000 Du        
  24723 ****        11.5000  12.5000  13.7500 Du        
  24724 ****        11.5000  12.5000  14.0000 Du        
  24725 ****        11.5000  12.5000  14.2500 Du        
  24726 ****        11.5000  12.5000  14.5000 Du        
  24727 ****        11.5000  12.5000  14.7500 Du        
  24728 ****        11.5000  12.5000  15.0000 Du        
  24729 ****        11.5000  12.7500   8.2500 Du        
  24730 ****        11.5000  12.7500   8.5000 Du        
  24731 ****        11.5000  12.7500   8.7500 Du        
  24732 ****        11.5000  12.7500   9.0000 Du        
  24733 ****        11.5000  12.7500  13.0000 Du        
  24734 ****        11.5000  12.7500  13.2500 Du        
  24735 ****        11.5000  12.7500  13.5000 Du        
  24736 ****        11.5000  12.7500  13.7500 Du        
  24737 ****        11.5000  12.7500  14.0000 Du        
  24738 ****        11.5000  12.7500  14.2500 Du        
  24739 ****        11.5000  12.7500  14.5000 Du        
  24740 ****        11.5000  12.7500  14.7500 Du        
  24741 ****        11.5000  13.0000   8.0000 Du        
  24742 ****        11.5000  13.0000   8.2500 Du        
  24743 ****        11.5000  13.0000   8.5000 Du        
  24744 ****        11.5000  13.0000   8.7500 Du        
  24745 ****        11.5000  13.0000   9.0000 Du        
  24746 ****        11.5000  13.0000   9.2500 Du        
  24747 ****        11.5000  13.0000  12.7500 Du        
  24748 ****        11.5000  13.0000  13.0000 Du        
  24749 ****        11.5000  13.0000  13.2500 Du        
  24750 ****        11.5000  13.0000  13.5000 Du        
  24751 ****        11.5000  13.0000  13.7500 Du        
  24752 ****        11.5000  13.0000  14.0000 Du        
  24753 ****        11.5000  13.0000  14.2500 Du        
  24754 ****        11.5000  13.0000  14.5000 Du        
  24755 ****        11.5000  13.0000  14.7500 Du        
  24756 ****        11.5000  13.2500   8.0000 Du        
  24757 ****        11.5000  13.2500   8.2500 Du        
  24758 ****        11.5000  13.2500   8.5000 Du        
  24759 ****        11.5000  13.2500   8.7500 Du        
  24760 ****        11.5000  13.2500   9.0000 Du        
  24761 ****        11.5000  13.2500   9.2500 Du        
  24762 ****        11.5000  13.2500  13.0000 Du        
  24763 ****        11.5000  13.2500  13.2500 Du        
  24764 ****        11.5000  13.2500  13.5000 Du        
  24765 ****        11.5000  13.2500  13.7500 Du        
  24766 ****        11.5000  13.2500  14.0000 Du        
  24767 ****        11.5000  13.2500  14.2500 Du        
  24768 ****        11.5000  13.2500  14.5000 Du        
  24769 ****        11.5000  13.2500  14.7500 Du        
  24770 ****        11.5000  13.5000   8.2500 Du        
  24771 ****        11.5000  13.5000   8.5000 Du        
  24772 ****        11.5000  13.5000   8.7500 Du        
  24773 ****        11.5000  13.5000  13.2500 Du        
  24774 ****        11.5000  13.5000  13.5000 Du        
  24775 ****        11.5000  13.5000  13.7500 Du        
  24776 ****        11.5000  13.5000  14.0000 Du        
  24777 ****        11.5000  13.5000  14.2500 Du        
  24778 ****        11.5000  13.5000  14.5000 Du        
  24779 ****        11.5000  14.0000   4.0000 Du        
  24780 ****        11.5000  14.2500   4.0000 Du        
  24781 ****        11.5000  14.2500   4.2500 Du        
  24782 ****        11.5000  14.2500   4.5000 Du        
  24783 ****        11.5000  14.2500   4.7500 Du        
  24784 ****        11.5000  14.2500   5.0000 Du        
  24785 ****        11.5000  14.5000   4.0000 Du        
  24786 ****        11.5000  14.5000   4.2500 Du        
  24787 ****        11.5000  14.5000   4.5000 Du        
  24788 ****        11.5000  14.5000   4.7500 Du        
  24789 ****        11.5000  14.5000   5.0000 Du        
  24790 ****        11.5000  14.5000   5.2500 Du        
  24791 ****        11.5000  14.7500   4.0000 Du        
  24792 ****        11.5000  14.7500   4.2500 Du        
  24793 ****        11.5000  14.7500   4.5000 Du        
  24794 ****        11.5000  14.7500   4.7500 Du        
  24795 ****        11.5000  14.7500   5.0000 Du        
  24796 ****        11.5000  14.7500   5.2500 Du        
  24797 ****        11.5000  15.0000   4.0000 Du        
  24798 ****        11.5000  15.0000   4.2500 Du        
  24799 ****        11.5000  15.0000   4.5000 Du        
  24800 ****        11.5000  15.0000   4.7500 Du        
  24801 ****        11.5000  15.0000   5.0000 Du        
  24802 ****        11.5000  15.0000   5.2500 Du        
  24803 ****        11.5000  15.2500   4.0000 Du        
  24804 ****        11.5000  15.2500   4.2500 Du        
  24805 ****        11.5000  15.2500   4.5000 Du        
  24806 ****        11.5000  15.2500   4.7500 Du        
  24807 ****        11.5000  15.2500   5.0000 Du        
  24808 ****        11.5000  15.5000   4.0000 Du        
  24809 ****        11.5000  15.5000   4.2500 Du        
  24810 ****        11.5000  15.5000   4.5000 Du        
  24811 ****        11.5000  15.5000   4.7500 Du        
  24812 ****        11.5000  15.7500   4.0000 Du        
  24813 ****        11.5000  16.2500  37.2500 Du        
  24814 ****        11.5000  16.2500  37.5000 Du        
  24815 ****        11.5000  16.2500  37.7500 Du        
  24816 ****        11.5000  16.5000  37.2500 Du        
  24817 ****        11.5000  16.5000  37.5000 Du        
  24818 ****        11.5000  16.5000  37.7500 Du        
  24819 ****        11.5000  16.5000  38.0000 Du        
  24820 ****        11.5000  16.7500  37.2500 Du        
  24821 ****        11.5000  16.7500  37.5000 Du        
  24822 ****        11.5000  16.7500  37.7500 Du        
  24823 ****        11.5000  16.7500  38.0000 Du        
  24824 ****        11.5000  16.7500  38.2500 Du        
  24825 ****        11.5000  17.0000  37.2500 Du        
  24826 ****        11.5000  17.0000  37.5000 Du        
  24827 ****        11.5000  17.0000  37.7500 Du        
  24828 ****        11.5000  17.0000  38.0000 Du        
  24829 ****        11.5000  17.0000  38.2500 Du        
  24830 ****        11.5000  17.2500  37.2500 Du        
  24831 ****        11.5000  17.2500  37.5000 Du        
  24832 ****        11.5000  17.2500  37.7500 Du        
  24833 ****        11.5000  17.2500  38.0000 Du        
  24834 ****        11.5000  17.2500  38.2500 Du        
  24835 ****        11.5000  17.5000  37.2500 Du        
  24836 ****        11.5000  17.5000  37.5000 Du        
  24837 ****        11.5000  17.5000  37.7500 Du        
  24838 ****        11.5000  17.5000  38.0000 Du        
  24839 ****        11.5000  17.7500  37.2500 Du        
  24840 ****        11.5000  17.7500  37.5000 Du        
  24841 ****        11.5000  17.7500  37.7500 Du        
  24842 ****        11.5000  17.7500  38.0000 Du        
  24843 ****        11.5000  18.0000  37.2500 Du        
  24844 ****        11.5000  18.2500  37.2500 Du        
  24845 ****        11.5000  18.7500  37.0000 Du        
  24846 ****        11.5000  19.0000  36.7500 Du        
  24847 ****        11.5000  19.0000  37.0000 Du        
  24848 ****        11.5000  19.0000  37.2500 Du        
  24849 ****        11.5000  19.2500  37.0000 Du        
  24850 ****        11.5000  19.2500  37.2500 Du        
  24851 ****        11.5000  19.5000  37.0000 Du        
  24852 ****        11.5000  19.5000  37.2500 Du        
  24853 ****        11.7500  -4.0000  25.5000 Du        
  24854 ****        11.7500  -4.0000  25.7500 Du        
  24855 ****        11.7500  -4.0000  26.0000 Du        
  24856 ****        11.7500  -3.7500  25.2500 Du        
  24857 ****        11.7500  -3.7500  25.5000 Du        
  24858 ****        11.7500  -3.7500  25.7500 Du        
  24859 ****        11.7500  -3.7500  26.0000 Du        
  24860 ****        11.7500  -3.5000  25.2500 Du        
  24861 ****        11.7500  -3.5000  25.5000 Du        
  24862 ****        11.7500  -3.5000  25.7500 Du        
  24863 ****        11.7500  -3.2500  25.2500 Du        
  24864 ****        11.7500  -3.2500  25.5000 Du        
  24865 ****        11.7500   2.0000  -3.5000 Du        
  24866 ****        11.7500   2.0000  -3.2500 Du        
  24867 ****        11.7500   2.0000  -3.0000 Du        
  24868 ****        11.7500   2.2500  -3.7500 Du        
  24869 ****        11.7500   2.2500  -3.5000 Du        
  24870 ****        11.7500   2.2500  -3.2500 Du        
  24871 ****        11.7500   2.2500  -3.0000 Du        
  24872 ****        11.7500   2.2500  -2.7500 Du        
  24873 ****        11.7500   2.2500  -2.5000 Du        
  24874 ****        11.7500   2.5000  -3.7500 Du        
  24875 ****        11.7500   2.5000  -3.5000 Du        
  24876 ****        11.7500   2.5000  -3.2500 Du        
  24877 ****        11.7500   2.5000  -3.0000 Du        
  24878 ****        11.7500   2.5000  -2.7500 Du        
  24879 ****        11.7500   2.5000  -2.5000 Du        
  24880 ****        11.7500   2.5000  -2.2500 Du        
  24881 ****        11.7500   2.7500  -3.5000 Du        
  24882 ****        11.7500   2.7500  -3.2500 Du        
  24883 ****        11.7500   2.7500  -3.0000 Du        
  24884 ****        11.7500   2.7500  -2.7500 Du        
  24885 ****        11.7500   2.7500  -2.5000 Du        
  24886 ****        11.7500   2.7500  -2.2500 Du        
  24887 ****        11.7500   3.0000  -3.0000 Du        
  24888 ****        11.7500   3.0000  -2.7500 Du        
  24889 ****        11.7500   3.0000  -2.5000 Du        
  24890 ****        11.7500   3.0000  -2.2500 Du        
  24891 ****        11.7500   3.2500  -2.7500 Du        
  24892 ****        11.7500   3.2500  -2.5000 Du        
  24893 ****        11.7500   3.2500  -2.2500 Du        
  24894 ****        11.7500   7.5000  25.2500 Du        
  24895 ****        11.7500   7.5000  25.5000 Du        
  24896 ****        11.7500   7.5000  25.7500 Du        
  24897 ****        11.7500   7.5000  26.0000 Du        
  24898 ****        11.7500   7.7500  25.2500 Du        
  24899 ****        11.7500   7.7500  25.5000 Du        
  24900 ****        11.7500   7.7500  25.7500 Du        
  24901 ****        11.7500   7.7500  26.0000 Du        
  24902 ****        11.7500   7.7500  26.2500 Du        
  24903 ****        11.7500   8.0000  25.5000 Du        
  24904 ****        11.7500   8.0000  25.7500 Du        
  24905 ****        11.7500   8.0000  26.0000 Du        
  24906 ****        11.7500   9.2500  18.7500 Du        
  24907 ****        11.7500   9.2500  19.0000 Du        
  24908 ****        11.7500   9.2500  19.2500 Du        
  24909 ****        11.7500   9.2500  19.5000 Du        
  24910 ****        11.7500   9.5000  18.7500 Du        
  24911 ****        11.7500   9.5000  19.0000 Du        
  24912 ****        11.7500   9.5000  19.2500 Du        
  24913 ****        11.7500   9.5000  19.5000 Du        
  24914 ****        11.7500   9.7500  16.2500 Du        
  24915 ****        11.7500   9.7500  18.7500 Du        
  24916 ****        11.7500   9.7500  19.0000 Du        
  24917 ****        11.7500   9.7500  19.2500 Du        
  24918 ****        11.7500   9.7500  19.5000 Du        
  24919 ****        11.7500  10.0000  16.0000 Du        
  24920 ****        11.7500  10.0000  16.2500 Du        
  24921 ****        11.7500  10.2500  15.7500 Du        
  24922 ****        11.7500  10.2500  16.0000 Du        
  24923 ****        11.7500  10.2500  16.2500 Du        
  24924 ****        11.7500  10.5000  15.5000 Du        
  24925 ****        11.7500  10.5000  15.7500 Du        
  24926 ****        11.7500  10.5000  16.0000 Du        
  24927 ****        11.7500  10.5000  16.2500 Du        
  24928 ****        11.7500  10.7500  15.2500 Du        
  24929 ****        11.7500  10.7500  15.5000 Du        
  24930 ****        11.7500  10.7500  15.7500 Du        
  24931 ****        11.7500  10.7500  16.0000 Du        
  24932 ****        11.7500  10.7500  16.2500 Du        
  24933 ****        11.7500  11.0000  15.0000 Du        
  24934 ****        11.7500  11.0000  15.2500 Du        
  24935 ****        11.7500  11.0000  15.5000 Du        
  24936 ****        11.7500  11.0000  15.7500 Du        
  24937 ****        11.7500  11.0000  16.0000 Du        
  24938 ****        11.7500  11.2500  14.7500 Du        
  24939 ****        11.7500  11.2500  15.0000 Du        
  24940 ****        11.7500  11.2500  15.2500 Du        
  24941 ****        11.7500  11.2500  15.5000 Du        
  24942 ****        11.7500  11.2500  15.7500 Du        
  24943 ****        11.7500  11.5000  14.7500 Du        
  24944 ****        11.7500  11.5000  15.0000 Du        
  24945 ****        11.7500  11.5000  15.2500 Du        
  24946 ****        11.7500  11.7500  14.0000 Du        
  24947 ****        11.7500  11.7500  14.2500 Du        
  24948 ****        11.7500  11.7500  14.5000 Du        
  24949 ****        11.7500  11.7500  14.7500 Du        
  24950 ****        11.7500  11.7500  15.0000 Du        
  24951 ****        11.7500  11.7500  15.2500 Du        
  24952 ****        11.7500  12.0000  13.7500 Du        
  24953 ****        11.7500  12.0000  14.0000 Du        
  24954 ****        11.7500  12.0000  14.2500 Du        
  24955 ****        11.7500  12.0000  14.5000 Du        
  24956 ****        11.7500  12.0000  14.7500 Du        
  24957 ****        11.7500  12.0000  15.0000 Du        
  24958 ****        11.7500  12.0000  15.2500 Du        
  24959 ****        11.7500  12.2500  13.5000 Du        
  24960 ****        11.7500  12.2500  13.7500 Du        
  24961 ****        11.7500  12.2500  14.0000 Du        
  24962 ****        11.7500  12.2500  14.2500 Du        
  24963 ****        11.7500  12.2500  14.5000 Du        
  24964 ****        11.7500  12.2500  14.7500 Du        
  24965 ****        11.7500  12.2500  15.0000 Du        
  24966 ****        11.7500  12.5000  13.0000 Du        
  24967 ****        11.7500  12.5000  13.2500 Du        
  24968 ****        11.7500  12.5000  13.5000 Du        
  24969 ****        11.7500  12.5000  13.7500 Du        
  24970 ****        11.7500  12.5000  14.0000 Du        
  24971 ****        11.7500  12.5000  14.2500 Du        
  24972 ****        11.7500  12.5000  14.5000 Du        
  24973 ****        11.7500  12.5000  14.7500 Du        
  24974 ****        11.7500  12.5000  15.0000 Du        
  24975 ****        11.7500  12.7500   8.2500 Du        
  24976 ****        11.7500  12.7500   8.5000 Du        
  24977 ****        11.7500  12.7500   8.7500 Du        
  24978 ****        11.7500  12.7500   9.0000 Du        
  24979 ****        11.7500  12.7500  13.0000 Du        
  24980 ****        11.7500  12.7500  13.2500 Du        
  24981 ****        11.7500  12.7500  13.5000 Du        
  24982 ****        11.7500  12.7500  13.7500 Du        
  24983 ****        11.7500  12.7500  14.0000 Du        
  24984 ****        11.7500  12.7500  14.2500 Du        
  24985 ****        11.7500  12.7500  14.5000 Du        
  24986 ****        11.7500  12.7500  14.7500 Du        
  24987 ****        11.7500  12.7500  15.0000 Du        
  24988 ****        11.7500  13.0000   8.0000 Du        
  24989 ****        11.7500  13.0000   8.2500 Du        
  24990 ****        11.7500  13.0000   8.5000 Du        
  24991 ****        11.7500  13.0000   8.7500 Du        
  24992 ****        11.7500  13.0000   9.0000 Du        
  24993 ****        11.7500  13.0000   9.2500 Du        
  24994 ****        11.7500  13.0000  13.0000 Du        
  24995 ****        11.7500  13.0000  13.2500 Du        
  24996 ****        11.7500  13.0000  13.5000 Du        
  24997 ****        11.7500  13.0000  13.7500 Du        
  24998 ****        11.7500  13.0000  14.0000 Du        
  24999 ****        11.7500  13.0000  14.2500 Du        
  25000 ****        11.7500  13.0000  14.5000 Du        
  25001 ****        11.7500  13.0000  14.7500 Du        
  25002 ****        11.7500  13.0000  15.0000 Du        
  25003 ****        11.7500  13.2500   7.7500 Du        
  25004 ****        11.7500  13.2500   8.0000 Du        
  25005 ****        11.7500  13.2500   8.2500 Du        
  25006 ****        11.7500  13.2500   8.5000 Du        
  25007 ****        11.7500  13.2500   8.7500 Du        
  25008 ****        11.7500  13.2500   9.0000 Du        
  25009 ****        11.7500  13.2500   9.2500 Du        
  25010 ****        11.7500  13.2500  13.0000 Du        
  25011 ****        11.7500  13.2500  13.2500 Du        
  25012 ****        11.7500  13.2500  13.5000 Du        
  25013 ****        11.7500  13.2500  13.7500 Du        
  25014 ****        11.7500  13.2500  14.0000 Du        
  25015 ****        11.7500  13.2500  14.2500 Du        
  25016 ****        11.7500  13.2500  14.5000 Du        
  25017 ****        11.7500  13.2500  14.7500 Du        
  25018 ****        11.7500  13.5000   8.2500 Du        
  25019 ****        11.7500  13.5000   8.5000 Du        
  25020 ****        11.7500  13.5000   8.7500 Du        
  25021 ****        11.7500  13.5000  13.2500 Du        
  25022 ****        11.7500  13.5000  13.5000 Du        
  25023 ****        11.7500  13.5000  13.7500 Du        
  25024 ****        11.7500  13.5000  14.0000 Du        
  25025 ****        11.7500  13.5000  14.2500 Du        
  25026 ****        11.7500  13.5000  14.5000 Du        
  25027 ****        11.7500  13.5000  14.7500 Du        
  25028 ****        11.7500  13.7500  13.7500 Du        
  25029 ****        11.7500  14.2500   4.5000 Du        
  25030 ****        11.7500  14.2500   4.7500 Du        
  25031 ****        11.7500  14.5000   4.2500 Du        
  25032 ****        11.7500  14.5000   4.5000 Du        
  25033 ****        11.7500  14.5000   4.7500 Du        
  25034 ****        11.7500  14.5000   5.0000 Du        
  25035 ****        11.7500  14.7500   4.2500 Du        
  25036 ****        11.7500  14.7500   4.5000 Du        
  25037 ****        11.7500  14.7500   4.7500 Du        
  25038 ****        11.7500  14.7500   5.0000 Du        
  25039 ****        11.7500  15.0000   4.2500 Du        
  25040 ****        11.7500  15.0000   4.5000 Du        
  25041 ****        11.7500  15.0000   4.7500 Du        
  25042 ****        11.7500  15.0000   5.0000 Du        
  25043 ****        11.7500  15.2500   4.5000 Du        
  25044 ****        11.7500  16.2500  37.7500 Du        
  25045 ****        11.7500  16.5000  37.5000 Du        
  25046 ****        11.7500  16.5000  37.7500 Du        
  25047 ****        11.7500  16.5000  38.0000 Du        
  25048 ****        11.7500  16.7500  37.2500 Du        
  25049 ****        11.7500  16.7500  37.5000 Du        
  25050 ****        11.7500  16.7500  37.7500 Du        
  25051 ****        11.7500  16.7500  38.0000 Du        
  25052 ****        11.7500  16.7500  38.2500 Du        
  25053 ****        11.7500  17.0000  37.2500 Du        
  25054 ****        11.7500  17.0000  37.5000 Du        
  25055 ****        11.7500  17.0000  37.7500 Du        
  25056 ****        11.7500  17.0000  38.0000 Du        
  25057 ****        11.7500  17.0000  38.2500 Du        
  25058 ****        11.7500  17.2500  37.2500 Du        
  25059 ****        11.7500  17.2500  37.5000 Du        
  25060 ****        11.7500  17.2500  37.7500 Du        
  25061 ****        11.7500  17.2500  38.0000 Du        
  25062 ****        11.7500  17.2500  38.2500 Du        
  25063 ****        11.7500  17.5000  37.7500 Du        
  25064 ****        11.7500  17.5000  38.0000 Du        
  25065 ****        11.7500  17.7500  37.7500 Du        
  25066 ****        11.7500  17.7500  38.0000 Du        
  25067 ****        11.7500  18.0000  37.2500 Du        
  25068 ****        11.7500  18.2500  37.2500 Du        
  25069 ****        11.7500  18.7500  37.0000 Du        
  25070 ****        11.7500  19.0000  36.7500 Du        
  25071 ****        11.7500  19.0000  37.0000 Du        
  25072 ****        11.7500  19.2500  36.7500 Du        
  25073 ****        11.7500  19.2500  37.0000 Du        
  25074 ****        11.7500  19.5000  36.7500 Du        
  25075 ****        11.7500  19.5000  37.0000 Du        
  25076 ****        11.7500  19.5000  37.2500 Du        
  25077 ****        11.7500  19.7500  37.0000 Du        
  25078 ****        11.7500  19.7500  37.2500 Du        
  25079 ****        12.0000  -4.0000  25.5000 Du        
  25080 ****        12.0000  -4.0000  25.7500 Du        
  25081 ****        12.0000  -4.0000  26.0000 Du        
  25082 ****        12.0000  -3.7500  25.5000 Du        
  25083 ****        12.0000  -3.7500  25.7500 Du        
  25084 ****        12.0000  -3.5000  25.5000 Du        
  25085 ****        12.0000   2.0000  -3.7500 Du        
  25086 ****        12.0000   2.0000  -3.5000 Du        
  25087 ****        12.0000   2.0000  -3.2500 Du        
  25088 ****        12.0000   2.0000  -3.0000 Du        
  25089 ****        12.0000   2.0000  -2.7500 Du        
  25090 ****        12.0000   2.0000  -2.5000 Du        
  25091 ****        12.0000   2.0000  -2.2500 Du        
  25092 ****        12.0000   2.2500  -3.7500 Du        
  25093 ****        12.0000   2.2500  -3.5000 Du        
  25094 ****        12.0000   2.2500  -3.2500 Du        
  25095 ****        12.0000   2.2500  -3.0000 Du        
  25096 ****        12.0000   2.2500  -2.7500 Du        
  25097 ****        12.0000   2.2500  -2.5000 Du        
  25098 ****        12.0000   2.2500  -2.2500 Du        
  25099 ****        12.0000   2.2500  -2.0000 Du        
  25100 ****        12.0000   2.5000  -3.5000 Du        
  25101 ****        12.0000   2.5000  -3.2500 Du        
  25102 ****        12.0000   2.5000  -3.0000 Du        
  25103 ****        12.0000   2.5000  -2.7500 Du        
  25104 ****        12.0000   2.5000  -2.5000 Du        
  25105 ****        12.0000   2.5000  -2.2500 Du        
  25106 ****        12.0000   2.5000  -2.0000 Du        
  25107 ****        12.0000   2.5000  -1.7500 Du        
  25108 ****        12.0000   2.7500  -3.2500 Du        
  25109 ****        12.0000   2.7500  -3.0000 Du        
  25110 ****        12.0000   2.7500  -2.7500 Du        
  25111 ****        12.0000   2.7500  -2.5000 Du        
  25112 ****        12.0000   2.7500  -2.2500 Du        
  25113 ****        12.0000   2.7500  -2.0000 Du        
  25114 ****        12.0000   2.7500  -1.7500 Du        
  25115 ****        12.0000   3.0000  -3.0000 Du        
  25116 ****        12.0000   3.0000  -2.7500 Du        
  25117 ****        12.0000   3.0000  -2.5000 Du        
  25118 ****        12.0000   3.0000  -2.2500 Du        
  25119 ****        12.0000   3.0000  -2.0000 Du        
  25120 ****        12.0000   3.0000  -1.7500 Du        
  25121 ****        12.0000   3.2500  -2.7500 Du        
  25122 ****        12.0000   3.2500  -2.5000 Du        
  25123 ****        12.0000   3.2500  -2.2500 Du        
  25124 ****        12.0000   3.2500  -2.0000 Du        
  25125 ****        12.0000   3.2500  -1.7500 Du        
  25126 ****        12.0000   3.5000  -2.5000 Du        
  25127 ****        12.0000   3.5000  -2.2500 Du        
  25128 ****        12.0000   4.7500   7.7500 Du        
  25129 ****        12.0000   4.7500   8.0000 Du        
  25130 ****        12.0000   7.5000  25.2500 Du        
  25131 ****        12.0000   7.5000  25.5000 Du        
  25132 ****        12.0000   7.5000  25.7500 Du        
  25133 ****        12.0000   7.5000  26.0000 Du        
  25134 ****        12.0000   7.7500  25.2500 Du        
  25135 ****        12.0000   7.7500  25.5000 Du        
  25136 ****        12.0000   7.7500  25.7500 Du        
  25137 ****        12.0000   7.7500  26.0000 Du        
  25138 ****        12.0000   7.7500  26.2500 Du        
  25139 ****        12.0000   7.7500  26.5000 Du        
  25140 ****        12.0000   8.0000  25.2500 Du        
  25141 ****        12.0000   8.0000  25.5000 Du        
  25142 ****        12.0000   8.0000  25.7500 Du        
  25143 ****        12.0000   8.0000  26.0000 Du        
  25144 ****        12.0000   8.0000  26.2500 Du        
  25145 ****        12.0000   8.2500  25.5000 Du        
  25146 ****        12.0000   8.2500  25.7500 Du        
  25147 ****        12.0000   9.0000  18.7500 Du        
  25148 ****        12.0000   9.0000  19.0000 Du        
  25149 ****        12.0000   9.0000  19.5000 Du        
  25150 ****        12.0000   9.2500  18.5000 Du        
  25151 ****        12.0000   9.2500  18.7500 Du        
  25152 ****        12.0000   9.2500  19.0000 Du        
  25153 ****        12.0000   9.2500  19.2500 Du        
  25154 ****        12.0000   9.2500  19.5000 Du        
  25155 ****        12.0000   9.5000  18.5000 Du        
  25156 ****        12.0000   9.5000  18.7500 Du        
  25157 ****        12.0000   9.5000  19.0000 Du        
  25158 ****        12.0000   9.5000  19.2500 Du        
  25159 ****        12.0000   9.5000  19.5000 Du        
  25160 ****        12.0000   9.7500  17.2500 Du        
  25161 ****        12.0000   9.7500  18.0000 Du        
  25162 ****        12.0000   9.7500  18.2500 Du        
  25163 ****        12.0000   9.7500  18.5000 Du        
  25164 ****        12.0000   9.7500  18.7500 Du        
  25165 ****        12.0000   9.7500  19.0000 Du        
  25166 ****        12.0000   9.7500  19.2500 Du        
  25167 ****        12.0000   9.7500  19.5000 Du        
  25168 ****        12.0000   9.7500  19.7500 Du        
  25169 ****        12.0000  10.0000  16.0000 Du        
  25170 ****        12.0000  10.0000  16.2500 Du        
  25171 ****        12.0000  10.0000  16.7500 Du        
  25172 ****        12.0000  10.0000  17.0000 Du        
  25173 ****        12.0000  10.0000  18.5000 Du        
  25174 ****        12.0000  10.0000  18.7500 Du        
  25175 ****        12.0000  10.0000  19.0000 Du        
  25176 ****        12.0000  10.0000  19.2500 Du        
  25177 ****        12.0000  10.0000  19.5000 Du        
  25178 ****        12.0000  10.2500  15.7500 Du        
  25179 ****        12.0000  10.2500  16.0000 Du        
  25180 ****        12.0000  10.2500  16.2500 Du        
  25181 ****        12.0000  10.2500  16.5000 Du        
  25182 ****        12.0000  10.2500  16.7500 Du        
  25183 ****        12.0000  10.2500  17.0000 Du        
  25184 ****        12.0000  10.5000  15.5000 Du        
  25185 ****        12.0000  10.5000  15.7500 Du        
  25186 ****        12.0000  10.5000  16.0000 Du        
  25187 ****        12.0000  10.5000  16.2500 Du        
  25188 ****        12.0000  10.7500  15.2500 Du        
  25189 ****        12.0000  10.7500  15.5000 Du        
  25190 ****        12.0000  10.7500  15.7500 Du        
  25191 ****        12.0000  10.7500  16.0000 Du        
  25192 ****        12.0000  10.7500  16.2500 Du        
  25193 ****        12.0000  11.0000  15.0000 Du        
  25194 ****        12.0000  11.0000  15.2500 Du        
  25195 ****        12.0000  11.0000  15.5000 Du        
  25196 ****        12.0000  11.0000  15.7500 Du        
  25197 ****        12.0000  11.0000  16.0000 Du        
  25198 ****        12.0000  11.0000  16.2500 Du        
  25199 ****        12.0000  11.2500  15.0000 Du        
  25200 ****        12.0000  11.2500  15.2500 Du        
  25201 ****        12.0000  11.2500  15.5000 Du        
  25202 ****        12.0000  11.2500  15.7500 Du        
  25203 ****        12.0000  11.2500  16.0000 Du        
  25204 ****        12.0000  11.5000  14.7500 Du        
  25205 ****        12.0000  11.5000  15.0000 Du        
  25206 ****        12.0000  11.5000  15.2500 Du        
  25207 ****        12.0000  11.5000  15.5000 Du        
  25208 ****        12.0000  11.7500  14.2500 Du        
  25209 ****        12.0000  11.7500  14.7500 Du        
  25210 ****        12.0000  11.7500  15.0000 Du        
  25211 ****        12.0000  11.7500  15.2500 Du        
  25212 ****        12.0000  11.7500  15.5000 Du        
  25213 ****        12.0000  12.0000  13.7500 Du        
  25214 ****        12.0000  12.0000  14.0000 Du        
  25215 ****        12.0000  12.0000  14.2500 Du        
  25216 ****        12.0000  12.0000  14.5000 Du        
  25217 ****        12.0000  12.0000  14.7500 Du        
  25218 ****        12.0000  12.0000  15.0000 Du        
  25219 ****        12.0000  12.0000  15.2500 Du        
  25220 ****        12.0000  12.2500  13.5000 Du        
  25221 ****        12.0000  12.2500  13.7500 Du        
  25222 ****        12.0000  12.2500  14.0000 Du        
  25223 ****        12.0000  12.2500  14.2500 Du        
  25224 ****        12.0000  12.2500  14.5000 Du        
  25225 ****        12.0000  12.2500  14.7500 Du        
  25226 ****        12.0000  12.2500  15.0000 Du        
  25227 ****        12.0000  12.2500  15.2500 Du        
  25228 ****        12.0000  12.5000  13.0000 Du        
  25229 ****        12.0000  12.5000  13.2500 Du        
  25230 ****        12.0000  12.5000  13.5000 Du        
  25231 ****        12.0000  12.5000  13.7500 Du        
  25232 ****        12.0000  12.5000  14.0000 Du        
  25233 ****        12.0000  12.5000  14.2500 Du        
  25234 ****        12.0000  12.5000  14.5000 Du        
  25235 ****        12.0000  12.5000  14.7500 Du        
  25236 ****        12.0000  12.5000  15.0000 Du        
  25237 ****        12.0000  12.7500   8.2500 Du        
  25238 ****        12.0000  12.7500   8.5000 Du        
  25239 ****        12.0000  12.7500   8.7500 Du        
  25240 ****        12.0000  12.7500   9.0000 Du        
  25241 ****        12.0000  12.7500  13.0000 Du        
  25242 ****        12.0000  12.7500  13.2500 Du        
  25243 ****        12.0000  12.7500  13.5000 Du        
  25244 ****        12.0000  12.7500  13.7500 Du        
  25245 ****        12.0000  12.7500  14.0000 Du        
  25246 ****        12.0000  12.7500  14.2500 Du        
  25247 ****        12.0000  12.7500  14.5000 Du        
  25248 ****        12.0000  12.7500  14.7500 Du        
  25249 ****        12.0000  12.7500  15.0000 Du        
  25250 ****        12.0000  13.0000   8.0000 Du        
  25251 ****        12.0000  13.0000   8.2500 Du        
  25252 ****        12.0000  13.0000   8.5000 Du        
  25253 ****        12.0000  13.0000   8.7500 Du        
  25254 ****        12.0000  13.0000   9.0000 Du        
  25255 ****        12.0000  13.0000   9.2500 Du        
  25256 ****        12.0000  13.0000  13.0000 Du        
  25257 ****        12.0000  13.0000  13.2500 Du        
  25258 ****        12.0000  13.0000  13.5000 Du        
  25259 ****        12.0000  13.0000  13.7500 Du        
  25260 ****        12.0000  13.0000  14.0000 Du        
  25261 ****        12.0000  13.0000  14.2500 Du        
  25262 ****        12.0000  13.0000  14.5000 Du        
  25263 ****        12.0000  13.0000  14.7500 Du        
  25264 ****        12.0000  13.0000  15.0000 Du        
  25265 ****        12.0000  13.2500   8.0000 Du        
  25266 ****        12.0000  13.2500   8.2500 Du        
  25267 ****        12.0000  13.2500   8.5000 Du        
  25268 ****        12.0000  13.2500   8.7500 Du        
  25269 ****        12.0000  13.2500   9.0000 Du        
  25270 ****        12.0000  13.2500  13.0000 Du        
  25271 ****        12.0000  13.2500  13.2500 Du        
  25272 ****        12.0000  13.2500  13.5000 Du        
  25273 ****        12.0000  13.2500  13.7500 Du        
  25274 ****        12.0000  13.2500  14.0000 Du        
  25275 ****        12.0000  13.2500  14.2500 Du        
  25276 ****        12.0000  13.2500  14.5000 Du        
  25277 ****        12.0000  13.2500  14.7500 Du        
  25278 ****        12.0000  13.2500  15.0000 Du        
  25279 ****        12.0000  13.5000  13.5000 Du        
  25280 ****        12.0000  13.5000  13.7500 Du        
  25281 ****        12.0000  13.5000  14.0000 Du        
  25282 ****        12.0000  13.5000  14.2500 Du        
  25283 ****        12.0000  13.5000  14.5000 Du        
  25284 ****        12.0000  13.5000  14.7500 Du        
  25285 ****        12.0000  13.7500  13.7500 Du        
  25286 ****        12.0000  13.7500  14.0000 Du        
  25287 ****        12.0000  16.2500  37.7500 Du        
  25288 ****        12.0000  16.5000  37.7500 Du        
  25289 ****        12.0000  16.5000  38.0000 Du        
  25290 ****        12.0000  16.7500  37.5000 Du        
  25291 ****        12.0000  16.7500  37.7500 Du        
  25292 ****        12.0000  16.7500  38.0000 Du        
  25293 ****        12.0000  16.7500  38.2500 Du        
  25294 ****        12.0000  17.0000  37.5000 Du        
  25295 ****        12.0000  17.0000  37.7500 Du        
  25296 ****        12.0000  17.0000  38.0000 Du        
  25297 ****        12.0000  17.0000  38.2500 Du        
  25298 ****        12.0000  17.2500  37.7500 Du        
  25299 ****        12.0000  17.2500  38.0000 Du        
  25300 ****        12.0000  17.2500  38.2500 Du        
  25301 ****        12.0000  17.5000  37.7500 Du        
  25302 ****        12.0000  19.0000  36.7500 Du        
  25303 ****        12.0000  19.0000  37.0000 Du        
  25304 ****        12.0000  19.2500  36.2500 Du        
  25305 ****        12.0000  19.2500  36.5000 Du        
  25306 ****        12.0000  19.2500  36.7500 Du        
  25307 ****        12.0000  19.2500  37.0000 Du        
  25308 ****        12.0000  19.5000  36.2500 Du        
  25309 ****        12.0000  19.5000  36.5000 Du        
  25310 ****        12.0000  19.5000  36.7500 Du        
  25311 ****        12.0000  19.5000  37.0000 Du        
  25312 ****        12.0000  19.7500  36.2500 Du        
  25313 ****        12.0000  19.7500  36.5000 Du        
  25314 ****        12.0000  19.7500  36.7500 Du        
  25315 ****        12.0000  19.7500  37.0000 Du        
  25316 ****        12.0000  19.7500  37.2500 Du        
  25317 ****        12.0000  20.0000  36.7500 Du        
  25318 ****        12.0000  20.0000  37.0000 Du        
  25319 ****        12.2500  -4.0000  25.5000 Du        
  25320 ****        12.2500  -4.0000  25.7500 Du        
  25321 ****        12.2500  -3.7500  25.5000 Du        
  25322 ****        12.2500   1.7500  -2.7500 Du        
  25323 ****        12.2500   1.7500  -2.5000 Du        
  25324 ****        12.2500   1.7500  -2.2500 Du        
  25325 ****        12.2500   2.0000  -3.2500 Du        
  25326 ****        12.2500   2.0000  -3.0000 Du        
  25327 ****        12.2500   2.0000  -2.7500 Du        
  25328 ****        12.2500   2.0000  -2.5000 Du        
  25329 ****        12.2500   2.0000  -2.2500 Du        
  25330 ****        12.2500   2.0000  -2.0000 Du        
  25331 ****        12.2500   2.0000  -1.7500 Du        
  25332 ****        12.2500   2.2500  -3.7500 Du        
  25333 ****        12.2500   2.2500  -3.5000 Du        
  25334 ****        12.2500   2.2500  -3.2500 Du        
  25335 ****        12.2500   2.2500  -3.0000 Du        
  25336 ****        12.2500   2.2500  -2.7500 Du        
  25337 ****        12.2500   2.2500  -2.5000 Du        
  25338 ****        12.2500   2.2500  -2.2500 Du        
  25339 ****        12.2500   2.2500  -2.0000 Du        
  25340 ****        12.2500   2.2500  -1.7500 Du        
  25341 ****        12.2500   2.2500  -1.5000 Du        
  25342 ****        12.2500   2.5000  -3.5000 Du        
  25343 ****        12.2500   2.5000  -3.2500 Du        
  25344 ****        12.2500   2.5000  -3.0000 Du        
  25345 ****        12.2500   2.5000  -2.7500 Du        
  25346 ****        12.2500   2.5000  -2.5000 Du        
  25347 ****        12.2500   2.5000  -2.2500 Du        
  25348 ****        12.2500   2.5000  -2.0000 Du        
  25349 ****        12.2500   2.5000  -1.7500 Du        
  25350 ****        12.2500   2.5000  -1.5000 Du        
  25351 ****        12.2500   2.7500  -3.2500 Du        
  25352 ****        12.2500   2.7500  -3.0000 Du        
  25353 ****        12.2500   2.7500  -2.7500 Du        
  25354 ****        12.2500   2.7500  -2.5000 Du        
  25355 ****        12.2500   2.7500  -2.2500 Du        
  25356 ****        12.2500   2.7500  -2.0000 Du        
  25357 ****        12.2500   2.7500  -1.7500 Du        
  25358 ****        12.2500   2.7500  -1.5000 Du        
  25359 ****        12.2500   3.0000  -3.0000 Du        
  25360 ****        12.2500   3.0000  -2.7500 Du        
  25361 ****        12.2500   3.0000  -2.5000 Du        
  25362 ****        12.2500   3.0000  -2.2500 Du        
  25363 ****        12.2500   3.0000  -2.0000 Du        
  25364 ****        12.2500   3.0000  -1.7500 Du        
  25365 ****        12.2500   3.0000  -1.5000 Du        
  25366 ****        12.2500   3.2500  -2.7500 Du        
  25367 ****        12.2500   3.2500  -2.5000 Du        
  25368 ****        12.2500   3.2500  -2.2500 Du        
  25369 ****        12.2500   3.2500  -2.0000 Du        
  25370 ****        12.2500   3.2500  -1.7500 Du        
  25371 ****        12.2500   3.2500  -1.5000 Du        
  25372 ****        12.2500   3.5000  -2.5000 Du        
  25373 ****        12.2500   3.5000  -2.2500 Du        
  25374 ****        12.2500   3.5000  -2.0000 Du        
  25375 ****        12.2500   3.5000  -1.7500 Du        
  25376 ****        12.2500   4.5000   8.0000 Du        
  25377 ****        12.2500   4.5000   8.2500 Du        
  25378 ****        12.2500   4.7500   7.7500 Du        
  25379 ****        12.2500   4.7500   8.0000 Du        
  25380 ****        12.2500   4.7500   8.2500 Du        
  25381 ****        12.2500   7.7500  25.2500 Du        
  25382 ****        12.2500   7.7500  25.5000 Du        
  25383 ****        12.2500   7.7500  25.7500 Du        
  25384 ****        12.2500   7.7500  26.0000 Du        
  25385 ****        12.2500   7.7500  26.2500 Du        
  25386 ****        12.2500   7.7500  26.5000 Du        
  25387 ****        12.2500   8.0000  25.2500 Du        
  25388 ****        12.2500   8.0000  25.5000 Du        
  25389 ****        12.2500   8.0000  25.7500 Du        
  25390 ****        12.2500   8.0000  26.0000 Du        
  25391 ****        12.2500   8.0000  26.2500 Du        
  25392 ****        12.2500   8.0000  26.5000 Du        
  25393 ****        12.2500   8.2500  25.2500 Du        
  25394 ****        12.2500   8.2500  25.5000 Du        
  25395 ****        12.2500   8.2500  25.7500 Du        
  25396 ****        12.2500   8.2500  26.0000 Du        
  25397 ****        12.2500   8.5000  25.7500 Du        
  25398 ****        12.2500   9.0000  18.7500 Du        
  25399 ****        12.2500   9.0000  19.0000 Du        
  25400 ****        12.2500   9.0000  19.2500 Du        
  25401 ****        12.2500   9.0000  19.5000 Du        
  25402 ****        12.2500   9.0000  19.7500 Du        
  25403 ****        12.2500   9.2500  18.5000 Du        
  25404 ****        12.2500   9.2500  18.7500 Du        
  25405 ****        12.2500   9.2500  19.0000 Du        
  25406 ****        12.2500   9.2500  19.2500 Du        
  25407 ****        12.2500   9.2500  19.5000 Du        
  25408 ****        12.2500   9.2500  19.7500 Du        
  25409 ****        12.2500   9.5000  18.2500 Du        
  25410 ****        12.2500   9.5000  18.5000 Du        
  25411 ****        12.2500   9.5000  18.7500 Du        
  25412 ****        12.2500   9.5000  19.0000 Du        
  25413 ****        12.2500   9.5000  19.2500 Du        
  25414 ****        12.2500   9.5000  19.5000 Du        
  25415 ****        12.2500   9.5000  19.7500 Du        
  25416 ****        12.2500   9.7500  16.2500 Du        
  25417 ****        12.2500   9.7500  17.0000 Du        
  25418 ****        12.2500   9.7500  17.2500 Du        
  25419 ****        12.2500   9.7500  18.0000 Du        
  25420 ****        12.2500   9.7500  18.2500 Du        
  25421 ****        12.2500   9.7500  18.5000 Du        
  25422 ****        12.2500   9.7500  18.7500 Du        
  25423 ****        12.2500   9.7500  19.0000 Du        
  25424 ****        12.2500   9.7500  19.2500 Du        
  25425 ****        12.2500   9.7500  19.5000 Du        
  25426 ****        12.2500   9.7500  19.7500 Du        
  25427 ****        12.2500  10.0000  16.0000 Du        
  25428 ****        12.2500  10.0000  16.2500 Du        
  25429 ****        12.2500  10.0000  16.5000 Du        
  25430 ****        12.2500  10.0000  16.7500 Du        
  25431 ****        12.2500  10.0000  17.0000 Du        
  25432 ****        12.2500  10.0000  17.2500 Du        
  25433 ****        12.2500  10.0000  17.7500 Du        
  25434 ****        12.2500  10.0000  18.0000 Du        
  25435 ****        12.2500  10.0000  18.2500 Du        
  25436 ****        12.2500  10.0000  18.5000 Du        
  25437 ****        12.2500  10.0000  18.7500 Du        
  25438 ****        12.2500  10.0000  19.0000 Du        
  25439 ****        12.2500  10.0000  19.2500 Du        
  25440 ****        12.2500  10.0000  19.5000 Du        
  25441 ****        12.2500  10.2500  15.7500 Du        
  25442 ****        12.2500  10.2500  16.0000 Du        
  25443 ****        12.2500  10.2500  16.2500 Du        
  25444 ****        12.2500  10.2500  16.5000 Du        
  25445 ****        12.2500  10.2500  16.7500 Du        
  25446 ****        12.2500  10.2500  17.0000 Du        
  25447 ****        12.2500  10.2500  17.2500 Du        
  25448 ****        12.2500  10.5000  15.7500 Du        
  25449 ****        12.2500  10.5000  16.0000 Du        
  25450 ****        12.2500  10.5000  16.2500 Du        
  25451 ****        12.2500  10.5000  17.0000 Du        
  25452 ****        12.2500  10.5000  17.2500 Du        
  25453 ****        12.2500  10.7500  15.2500 Du        
  25454 ****        12.2500  10.7500  15.5000 Du        
  25455 ****        12.2500  10.7500  15.7500 Du        
  25456 ****        12.2500  10.7500  16.0000 Du        
  25457 ****        12.2500  10.7500  16.2500 Du        
  25458 ****        12.2500  10.7500  16.5000 Du        
  25459 ****        12.2500  11.0000  15.2500 Du        
  25460 ****        12.2500  11.0000  15.5000 Du        
  25461 ****        12.2500  11.0000  15.7500 Du        
  25462 ****        12.2500  11.0000  16.0000 Du        
  25463 ****        12.2500  11.0000  16.2500 Du        
  25464 ****        12.2500  11.2500  15.0000 Du        
  25465 ****        12.2500  11.2500  15.2500 Du        
  25466 ****        12.2500  11.2500  15.5000 Du        
  25467 ****        12.2500  11.2500  15.7500 Du        
  25468 ****        12.2500  11.2500  16.0000 Du        
  25469 ****        12.2500  11.2500  16.2500 Du        
  25470 ****        12.2500  11.5000  15.0000 Du        
  25471 ****        12.2500  11.5000  15.2500 Du        
  25472 ****        12.2500  11.5000  15.5000 Du        
  25473 ****        12.2500  11.5000  15.7500 Du        
  25474 ****        12.2500  11.7500  14.7500 Du        
  25475 ****        12.2500  11.7500  15.0000 Du        
  25476 ****        12.2500  11.7500  15.2500 Du        
  25477 ****        12.2500  11.7500  15.5000 Du        
  25478 ****        12.2500  12.0000  13.7500 Du        
  25479 ****        12.2500  12.0000  14.0000 Du        
  25480 ****        12.2500  12.0000  14.2500 Du        
  25481 ****        12.2500  12.0000  14.5000 Du        
  25482 ****        12.2500  12.0000  14.7500 Du        
  25483 ****        12.2500  12.0000  15.0000 Du        
  25484 ****        12.2500  12.0000  15.2500 Du        
  25485 ****        12.2500  12.2500  13.7500 Du        
  25486 ****        12.2500  12.2500  14.0000 Du        
  25487 ****        12.2500  12.2500  14.2500 Du        
  25488 ****        12.2500  12.2500  14.5000 Du        
  25489 ****        12.2500  12.2500  14.7500 Du        
  25490 ****        12.2500  12.2500  15.0000 Du        
  25491 ****        12.2500  12.2500  15.2500 Du        
  25492 ****        12.2500  12.5000  13.5000 Du        
  25493 ****        12.2500  12.5000  13.7500 Du        
  25494 ****        12.2500  12.5000  14.0000 Du        
  25495 ****        12.2500  12.5000  14.2500 Du        
  25496 ****        12.2500  12.5000  14.5000 Du        
  25497 ****        12.2500  12.5000  14.7500 Du        
  25498 ****        12.2500  12.5000  15.0000 Du        
  25499 ****        12.2500  12.5000  15.2500 Du        
  25500 ****        12.2500  12.7500   8.5000 Du        
  25501 ****        12.2500  12.7500   8.7500 Du        
  25502 ****        12.2500  12.7500   9.0000 Du        
  25503 ****        12.2500  12.7500  13.0000 Du        
  25504 ****        12.2500  12.7500  13.2500 Du        
  25505 ****        12.2500  12.7500  13.5000 Du        
  25506 ****        12.2500  12.7500  13.7500 Du        
  25507 ****        12.2500  12.7500  14.0000 Du        
  25508 ****        12.2500  12.7500  14.2500 Du        
  25509 ****        12.2500  12.7500  14.5000 Du        
  25510 ****        12.2500  12.7500  14.7500 Du        
  25511 ****        12.2500  12.7500  15.0000 Du        
  25512 ****        12.2500  12.7500  15.2500 Du        
  25513 ****        12.2500  13.0000   8.2500 Du        
  25514 ****        12.2500  13.0000   8.5000 Du        
  25515 ****        12.2500  13.0000   8.7500 Du        
  25516 ****        12.2500  13.0000   9.0000 Du        
  25517 ****        12.2500  13.0000   9.2500 Du        
  25518 ****        12.2500  13.0000  13.0000 Du        
  25519 ****        12.2500  13.0000  13.2500 Du        
  25520 ****        12.2500  13.0000  13.5000 Du        
  25521 ****        12.2500  13.0000  13.7500 Du        
  25522 ****        12.2500  13.0000  14.0000 Du        
  25523 ****        12.2500  13.0000  14.2500 Du        
  25524 ****        12.2500  13.0000  14.5000 Du        
  25525 ****        12.2500  13.0000  14.7500 Du        
  25526 ****        12.2500  13.0000  15.0000 Du        
  25527 ****        12.2500  13.2500   8.2500 Du        
  25528 ****        12.2500  13.2500   8.5000 Du        
  25529 ****        12.2500  13.2500   8.7500 Du        
  25530 ****        12.2500  13.2500   9.0000 Du        
  25531 ****        12.2500  13.2500  13.0000 Du        
  25532 ****        12.2500  13.2500  13.2500 Du        
  25533 ****        12.2500  13.2500  13.5000 Du        
  25534 ****        12.2500  13.2500  13.7500 Du        
  25535 ****        12.2500  13.2500  14.0000 Du        
  25536 ****        12.2500  13.2500  14.2500 Du        
  25537 ****        12.2500  13.2500  14.5000 Du        
  25538 ****        12.2500  13.2500  14.7500 Du        
  25539 ****        12.2500  13.2500  15.0000 Du        
  25540 ****        12.2500  13.5000  13.5000 Du        
  25541 ****        12.2500  13.5000  13.7500 Du        
  25542 ****        12.2500  13.5000  14.0000 Du        
  25543 ****        12.2500  13.5000  14.2500 Du        
  25544 ****        12.2500  13.5000  14.5000 Du        
  25545 ****        12.2500  13.5000  14.7500 Du        
  25546 ****        12.2500  13.5000  15.0000 Du        
  25547 ****        12.2500  13.7500  13.5000 Du        
  25548 ****        12.2500  13.7500  13.7500 Du        
  25549 ****        12.2500  13.7500  14.0000 Du        
  25550 ****        12.2500  13.7500  14.2500 Du        
  25551 ****        12.2500  13.7500  14.5000 Du        
  25552 ****        12.2500  13.7500  14.7500 Du        
  25553 ****        12.2500  16.2500  37.7500 Du        
  25554 ****        12.2500  16.2500  38.0000 Du        
  25555 ****        12.2500  16.5000  37.7500 Du        
  25556 ****        12.2500  16.5000  38.0000 Du        
  25557 ****        12.2500  16.7500  37.7500 Du        
  25558 ****        12.2500  16.7500  38.0000 Du        
  25559 ****        12.2500  16.7500  38.2500 Du        
  25560 ****        12.2500  16.7500  38.5000 Du        
  25561 ****        12.2500  17.0000  37.7500 Du        
  25562 ****        12.2500  17.0000  38.0000 Du        
  25563 ****        12.2500  17.0000  38.2500 Du        
  25564 ****        12.2500  17.0000  38.5000 Du        
  25565 ****        12.2500  17.0000  38.7500 Du        
  25566 ****        12.2500  17.2500  37.7500 Du        
  25567 ****        12.2500  17.2500  38.0000 Du        
  25568 ****        12.2500  17.2500  38.2500 Du        
  25569 ****        12.2500  19.2500  36.2500 Du        
  25570 ****        12.2500  19.5000  36.2500 Du        
  25571 ****        12.2500  19.5000  36.5000 Du        
  25572 ****        12.2500  19.5000  36.7500 Du        
  25573 ****        12.2500  19.5000  37.0000 Du        
  25574 ****        12.2500  19.7500  36.0000 Du        
  25575 ****        12.2500  19.7500  36.2500 Du        
  25576 ****        12.2500  19.7500  36.5000 Du        
  25577 ****        12.2500  19.7500  36.7500 Du        
  25578 ****        12.2500  19.7500  37.0000 Du        
  25579 ****        12.2500  20.0000  36.0000 Du        
  25580 ****        12.2500  20.0000  36.2500 Du        
  25581 ****        12.2500  20.0000  36.5000 Du        
  25582 ****        12.2500  20.0000  36.7500 Du        
  25583 ****        12.2500  20.0000  37.0000 Du        
  25584 ****        12.2500  20.2500  36.2500 Du        
  25585 ****        12.2500  20.2500  36.5000 Du        
  25586 ****        12.2500  20.2500  36.7500 Du        
  25587 ****        12.2500  20.2500  37.0000 Du        
  25588 ****        12.5000   2.0000  -2.7500 Du        
  25589 ****        12.5000   2.0000  -2.5000 Du        
  25590 ****        12.5000   2.0000  -2.2500 Du        
  25591 ****        12.5000   2.0000  -2.0000 Du        
  25592 ****        12.5000   2.0000  -1.7500 Du        
  25593 ****        12.5000   2.0000  -1.5000 Du        
  25594 ****        12.5000   2.2500  -3.2500 Du        
  25595 ****        12.5000   2.2500  -3.0000 Du        
  25596 ****        12.5000   2.2500  -2.7500 Du        
  25597 ****        12.5000   2.2500  -2.5000 Du        
  25598 ****        12.5000   2.2500  -2.2500 Du        
  25599 ****        12.5000   2.2500  -2.0000 Du        
  25600 ****        12.5000   2.2500  -1.7500 Du        
  25601 ****        12.5000   2.2500  -1.5000 Du        
  25602 ****        12.5000   2.2500  -1.2500 Du        
  25603 ****        12.5000   2.5000  -3.2500 Du        
  25604 ****        12.5000   2.5000  -3.0000 Du        
  25605 ****        12.5000   2.5000  -2.7500 Du        
  25606 ****        12.5000   2.5000  -2.5000 Du        
  25607 ****        12.5000   2.5000  -2.2500 Du        
  25608 ****        12.5000   2.5000  -2.0000 Du        
  25609 ****        12.5000   2.5000  -1.7500 Du        
  25610 ****        12.5000   2.5000  -1.5000 Du        
  25611 ****        12.5000   2.5000  -1.2500 Du        
  25612 ****        12.5000   2.5000  -1.0000 Du        
  25613 ****        12.5000   2.7500  -3.0000 Du        
  25614 ****        12.5000   2.7500  -2.7500 Du        
  25615 ****        12.5000   2.7500  -2.5000 Du        
  25616 ****        12.5000   2.7500  -2.2500 Du        
  25617 ****        12.5000   2.7500  -2.0000 Du        
  25618 ****        12.5000   2.7500  -1.7500 Du        
  25619 ****        12.5000   2.7500  -1.5000 Du        
  25620 ****        12.5000   2.7500  -1.2500 Du        
  25621 ****        12.5000   2.7500  -1.0000 Du        
  25622 ****        12.5000   3.0000  -2.7500 Du        
  25623 ****        12.5000   3.0000  -2.5000 Du        
  25624 ****        12.5000   3.0000  -2.2500 Du        
  25625 ****        12.5000   3.0000  -2.0000 Du        
  25626 ****        12.5000   3.0000  -1.7500 Du        
  25627 ****        12.5000   3.0000  -1.5000 Du        
  25628 ****        12.5000   3.0000  -1.2500 Du        
  25629 ****        12.5000   3.2500  -2.5000 Du        
  25630 ****        12.5000   3.2500  -2.2500 Du        
  25631 ****        12.5000   3.2500  -2.0000 Du        
  25632 ****        12.5000   3.2500  -1.7500 Du        
  25633 ****        12.5000   3.2500  -1.5000 Du        
  25634 ****        12.5000   3.2500  -1.2500 Du        
  25635 ****        12.5000   3.5000  -2.2500 Du        
  25636 ****        12.5000   3.5000  -2.0000 Du        
  25637 ****        12.5000   3.5000  -1.7500 Du        
  25638 ****        12.5000   3.5000  -1.5000 Du        
  25639 ****        12.5000   4.5000   7.5000 Du        
  25640 ****        12.5000   4.5000   7.7500 Du        
  25641 ****        12.5000   4.5000   8.0000 Du        
  25642 ****        12.5000   4.5000   8.2500 Du        
  25643 ****        12.5000   4.7500   7.5000 Du        
  25644 ****        12.5000   4.7500   7.7500 Du        
  25645 ****        12.5000   4.7500   8.0000 Du        
  25646 ****        12.5000   4.7500   8.2500 Du        
  25647 ****        12.5000   5.0000   7.5000 Du        
  25648 ****        12.5000   5.0000   7.7500 Du        
  25649 ****        12.5000   7.7500  25.2500 Du        
  25650 ****        12.5000   7.7500  25.5000 Du        
  25651 ****        12.5000   7.7500  25.7500 Du        
  25652 ****        12.5000   7.7500  26.0000 Du        
  25653 ****        12.5000   7.7500  26.2500 Du        
  25654 ****        12.5000   8.0000  25.0000 Du        
  25655 ****        12.5000   8.0000  25.2500 Du        
  25656 ****        12.5000   8.0000  25.5000 Du        
  25657 ****        12.5000   8.0000  25.7500 Du        
  25658 ****        12.5000   8.0000  26.0000 Du        
  25659 ****        12.5000   8.0000  26.2500 Du        
  25660 ****        12.5000   8.0000  26.5000 Du        
  25661 ****        12.5000   8.2500  25.2500 Du        
  25662 ****        12.5000   8.2500  25.5000 Du        
  25663 ****        12.5000   8.2500  25.7500 Du        
  25664 ****        12.5000   8.2500  26.0000 Du        
  25665 ****        12.5000   8.2500  26.2500 Du        
  25666 ****        12.5000   8.5000  19.7500 Du        
  25667 ****        12.5000   8.5000  20.0000 Du        
  25668 ****        12.5000   8.5000  25.2500 Du        
  25669 ****        12.5000   8.5000  25.5000 Du        
  25670 ****        12.5000   8.5000  25.7500 Du        
  25671 ****        12.5000   8.5000  26.0000 Du        
  25672 ****        12.5000   8.7500  19.0000 Du        
  25673 ****        12.5000   8.7500  19.2500 Du        
  25674 ****        12.5000   8.7500  19.5000 Du        
  25675 ****        12.5000   8.7500  19.7500 Du        
  25676 ****        12.5000   8.7500  20.0000 Du        
  25677 ****        12.5000   9.0000  18.7500 Du        
  25678 ****        12.5000   9.0000  19.0000 Du        
  25679 ****        12.5000   9.0000  19.2500 Du        
  25680 ****        12.5000   9.0000  19.5000 Du        
  25681 ****        12.5000   9.0000  19.7500 Du        
  25682 ****        12.5000   9.0000  20.0000 Du        
  25683 ****        12.5000   9.2500  18.5000 Du        
  25684 ****        12.5000   9.2500  18.7500 Du        
  25685 ****        12.5000   9.2500  19.0000 Du        
  25686 ****        12.5000   9.2500  19.2500 Du        
  25687 ****        12.5000   9.2500  19.5000 Du        
  25688 ****        12.5000   9.2500  19.7500 Du        
  25689 ****        12.5000   9.5000  16.2500 Du        
  25690 ****        12.5000   9.5000  16.7500 Du        
  25691 ****        12.5000   9.5000  17.0000 Du        
  25692 ****        12.5000   9.5000  17.2500 Du        
  25693 ****        12.5000   9.5000  18.0000 Du        
  25694 ****        12.5000   9.5000  18.2500 Du        
  25695 ****        12.5000   9.5000  18.5000 Du        
  25696 ****        12.5000   9.5000  18.7500 Du        
  25697 ****        12.5000   9.5000  19.0000 Du        
  25698 ****        12.5000   9.5000  19.2500 Du        
  25699 ****        12.5000   9.5000  19.5000 Du        
  25700 ****        12.5000   9.5000  19.7500 Du        
  25701 ****        12.5000   9.5000  20.0000 Du        
  25702 ****        12.5000   9.7500  16.2500 Du        
  25703 ****        12.5000   9.7500  16.5000 Du        
  25704 ****        12.5000   9.7500  16.7500 Du        
  25705 ****        12.5000   9.7500  17.0000 Du        
  25706 ****        12.5000   9.7500  17.2500 Du        
  25707 ****        12.5000   9.7500  17.5000 Du        
  25708 ****        12.5000   9.7500  17.7500 Du        
  25709 ****        12.5000   9.7500  18.0000 Du        
  25710 ****        12.5000   9.7500  18.2500 Du        
  25711 ****        12.5000   9.7500  18.5000 Du        
  25712 ****        12.5000   9.7500  18.7500 Du        
  25713 ****        12.5000   9.7500  19.0000 Du        
  25714 ****        12.5000   9.7500  19.2500 Du        
  25715 ****        12.5000   9.7500  19.5000 Du        
  25716 ****        12.5000   9.7500  19.7500 Du        
  25717 ****        12.5000  10.0000  16.0000 Du        
  25718 ****        12.5000  10.0000  16.2500 Du        
  25719 ****        12.5000  10.0000  16.5000 Du        
  25720 ****        12.5000  10.0000  16.7500 Du        
  25721 ****        12.5000  10.0000  17.0000 Du        
  25722 ****        12.5000  10.0000  17.2500 Du        
  25723 ****        12.5000  10.0000  17.5000 Du        
  25724 ****        12.5000  10.0000  17.7500 Du        
  25725 ****        12.5000  10.0000  18.0000 Du        
  25726 ****        12.5000  10.0000  18.2500 Du        
  25727 ****        12.5000  10.0000  18.5000 Du        
  25728 ****        12.5000  10.0000  18.7500 Du        
  25729 ****        12.5000  10.0000  19.0000 Du        
  25730 ****        12.5000  10.0000  19.2500 Du        
  25731 ****        12.5000  10.0000  19.5000 Du        
  25732 ****        12.5000  10.2500  16.0000 Du        
  25733 ****        12.5000  10.2500  16.2500 Du        
  25734 ****        12.5000  10.2500  16.5000 Du        
  25735 ****        12.5000  10.2500  16.7500 Du        
  25736 ****        12.5000  10.2500  17.0000 Du        
  25737 ****        12.5000  10.2500  17.2500 Du        
  25738 ****        12.5000  10.2500  17.5000 Du        
  25739 ****        12.5000  10.2500  17.7500 Du        
  25740 ****        12.5000  10.2500  18.0000 Du        
  25741 ****        12.5000  10.2500  18.5000 Du        
  25742 ****        12.5000  10.2500  18.7500 Du        
  25743 ****        12.5000  10.5000  15.7500 Du        
  25744 ****        12.5000  10.5000  16.0000 Du        
  25745 ****        12.5000  10.5000  16.2500 Du        
  25746 ****        12.5000  10.5000  16.5000 Du        
  25747 ****        12.5000  10.5000  16.7500 Du        
  25748 ****        12.5000  10.5000  17.0000 Du        
  25749 ****        12.5000  10.5000  17.2500 Du        
  25750 ****        12.5000  10.5000  17.5000 Du        
  25751 ****        12.5000  10.5000  17.7500 Du        
  25752 ****        12.5000  10.7500  15.5000 Du        
  25753 ****        12.5000  10.7500  15.7500 Du        
  25754 ****        12.5000  10.7500  16.0000 Du        
  25755 ****        12.5000  10.7500  16.2500 Du        
  25756 ****        12.5000  10.7500  16.5000 Du        
  25757 ****        12.5000  10.7500  16.7500 Du        
  25758 ****        12.5000  10.7500  17.0000 Du        
  25759 ****        12.5000  11.0000  15.5000 Du        
  25760 ****        12.5000  11.0000  15.7500 Du        
  25761 ****        12.5000  11.0000  16.0000 Du        
  25762 ****        12.5000  11.0000  16.2500 Du        
  25763 ****        12.5000  11.2500  15.2500 Du        
  25764 ****        12.5000  11.2500  15.5000 Du        
  25765 ****        12.5000  11.2500  15.7500 Du        
  25766 ****        12.5000  11.2500  16.0000 Du        
  25767 ****        12.5000  11.2500  16.2500 Du        
  25768 ****        12.5000  11.5000  14.7500 Du        
  25769 ****        12.5000  11.5000  15.0000 Du        
  25770 ****        12.5000  11.5000  15.2500 Du        
  25771 ****        12.5000  11.5000  15.5000 Du        
  25772 ****        12.5000  11.5000  15.7500 Du        
  25773 ****        12.5000  11.5000  16.0000 Du        
  25774 ****        12.5000  11.7500  14.5000 Du        
  25775 ****        12.5000  11.7500  14.7500 Du        
  25776 ****        12.5000  11.7500  15.0000 Du        
  25777 ****        12.5000  11.7500  15.2500 Du        
  25778 ****        12.5000  11.7500  15.5000 Du        
  25779 ****        12.5000  11.7500  15.7500 Du        
  25780 ****        12.5000  12.0000  14.0000 Du        
  25781 ****        12.5000  12.0000  14.2500 Du        
  25782 ****        12.5000  12.0000  14.5000 Du        
  25783 ****        12.5000  12.0000  14.7500 Du        
  25784 ****        12.5000  12.0000  15.0000 Du        
  25785 ****        12.5000  12.0000  15.2500 Du        
  25786 ****        12.5000  12.0000  15.5000 Du        
  25787 ****        12.5000  12.2500  13.7500 Du        
  25788 ****        12.5000  12.2500  14.0000 Du        
  25789 ****        12.5000  12.2500  14.2500 Du        
  25790 ****        12.5000  12.2500  14.5000 Du        
  25791 ****        12.5000  12.2500  14.7500 Du        
  25792 ****        12.5000  12.2500  15.0000 Du        
  25793 ****        12.5000  12.2500  15.2500 Du        
  25794 ****        12.5000  12.5000  13.5000 Du        
  25795 ****        12.5000  12.5000  13.7500 Du        
  25796 ****        12.5000  12.5000  14.0000 Du        
  25797 ****        12.5000  12.5000  14.2500 Du        
  25798 ****        12.5000  12.5000  14.5000 Du        
  25799 ****        12.5000  12.5000  14.7500 Du        
  25800 ****        12.5000  12.5000  15.0000 Du        
  25801 ****        12.5000  12.5000  15.2500 Du        
  25802 ****        12.5000  12.7500   8.5000 Du        
  25803 ****        12.5000  12.7500   8.7500 Du        
  25804 ****        12.5000  12.7500   9.0000 Du        
  25805 ****        12.5000  12.7500  13.0000 Du        
  25806 ****        12.5000  12.7500  13.2500 Du        
  25807 ****        12.5000  12.7500  13.5000 Du        
  25808 ****        12.5000  12.7500  13.7500 Du        
  25809 ****        12.5000  12.7500  14.0000 Du        
  25810 ****        12.5000  12.7500  14.2500 Du        
  25811 ****        12.5000  12.7500  14.5000 Du        
  25812 ****        12.5000  12.7500  14.7500 Du        
  25813 ****        12.5000  12.7500  15.0000 Du        
  25814 ****        12.5000  12.7500  15.2500 Du        
  25815 ****        12.5000  13.0000   8.5000 Du        
  25816 ****        12.5000  13.0000   8.7500 Du        
  25817 ****        12.5000  13.0000   9.0000 Du        
  25818 ****        12.5000  13.0000   9.2500 Du        
  25819 ****        12.5000  13.0000  13.0000 Du        
  25820 ****        12.5000  13.0000  13.2500 Du        
  25821 ****        12.5000  13.0000  13.5000 Du        
  25822 ****        12.5000  13.0000  13.7500 Du        
  25823 ****        12.5000  13.0000  14.0000 Du        
  25824 ****        12.5000  13.0000  14.2500 Du        
  25825 ****        12.5000  13.0000  14.5000 Du        
  25826 ****        12.5000  13.0000  14.7500 Du        
  25827 ****        12.5000  13.0000  15.0000 Du        
  25828 ****        12.5000  13.0000  15.2500 Du        
  25829 ****        12.5000  13.2500   8.7500 Du        
  25830 ****        12.5000  13.2500   9.0000 Du        
  25831 ****        12.5000  13.2500  13.2500 Du        
  25832 ****        12.5000  13.2500  13.5000 Du        
  25833 ****        12.5000  13.2500  13.7500 Du        
  25834 ****        12.5000  13.2500  14.0000 Du        
  25835 ****        12.5000  13.2500  14.2500 Du        
  25836 ****        12.5000  13.2500  14.5000 Du        
  25837 ****        12.5000  13.2500  14.7500 Du        
  25838 ****        12.5000  13.2500  15.0000 Du        
  25839 ****        12.5000  13.5000  13.5000 Du        
  25840 ****        12.5000  13.5000  13.7500 Du        
  25841 ****        12.5000  13.5000  14.0000 Du        
  25842 ****        12.5000  13.5000  14.2500 Du        
  25843 ****        12.5000  13.5000  14.5000 Du        
  25844 ****        12.5000  13.5000  14.7500 Du        
  25845 ****        12.5000  13.5000  15.0000 Du        
  25846 ****        12.5000  13.7500  13.5000 Du        
  25847 ****        12.5000  13.7500  13.7500 Du        
  25848 ****        12.5000  13.7500  14.0000 Du        
  25849 ****        12.5000  13.7500  14.2500 Du        
  25850 ****        12.5000  13.7500  14.5000 Du        
  25851 ****        12.5000  13.7500  14.7500 Du        
  25852 ****        12.5000  13.7500  15.0000 Du        
  25853 ****        12.5000  16.2500  38.0000 Du        
  25854 ****        12.5000  16.5000  37.7500 Du        
  25855 ****        12.5000  16.5000  38.0000 Du        
  25856 ****        12.5000  16.7500  37.7500 Du        
  25857 ****        12.5000  16.7500  38.0000 Du        
  25858 ****        12.5000  16.7500  38.2500 Du        
  25859 ****        12.5000  17.0000  38.0000 Du        
  25860 ****        12.5000  17.0000  38.2500 Du        
  25861 ****        12.5000  19.5000  36.0000 Du        
  25862 ****        12.5000  19.5000  36.2500 Du        
  25863 ****        12.5000  19.5000  36.5000 Du        
  25864 ****        12.5000  19.5000  36.7500 Du        
  25865 ****        12.5000  19.7500  35.7500 Du        
  25866 ****        12.5000  19.7500  36.0000 Du        
  25867 ****        12.5000  19.7500  36.2500 Du        
  25868 ****        12.5000  19.7500  36.5000 Du        
  25869 ****        12.5000  19.7500  36.7500 Du        
  25870 ****        12.5000  19.7500  37.0000 Du        
  25871 ****        12.5000  20.0000  35.7500 Du        
  25872 ****        12.5000  20.0000  36.0000 Du        
  25873 ****        12.5000  20.0000  36.2500 Du        
  25874 ****        12.5000  20.0000  36.5000 Du        
  25875 ****        12.5000  20.0000  36.7500 Du        
  25876 ****        12.5000  20.0000  37.0000 Du        
  25877 ****        12.5000  20.2500  35.7500 Du        
  25878 ****        12.5000  20.2500  36.0000 Du        
  25879 ****        12.5000  20.2500  36.2500 Du        
  25880 ****        12.5000  20.2500  36.5000 Du        
  25881 ****        12.5000  20.2500  36.7500 Du        
  25882 ****        12.5000  20.2500  37.0000 Du        
  25883 ****        12.5000  20.5000  36.2500 Du        
  25884 ****        12.7500   1.7500  -1.7500 Du        
  25885 ****        12.7500   1.7500  -1.2500 Du        
  25886 ****        12.7500   2.0000  -2.5000 Du        
  25887 ****        12.7500   2.0000  -2.2500 Du        
  25888 ****        12.7500   2.0000  -2.0000 Du        
  25889 ****        12.7500   2.0000  -1.7500 Du        
  25890 ****        12.7500   2.0000  -1.5000 Du        
  25891 ****        12.7500   2.0000  -1.2500 Du        
  25892 ****        12.7500   2.0000  -1.0000 Du        
  25893 ****        12.7500   2.2500  -3.0000 Du        
  25894 ****        12.7500   2.2500  -2.7500 Du        
  25895 ****        12.7500   2.2500  -2.5000 Du        
  25896 ****        12.7500   2.2500  -2.2500 Du        
  25897 ****        12.7500   2.2500  -2.0000 Du        
  25898 ****        12.7500   2.2500  -1.7500 Du        
  25899 ****        12.7500   2.2500  -1.5000 Du        
  25900 ****        12.7500   2.2500  -1.2500 Du        
  25901 ****        12.7500   2.2500  -1.0000 Du        
  25902 ****        12.7500   2.5000  -3.2500 Du        
  25903 ****        12.7500   2.5000  -3.0000 Du        
  25904 ****        12.7500   2.5000  -2.7500 Du        
  25905 ****        12.7500   2.5000  -2.5000 Du        
  25906 ****        12.7500   2.5000  -2.2500 Du        
  25907 ****        12.7500   2.5000  -2.0000 Du        
  25908 ****        12.7500   2.5000  -1.7500 Du        
  25909 ****        12.7500   2.5000  -1.5000 Du        
  25910 ****        12.7500   2.5000  -1.2500 Du        
  25911 ****        12.7500   2.5000  -1.0000 Du        
  25912 ****        12.7500   2.5000  -0.7500 Du        
  25913 ****        12.7500   2.7500  -3.0000 Du        
  25914 ****        12.7500   2.7500  -2.7500 Du        
  25915 ****        12.7500   2.7500  -2.5000 Du        
  25916 ****        12.7500   2.7500  -2.2500 Du        
  25917 ****        12.7500   2.7500  -2.0000 Du        
  25918 ****        12.7500   2.7500  -1.7500 Du        
  25919 ****        12.7500   2.7500  -1.5000 Du        
  25920 ****        12.7500   2.7500  -1.2500 Du        
  25921 ****        12.7500   2.7500  -1.0000 Du        
  25922 ****        12.7500   3.0000  -2.7500 Du        
  25923 ****        12.7500   3.0000  -2.5000 Du        
  25924 ****        12.7500   3.0000  -2.2500 Du        
  25925 ****        12.7500   3.0000  -2.0000 Du        
  25926 ****        12.7500   3.0000  -1.7500 Du        
  25927 ****        12.7500   3.0000  -1.5000 Du        
  25928 ****        12.7500   3.0000  -1.2500 Du        
  25929 ****        12.7500   3.0000  -1.0000 Du        
  25930 ****        12.7500   3.2500  -2.5000 Du        
  25931 ****        12.7500   3.2500  -2.2500 Du        
  25932 ****        12.7500   3.2500  -2.0000 Du        
  25933 ****        12.7500   3.2500  -1.7500 Du        
  25934 ****        12.7500   3.2500  -1.5000 Du        
  25935 ****        12.7500   3.2500  -1.2500 Du        
  25936 ****        12.7500   3.5000  -2.2500 Du        
  25937 ****        12.7500   3.5000  -2.0000 Du        
  25938 ****        12.7500   3.5000  -1.7500 Du        
  25939 ****        12.7500   3.5000  -1.5000 Du        
  25940 ****        12.7500   4.2500   8.0000 Du        
  25941 ****        12.7500   4.2500   8.2500 Du        
  25942 ****        12.7500   4.5000   7.5000 Du        
  25943 ****        12.7500   4.5000   7.7500 Du        
  25944 ****        12.7500   4.5000   8.0000 Du        
  25945 ****        12.7500   4.5000   8.2500 Du        
  25946 ****        12.7500   4.5000   8.5000 Du        
  25947 ****        12.7500   4.5000   8.7500 Du        
  25948 ****        12.7500   4.5000   9.0000 Du        
  25949 ****        12.7500   4.7500   7.5000 Du        
  25950 ****        12.7500   4.7500   7.7500 Du        
  25951 ****        12.7500   4.7500   8.0000 Du        
  25952 ****        12.7500   4.7500   8.2500 Du        
  25953 ****        12.7500   4.7500   8.5000 Du        
  25954 ****        12.7500   4.7500   8.7500 Du        
  25955 ****        12.7500   5.0000   7.2500 Du        
  25956 ****        12.7500   5.0000   7.5000 Du        
  25957 ****        12.7500   5.0000   7.7500 Du        
  25958 ****        12.7500   5.0000   8.0000 Du        
  25959 ****        12.7500   5.0000   8.2500 Du        
  25960 ****        12.7500   5.2500   7.2500 Du        
  25961 ****        12.7500   5.2500   7.5000 Du        
  25962 ****        12.7500   7.5000  20.2500 Du        
  25963 ****        12.7500   7.7500  20.0000 Du        
  25964 ****        12.7500   7.7500  20.2500 Du        
  25965 ****        12.7500   7.7500  25.7500 Du        
  25966 ****        12.7500   8.0000  20.0000 Du        
  25967 ****        12.7500   8.0000  20.2500 Du        
  25968 ****        12.7500   8.0000  25.0000 Du        
  25969 ****        12.7500   8.0000  25.2500 Du        
  25970 ****        12.7500   8.0000  25.5000 Du        
  25971 ****        12.7500   8.0000  25.7500 Du        
  25972 ****        12.7500   8.0000  26.0000 Du        
  25973 ****        12.7500   8.0000  26.2500 Du        
  25974 ****        12.7500   8.0000  26.5000 Du        
  25975 ****        12.7500   8.2500  19.7500 Du        
  25976 ****        12.7500   8.2500  20.0000 Du        
  25977 ****        12.7500   8.2500  20.2500 Du        
  25978 ****        12.7500   8.2500  25.0000 Du        
  25979 ****        12.7500   8.2500  25.2500 Du        
  25980 ****        12.7500   8.2500  25.5000 Du        
  25981 ****        12.7500   8.2500  25.7500 Du        
  25982 ****        12.7500   8.2500  26.0000 Du        
  25983 ****        12.7500   8.2500  26.2500 Du        
  25984 ****        12.7500   8.2500  26.5000 Du        
  25985 ****        12.7500   8.5000  19.7500 Du        
  25986 ****        12.7500   8.5000  20.0000 Du        
  25987 ****        12.7500   8.5000  25.0000 Du        
  25988 ****        12.7500   8.5000  25.2500 Du        
  25989 ****        12.7500   8.5000  25.5000 Du        
  25990 ****        12.7500   8.5000  25.7500 Du        
  25991 ****        12.7500   8.5000  26.0000 Du        
  25992 ****        12.7500   8.5000  26.2500 Du        
  25993 ****        12.7500   8.7500  19.2500 Du        
  25994 ****        12.7500   8.7500  19.5000 Du        
  25995 ****        12.7500   8.7500  19.7500 Du        
  25996 ****        12.7500   8.7500  20.0000 Du        
  25997 ****        12.7500   8.7500  20.2500 Du        
  25998 ****        12.7500   9.0000  19.0000 Du        
  25999 ****        12.7500   9.0000  19.2500 Du        
  26000 ****        12.7500   9.0000  19.5000 Du        
  26001 ****        12.7500   9.0000  19.7500 Du        
  26002 ****        12.7500   9.0000  20.0000 Du        
  26003 ****        12.7500   9.0000  20.2500 Du        
  26004 ****        12.7500   9.2500  18.7500 Du        
  26005 ****        12.7500   9.2500  19.0000 Du        
  26006 ****        12.7500   9.2500  19.2500 Du        
  26007 ****        12.7500   9.2500  19.5000 Du        
  26008 ****        12.7500   9.2500  19.7500 Du        
  26009 ****        12.7500   9.2500  20.0000 Du        
  26010 ****        12.7500   9.5000  16.2500 Du        
  26011 ****        12.7500   9.5000  17.0000 Du        
  26012 ****        12.7500   9.5000  18.5000 Du        
  26013 ****        12.7500   9.5000  18.7500 Du        
  26014 ****        12.7500   9.5000  19.0000 Du        
  26015 ****        12.7500   9.5000  19.2500 Du        
  26016 ****        12.7500   9.5000  19.5000 Du        
  26017 ****        12.7500   9.5000  19.7500 Du        
  26018 ****        12.7500   9.5000  20.0000 Du        
  26019 ****        12.7500   9.7500  16.2500 Du        
  26020 ****        12.7500   9.7500  16.5000 Du        
  26021 ****        12.7500   9.7500  16.7500 Du        
  26022 ****        12.7500   9.7500  17.0000 Du        
  26023 ****        12.7500   9.7500  17.2500 Du        
  26024 ****        12.7500   9.7500  17.5000 Du        
  26025 ****        12.7500   9.7500  17.7500 Du        
  26026 ****        12.7500   9.7500  18.0000 Du        
  26027 ****        12.7500   9.7500  18.2500 Du        
  26028 ****        12.7500   9.7500  18.5000 Du        
  26029 ****        12.7500   9.7500  18.7500 Du        
  26030 ****        12.7500   9.7500  19.0000 Du        
  26031 ****        12.7500   9.7500  19.2500 Du        
  26032 ****        12.7500   9.7500  19.5000 Du        
  26033 ****        12.7500   9.7500  19.7500 Du        
  26034 ****        12.7500   9.7500  20.0000 Du        
  26035 ****        12.7500  10.0000  16.0000 Du        
  26036 ****        12.7500  10.0000  16.2500 Du        
  26037 ****        12.7500  10.0000  16.5000 Du        
  26038 ****        12.7500  10.0000  16.7500 Du        
  26039 ****        12.7500  10.0000  17.0000 Du        
  26040 ****        12.7500  10.0000  17.2500 Du        
  26041 ****        12.7500  10.0000  17.5000 Du        
  26042 ****        12.7500  10.0000  17.7500 Du        
  26043 ****        12.7500  10.0000  18.0000 Du        
  26044 ****        12.7500  10.0000  18.2500 Du        
  26045 ****        12.7500  10.0000  18.5000 Du        
  26046 ****        12.7500  10.0000  18.7500 Du        
  26047 ****        12.7500  10.0000  19.0000 Du        
  26048 ****        12.7500  10.0000  19.2500 Du        
  26049 ****        12.7500  10.0000  19.5000 Du        
  26050 ****        12.7500  10.2500  16.0000 Du        
  26051 ****        12.7500  10.2500  16.2500 Du        
  26052 ****        12.7500  10.2500  16.5000 Du        
  26053 ****        12.7500  10.2500  16.7500 Du        
  26054 ****        12.7500  10.2500  17.0000 Du        
  26055 ****        12.7500  10.2500  17.2500 Du        
  26056 ****        12.7500  10.2500  17.5000 Du        
  26057 ****        12.7500  10.2500  17.7500 Du        
  26058 ****        12.7500  10.5000  15.7500 Du        
  26059 ****        12.7500  10.5000  16.0000 Du        
  26060 ****        12.7500  10.5000  16.2500 Du        
  26061 ****        12.7500  10.5000  16.5000 Du        
  26062 ****        12.7500  10.5000  16.7500 Du        
  26063 ****        12.7500  10.5000  17.0000 Du        
  26064 ****        12.7500  10.5000  17.2500 Du        
  26065 ****        12.7500  10.7500  15.5000 Du        
  26066 ****        12.7500  10.7500  15.7500 Du        
  26067 ****        12.7500  10.7500  16.0000 Du        
  26068 ****        12.7500  10.7500  16.2500 Du        
  26069 ****        12.7500  10.7500  16.5000 Du        
  26070 ****        12.7500  10.7500  16.7500 Du        
  26071 ****        12.7500  10.7500  17.0000 Du        
  26072 ****        12.7500  11.0000  15.2500 Du        
  26073 ****        12.7500  11.0000  15.5000 Du        
  26074 ****        12.7500  11.0000  15.7500 Du        
  26075 ****        12.7500  11.0000  16.0000 Du        
  26076 ****        12.7500  11.0000  16.2500 Du        
  26077 ****        12.7500  11.2500  15.2500 Du        
  26078 ****        12.7500  11.2500  15.5000 Du        
  26079 ****        12.7500  11.2500  15.7500 Du        
  26080 ****        12.7500  11.2500  16.0000 Du        
  26081 ****        12.7500  11.2500  16.2500 Du        
  26082 ****        12.7500  11.5000  15.0000 Du        
  26083 ****        12.7500  11.5000  15.2500 Du        
  26084 ****        12.7500  11.5000  15.5000 Du        
  26085 ****        12.7500  11.5000  15.7500 Du        
  26086 ****        12.7500  11.5000  16.0000 Du        
  26087 ****        12.7500  11.7500  14.7500 Du        
  26088 ****        12.7500  11.7500  15.0000 Du        
  26089 ****        12.7500  11.7500  15.2500 Du        
  26090 ****        12.7500  11.7500  15.5000 Du        
  26091 ****        12.7500  11.7500  15.7500 Du        
  26092 ****        12.7500  11.7500  16.0000 Du        
  26093 ****        12.7500  12.0000  14.0000 Du        
  26094 ****        12.7500  12.0000  14.2500 Du        
  26095 ****        12.7500  12.0000  14.5000 Du        
  26096 ****        12.7500  12.0000  14.7500 Du        
  26097 ****        12.7500  12.0000  15.0000 Du        
  26098 ****        12.7500  12.0000  15.2500 Du        
  26099 ****        12.7500  12.0000  15.5000 Du        
  26100 ****        12.7500  12.0000  15.7500 Du        
  26101 ****        12.7500  12.2500  13.5000 Du        
  26102 ****        12.7500  12.2500  13.7500 Du        
  26103 ****        12.7500  12.2500  14.0000 Du        
  26104 ****        12.7500  12.2500  14.2500 Du        
  26105 ****        12.7500  12.2500  14.5000 Du        
  26106 ****        12.7500  12.2500  14.7500 Du        
  26107 ****        12.7500  12.2500  15.0000 Du        
  26108 ****        12.7500  12.2500  15.2500 Du        
  26109 ****        12.7500  12.2500  15.5000 Du        
  26110 ****        12.7500  12.5000  13.2500 Du        
  26111 ****        12.7500  12.5000  13.5000 Du        
  26112 ****        12.7500  12.5000  13.7500 Du        
  26113 ****        12.7500  12.5000  14.0000 Du        
  26114 ****        12.7500  12.5000  14.2500 Du        
  26115 ****        12.7500  12.5000  14.5000 Du        
  26116 ****        12.7500  12.5000  14.7500 Du        
  26117 ****        12.7500  12.5000  15.0000 Du        
  26118 ****        12.7500  12.5000  15.2500 Du        
  26119 ****        12.7500  12.5000  15.5000 Du        
  26120 ****        12.7500  12.7500   8.7500 Du        
  26121 ****        12.7500  12.7500   9.0000 Du        
  26122 ****        12.7500  12.7500   9.2500 Du        
  26123 ****        12.7500  12.7500  13.0000 Du        
  26124 ****        12.7500  12.7500  13.2500 Du        
  26125 ****        12.7500  12.7500  13.5000 Du        
  26126 ****        12.7500  12.7500  13.7500 Du        
  26127 ****        12.7500  12.7500  14.0000 Du        
  26128 ****        12.7500  12.7500  14.2500 Du        
  26129 ****        12.7500  12.7500  14.5000 Du        
  26130 ****        12.7500  12.7500  14.7500 Du        
  26131 ****        12.7500  12.7500  15.0000 Du        
  26132 ****        12.7500  12.7500  15.2500 Du        
  26133 ****        12.7500  12.7500  15.5000 Du        
  26134 ****        12.7500  13.0000   8.7500 Du        
  26135 ****        12.7500  13.0000   9.0000 Du        
  26136 ****        12.7500  13.0000   9.2500 Du        
  26137 ****        12.7500  13.0000   9.5000 Du        
  26138 ****        12.7500  13.0000  12.7500 Du        
  26139 ****        12.7500  13.0000  13.0000 Du        
  26140 ****        12.7500  13.0000  13.2500 Du        
  26141 ****        12.7500  13.0000  13.5000 Du        
  26142 ****        12.7500  13.0000  13.7500 Du        
  26143 ****        12.7500  13.0000  14.0000 Du        
  26144 ****        12.7500  13.0000  14.2500 Du        
  26145 ****        12.7500  13.0000  14.5000 Du        
  26146 ****        12.7500  13.0000  14.7500 Du        
  26147 ****        12.7500  13.0000  15.0000 Du        
  26148 ****        12.7500  13.0000  15.2500 Du        
  26149 ****        12.7500  13.2500  13.0000 Du        
  26150 ****        12.7500  13.2500  13.2500 Du        
  26151 ****        12.7500  13.2500  13.5000 Du        
  26152 ****        12.7500  13.2500  13.7500 Du        
  26153 ****        12.7500  13.2500  14.0000 Du        
  26154 ****        12.7500  13.2500  14.2500 Du        
  26155 ****        12.7500  13.2500  14.5000 Du        
  26156 ****        12.7500  13.2500  14.7500 Du        
  26157 ****        12.7500  13.2500  15.0000 Du        
  26158 ****        12.7500  13.2500  15.2500 Du        
  26159 ****        12.7500  13.5000  13.2500 Du        
  26160 ****        12.7500  13.5000  13.5000 Du        
  26161 ****        12.7500  13.5000  13.7500 Du        
  26162 ****        12.7500  13.5000  14.0000 Du        
  26163 ****        12.7500  13.5000  14.2500 Du        
  26164 ****        12.7500  13.5000  14.5000 Du        
  26165 ****        12.7500  13.5000  14.7500 Du        
  26166 ****        12.7500  13.5000  15.0000 Du        
  26167 ****        12.7500  13.5000  15.2500 Du        
  26168 ****        12.7500  13.7500  13.5000 Du        
  26169 ****        12.7500  13.7500  13.7500 Du        
  26170 ****        12.7500  13.7500  14.0000 Du        
  26171 ****        12.7500  13.7500  14.2500 Du        
  26172 ****        12.7500  13.7500  14.5000 Du        
  26173 ****        12.7500  13.7500  14.7500 Du        
  26174 ****        12.7500  13.7500  15.0000 Du        
  26175 ****        12.7500  13.7500  15.2500 Du        
  26176 ****        12.7500  14.0000  13.7500 Du        
  26177 ****        12.7500  14.0000  14.0000 Du        
  26178 ****        12.7500  14.0000  14.2500 Du        
  26179 ****        12.7500  14.0000  14.5000 Du        
  26180 ****        12.7500  14.0000  14.7500 Du        
  26181 ****        12.7500  16.2500  38.0000 Du        
  26182 ****        12.7500  16.2500  38.2500 Du        
  26183 ****        12.7500  16.5000  37.7500 Du        
  26184 ****        12.7500  16.5000  38.0000 Du        
  26185 ****        12.7500  16.5000  38.2500 Du        
  26186 ****        12.7500  16.7500  37.7500 Du        
  26187 ****        12.7500  16.7500  38.0000 Du        
  26188 ****        12.7500  16.7500  38.2500 Du        
  26189 ****        12.7500  17.0000  38.0000 Du        
  26190 ****        12.7500  17.0000  38.2500 Du        
  26191 ****        12.7500  19.5000  36.0000 Du        
  26192 ****        12.7500  19.5000  36.2500 Du        
  26193 ****        12.7500  19.5000  36.5000 Du        
  26194 ****        12.7500  19.7500  35.7500 Du        
  26195 ****        12.7500  19.7500  36.0000 Du        
  26196 ****        12.7500  19.7500  36.2500 Du        
  26197 ****        12.7500  19.7500  36.5000 Du        
  26198 ****        12.7500  19.7500  36.7500 Du        
  26199 ****        12.7500  19.7500  37.0000 Du        
  26200 ****        12.7500  20.0000  35.2500 Du        
  26201 ****        12.7500  20.0000  35.5000 Du        
  26202 ****        12.7500  20.0000  35.7500 Du        
  26203 ****        12.7500  20.0000  36.0000 Du        
  26204 ****        12.7500  20.0000  36.2500 Du        
  26205 ****        12.7500  20.0000  36.5000 Du        
  26206 ****        12.7500  20.0000  36.7500 Du        
  26207 ****        12.7500  20.0000  37.0000 Du        
  26208 ****        12.7500  20.2500  35.7500 Du        
  26209 ****        12.7500  20.2500  36.0000 Du        
  26210 ****        12.7500  20.2500  36.2500 Du        
  26211 ****        12.7500  20.2500  36.5000 Du        
  26212 ****        12.7500  20.2500  36.7500 Du        
  26213 ****        12.7500  20.5000  36.2500 Du        
  26214 ****        13.0000   1.7500  -1.7500 Du        
  26215 ****        13.0000   2.0000  -2.7500 Du        
  26216 ****        13.0000   2.0000  -2.5000 Du        
  26217 ****        13.0000   2.0000  -2.2500 Du        
  26218 ****        13.0000   2.0000  -2.0000 Du        
  26219 ****        13.0000   2.0000  -1.7500 Du        
  26220 ****        13.0000   2.0000  -1.5000 Du        
  26221 ****        13.0000   2.0000  -1.2500 Du        
  26222 ****        13.0000   2.0000  -1.0000 Du        
  26223 ****        13.0000   2.0000  -0.7500 Du        
  26224 ****        13.0000   2.2500  -3.0000 Du        
  26225 ****        13.0000   2.2500  -2.7500 Du        
  26226 ****        13.0000   2.2500  -2.5000 Du        
  26227 ****        13.0000   2.2500  -2.2500 Du        
  26228 ****        13.0000   2.2500  -2.0000 Du        
  26229 ****        13.0000   2.2500  -1.7500 Du        
  26230 ****        13.0000   2.2500  -1.5000 Du        
  26231 ****        13.0000   2.2500  -1.2500 Du        
  26232 ****        13.0000   2.2500  -1.0000 Du        
  26233 ****        13.0000   2.2500  -0.7500 Du        
  26234 ****        13.0000   2.5000  -3.0000 Du        
  26235 ****        13.0000   2.5000  -2.7500 Du        
  26236 ****        13.0000   2.5000  -2.5000 Du        
  26237 ****        13.0000   2.5000  -2.2500 Du        
  26238 ****        13.0000   2.5000  -2.0000 Du        
  26239 ****        13.0000   2.5000  -1.7500 Du        
  26240 ****        13.0000   2.5000  -1.5000 Du        
  26241 ****        13.0000   2.5000  -1.2500 Du        
  26242 ****        13.0000   2.5000  -1.0000 Du        
  26243 ****        13.0000   2.5000  -0.7500 Du        
  26244 ****        13.0000   2.7500  -2.7500 Du        
  26245 ****        13.0000   2.7500  -2.5000 Du        
  26246 ****        13.0000   2.7500  -2.2500 Du        
  26247 ****        13.0000   2.7500  -2.0000 Du        
  26248 ****        13.0000   2.7500  -1.7500 Du        
  26249 ****        13.0000   2.7500  -1.5000 Du        
  26250 ****        13.0000   2.7500  -1.2500 Du        
  26251 ****        13.0000   2.7500  -1.0000 Du        
  26252 ****        13.0000   2.7500  -0.7500 Du        
  26253 ****        13.0000   3.0000  -2.5000 Du        
  26254 ****        13.0000   3.0000  -2.2500 Du        
  26255 ****        13.0000   3.0000  -2.0000 Du        
  26256 ****        13.0000   3.0000  -1.7500 Du        
  26257 ****        13.0000   3.0000  -1.5000 Du        
  26258 ****        13.0000   3.0000  -1.2500 Du        
  26259 ****        13.0000   3.0000  -1.0000 Du        
  26260 ****        13.0000   3.2500  -2.2500 Du        
  26261 ****        13.0000   3.2500  -2.0000 Du        
  26262 ****        13.0000   3.2500  -1.7500 Du        
  26263 ****        13.0000   3.2500  -1.5000 Du        
  26264 ****        13.0000   3.2500  -1.2500 Du        
  26265 ****        13.0000   3.2500  -1.0000 Du        
  26266 ****        13.0000   3.5000  -2.2500 Du        
  26267 ****        13.0000   3.5000  -2.0000 Du        
  26268 ****        13.0000   3.5000  -1.7500 Du        
  26269 ****        13.0000   3.5000  -1.5000 Du        
  26270 ****        13.0000   4.0000   7.7500 Du        
  26271 ****        13.0000   4.0000   8.0000 Du        
  26272 ****        13.0000   4.2500   7.5000 Du        
  26273 ****        13.0000   4.2500   7.7500 Du        
  26274 ****        13.0000   4.2500   8.0000 Du        
  26275 ****        13.0000   4.2500   8.2500 Du        
  26276 ****        13.0000   4.5000   7.2500 Du        
  26277 ****        13.0000   4.5000   7.5000 Du        
  26278 ****        13.0000   4.5000   7.7500 Du        
  26279 ****        13.0000   4.5000   8.0000 Du        
  26280 ****        13.0000   4.5000   8.2500 Du        
  26281 ****        13.0000   4.5000   8.5000 Du        
  26282 ****        13.0000   4.5000   8.7500 Du        
  26283 ****        13.0000   4.5000   9.0000 Du        
  26284 ****        13.0000   4.7500   7.2500 Du        
  26285 ****        13.0000   4.7500   7.5000 Du        
  26286 ****        13.0000   4.7500   7.7500 Du        
  26287 ****        13.0000   4.7500   8.0000 Du        
  26288 ****        13.0000   4.7500   8.2500 Du        
  26289 ****        13.0000   4.7500   8.5000 Du        
  26290 ****        13.0000   4.7500   8.7500 Du        
  26291 ****        13.0000   4.7500   9.0000 Du        
  26292 ****        13.0000   4.7500   9.2500 Du        
  26293 ****        13.0000   5.0000   7.2500 Du        
  26294 ****        13.0000   5.0000   7.5000 Du        
  26295 ****        13.0000   5.0000   7.7500 Du        
  26296 ****        13.0000   5.0000   8.0000 Du        
  26297 ****        13.0000   5.0000   8.2500 Du        
  26298 ****        13.0000   5.0000   8.5000 Du        
  26299 ****        13.0000   5.0000   8.7500 Du        
  26300 ****        13.0000   5.0000   9.0000 Du        
  26301 ****        13.0000   5.2500   7.0000 Du        
  26302 ****        13.0000   5.2500   7.2500 Du        
  26303 ****        13.0000   5.2500   7.5000 Du        
  26304 ****        13.0000   5.2500   7.7500 Du        
  26305 ****        13.0000   5.2500   8.0000 Du        
  26306 ****        13.0000   5.5000   7.0000 Du        
  26307 ****        13.0000   5.5000   7.2500 Du        
  26308 ****        13.0000   5.5000   7.5000 Du        
  26309 ****        13.0000   5.7500   7.0000 Du        
  26310 ****        13.0000   5.7500   7.2500 Du        
  26311 ****        13.0000   6.0000   6.7500 Du        
  26312 ****        13.0000   7.7500  20.0000 Du        
  26313 ****        13.0000   7.7500  20.2500 Du        
  26314 ****        13.0000   7.7500  20.5000 Du        
  26315 ****        13.0000   8.0000  20.2500 Du        
  26316 ****        13.0000   8.0000  20.5000 Du        
  26317 ****        13.0000   8.0000  25.5000 Du        
  26318 ****        13.0000   8.0000  25.7500 Du        
  26319 ****        13.0000   8.0000  26.0000 Du        
  26320 ****        13.0000   8.0000  26.2500 Du        
  26321 ****        13.0000   8.2500  19.7500 Du        
  26322 ****        13.0000   8.2500  20.0000 Du        
  26323 ****        13.0000   8.2500  20.2500 Du        
  26324 ****        13.0000   8.2500  20.5000 Du        
  26325 ****        13.0000   8.2500  24.7500 Du        
  26326 ****        13.0000   8.2500  25.0000 Du        
  26327 ****        13.0000   8.2500  25.2500 Du        
  26328 ****        13.0000   8.2500  25.5000 Du        
  26329 ****        13.0000   8.2500  25.7500 Du        
  26330 ****        13.0000   8.2500  26.0000 Du        
  26331 ****        13.0000   8.2500  26.2500 Du        
  26332 ****        13.0000   8.2500  26.5000 Du        
  26333 ****        13.0000   8.5000  19.7500 Du        
  26334 ****        13.0000   8.5000  20.0000 Du        
  26335 ****        13.0000   8.5000  20.2500 Du        
  26336 ****        13.0000   8.5000  20.5000 Du        
  26337 ****        13.0000   8.5000  25.0000 Du        
  26338 ****        13.0000   8.5000  25.2500 Du        
  26339 ****        13.0000   8.5000  25.5000 Du        
  26340 ****        13.0000   8.5000  25.7500 Du        
  26341 ****        13.0000   8.5000  26.0000 Du        
  26342 ****        13.0000   8.5000  26.2500 Du        
  26343 ****        13.0000   8.5000  26.5000 Du        
  26344 ****        13.0000   8.7500  19.7500 Du        
  26345 ****        13.0000   8.7500  20.0000 Du        
  26346 ****        13.0000   8.7500  20.2500 Du        
  26347 ****        13.0000   8.7500  20.5000 Du        
  26348 ****        13.0000   8.7500  25.7500 Du        
  26349 ****        13.0000   8.7500  26.0000 Du        
  26350 ****        13.0000   9.0000  19.5000 Du        
  26351 ****        13.0000   9.0000  19.7500 Du        
  26352 ****        13.0000   9.0000  20.0000 Du        
  26353 ****        13.0000   9.0000  20.2500 Du        
  26354 ****        13.0000   9.0000  20.5000 Du        
  26355 ****        13.0000   9.2500  19.2500 Du        
  26356 ****        13.0000   9.2500  19.5000 Du        
  26357 ****        13.0000   9.2500  19.7500 Du        
  26358 ****        13.0000   9.2500  20.0000 Du        
  26359 ****        13.0000   9.2500  20.2500 Du        
  26360 ****        13.0000   9.5000  19.0000 Du        
  26361 ****        13.0000   9.5000  19.2500 Du        
  26362 ****        13.0000   9.5000  19.5000 Du        
  26363 ****        13.0000   9.5000  19.7500 Du        
  26364 ****        13.0000   9.5000  20.0000 Du        
  26365 ****        13.0000   9.5000  20.2500 Du        
  26366 ****        13.0000   9.7500  16.2500 Du        
  26367 ****        13.0000   9.7500  16.5000 Du        
  26368 ****        13.0000   9.7500  18.7500 Du        
  26369 ****        13.0000   9.7500  19.0000 Du        
  26370 ****        13.0000   9.7500  19.2500 Du        
  26371 ****        13.0000   9.7500  19.5000 Du        
  26372 ****        13.0000   9.7500  19.7500 Du        
  26373 ****        13.0000   9.7500  20.0000 Du        
  26374 ****        13.0000  10.0000  16.0000 Du        
  26375 ****        13.0000  10.0000  16.2500 Du        
  26376 ****        13.0000  10.0000  16.5000 Du        
  26377 ****        13.0000  10.0000  16.7500 Du        
  26378 ****        13.0000  10.0000  17.0000 Du        
  26379 ****        13.0000  10.2500  15.7500 Du        
  26380 ****        13.0000  10.2500  16.0000 Du        
  26381 ****        13.0000  10.2500  16.2500 Du        
  26382 ****        13.0000  10.2500  16.5000 Du        
  26383 ****        13.0000  10.2500  16.7500 Du        
  26384 ****        13.0000  10.2500  17.0000 Du        
  26385 ****        13.0000  10.5000  15.7500 Du        
  26386 ****        13.0000  10.5000  16.0000 Du        
  26387 ****        13.0000  10.5000  16.2500 Du        
  26388 ****        13.0000  10.5000  16.5000 Du        
  26389 ****        13.0000  10.5000  16.7500 Du        
  26390 ****        13.0000  10.7500  15.5000 Du        
  26391 ****        13.0000  10.7500  15.7500 Du        
  26392 ****        13.0000  10.7500  16.0000 Du        
  26393 ****        13.0000  10.7500  16.2500 Du        
  26394 ****        13.0000  10.7500  16.5000 Du        
  26395 ****        13.0000  11.0000  15.2500 Du        
  26396 ****        13.0000  11.0000  15.5000 Du        
  26397 ****        13.0000  11.0000  15.7500 Du        
  26398 ****        13.0000  11.0000  16.0000 Du        
  26399 ****        13.0000  11.0000  16.2500 Du        
  26400 ****        13.0000  11.2500  15.2500 Du        
  26401 ****        13.0000  11.2500  15.5000 Du        
  26402 ****        13.0000  11.2500  15.7500 Du        
  26403 ****        13.0000  11.2500  16.0000 Du        
  26404 ****        13.0000  11.2500  16.2500 Du        
  26405 ****        13.0000  11.5000  15.0000 Du        
  26406 ****        13.0000  11.5000  15.2500 Du        
  26407 ****        13.0000  11.5000  15.5000 Du        
  26408 ****        13.0000  11.5000  15.7500 Du        
  26409 ****        13.0000  11.5000  16.0000 Du        
  26410 ****        13.0000  11.7500  14.5000 Du        
  26411 ****        13.0000  11.7500  14.7500 Du        
  26412 ****        13.0000  11.7500  15.0000 Du        
  26413 ****        13.0000  11.7500  15.2500 Du        
  26414 ****        13.0000  11.7500  15.5000 Du        
  26415 ****        13.0000  11.7500  15.7500 Du        
  26416 ****        13.0000  11.7500  16.0000 Du        
  26417 ****        13.0000  12.0000  14.0000 Du        
  26418 ****        13.0000  12.0000  14.2500 Du        
  26419 ****        13.0000  12.0000  14.5000 Du        
  26420 ****        13.0000  12.0000  14.7500 Du        
  26421 ****        13.0000  12.0000  15.0000 Du        
  26422 ****        13.0000  12.0000  15.2500 Du        
  26423 ****        13.0000  12.0000  15.5000 Du        
  26424 ****        13.0000  12.0000  15.7500 Du        
  26425 ****        13.0000  12.2500  13.5000 Du        
  26426 ****        13.0000  12.2500  13.7500 Du        
  26427 ****        13.0000  12.2500  14.0000 Du        
  26428 ****        13.0000  12.2500  14.2500 Du        
  26429 ****        13.0000  12.2500  14.5000 Du        
  26430 ****        13.0000  12.2500  14.7500 Du        
  26431 ****        13.0000  12.2500  15.0000 Du        
  26432 ****        13.0000  12.2500  15.2500 Du        
  26433 ****        13.0000  12.2500  15.5000 Du        
  26434 ****        13.0000  12.2500  15.7500 Du        
  26435 ****        13.0000  12.5000  13.5000 Du        
  26436 ****        13.0000  12.5000  13.7500 Du        
  26437 ****        13.0000  12.5000  14.0000 Du        
  26438 ****        13.0000  12.5000  14.2500 Du        
  26439 ****        13.0000  12.5000  14.5000 Du        
  26440 ****        13.0000  12.5000  14.7500 Du        
  26441 ****        13.0000  12.5000  15.0000 Du        
  26442 ****        13.0000  12.5000  15.2500 Du        
  26443 ****        13.0000  12.5000  15.5000 Du        
  26444 ****        13.0000  12.7500   8.7500 Du        
  26445 ****        13.0000  12.7500   9.0000 Du        
  26446 ****        13.0000  12.7500   9.2500 Du        
  26447 ****        13.0000  12.7500   9.5000 Du        
  26448 ****        13.0000  12.7500  12.2500 Du        
  26449 ****        13.0000  12.7500  13.0000 Du        
  26450 ****        13.0000  12.7500  13.2500 Du        
  26451 ****        13.0000  12.7500  13.5000 Du        
  26452 ****        13.0000  12.7500  13.7500 Du        
  26453 ****        13.0000  12.7500  14.0000 Du        
  26454 ****        13.0000  12.7500  14.2500 Du        
  26455 ****        13.0000  12.7500  14.5000 Du        
  26456 ****        13.0000  12.7500  14.7500 Du        
  26457 ****        13.0000  12.7500  15.0000 Du        
  26458 ****        13.0000  12.7500  15.2500 Du        
  26459 ****        13.0000  12.7500  15.5000 Du        
  26460 ****        13.0000  13.0000   9.0000 Du        
  26461 ****        13.0000  13.0000   9.2500 Du        
  26462 ****        13.0000  13.0000   9.5000 Du        
  26463 ****        13.0000  13.0000   9.7500 Du        
  26464 ****        13.0000  13.0000  12.7500 Du        
  26465 ****        13.0000  13.0000  13.0000 Du        
  26466 ****        13.0000  13.0000  13.2500 Du        
  26467 ****        13.0000  13.0000  13.5000 Du        
  26468 ****        13.0000  13.0000  13.7500 Du        
  26469 ****        13.0000  13.0000  14.0000 Du        
  26470 ****        13.0000  13.0000  14.2500 Du        
  26471 ****        13.0000  13.0000  14.5000 Du        
  26472 ****        13.0000  13.0000  14.7500 Du        
  26473 ****        13.0000  13.0000  15.0000 Du        
  26474 ****        13.0000  13.0000  15.2500 Du        
  26475 ****        13.0000  13.0000  15.5000 Du        
  26476 ****        13.0000  13.2500  13.0000 Du        
  26477 ****        13.0000  13.2500  13.2500 Du        
  26478 ****        13.0000  13.2500  13.5000 Du        
  26479 ****        13.0000  13.2500  13.7500 Du        
  26480 ****        13.0000  13.2500  14.0000 Du        
  26481 ****        13.0000  13.2500  14.2500 Du        
  26482 ****        13.0000  13.2500  14.5000 Du        
  26483 ****        13.0000  13.2500  14.7500 Du        
  26484 ****        13.0000  13.2500  15.0000 Du        
  26485 ****        13.0000  13.2500  15.2500 Du        
  26486 ****        13.0000  13.2500  15.5000 Du        
  26487 ****        13.0000  13.5000  13.2500 Du        
  26488 ****        13.0000  13.5000  13.5000 Du        
  26489 ****        13.0000  13.5000  13.7500 Du        
  26490 ****        13.0000  13.5000  14.0000 Du        
  26491 ****        13.0000  13.5000  14.2500 Du        
  26492 ****        13.0000  13.5000  14.5000 Du        
  26493 ****        13.0000  13.5000  14.7500 Du        
  26494 ****        13.0000  13.5000  15.0000 Du        
  26495 ****        13.0000  13.5000  15.2500 Du        
  26496 ****        13.0000  13.5000  15.5000 Du        
  26497 ****        13.0000  13.7500  13.2500 Du        
  26498 ****        13.0000  13.7500  13.5000 Du        
  26499 ****        13.0000  13.7500  13.7500 Du        
  26500 ****        13.0000  13.7500  14.0000 Du        
  26501 ****        13.0000  13.7500  14.2500 Du        
  26502 ****        13.0000  13.7500  14.5000 Du        
  26503 ****        13.0000  13.7500  14.7500 Du        
  26504 ****        13.0000  13.7500  15.0000 Du        
  26505 ****        13.0000  13.7500  15.2500 Du        
  26506 ****        13.0000  14.0000  13.5000 Du        
  26507 ****        13.0000  14.0000  13.7500 Du        
  26508 ****        13.0000  14.0000  14.0000 Du        
  26509 ****        13.0000  14.0000  14.2500 Du        
  26510 ****        13.0000  14.0000  14.5000 Du        
  26511 ****        13.0000  14.0000  14.7500 Du        
  26512 ****        13.0000  14.0000  15.0000 Du        
  26513 ****        13.0000  14.0000  15.2500 Du        
  26514 ****        13.0000  14.2500  14.0000 Du        
  26515 ****        13.0000  16.2500  38.0000 Du        
  26516 ****        13.0000  16.2500  38.2500 Du        
  26517 ****        13.0000  16.2500  38.5000 Du        
  26518 ****        13.0000  16.5000  37.7500 Du        
  26519 ****        13.0000  16.5000  38.0000 Du        
  26520 ****        13.0000  16.5000  38.2500 Du        
  26521 ****        13.0000  16.5000  38.5000 Du        
  26522 ****        13.0000  16.7500  37.7500 Du        
  26523 ****        13.0000  16.7500  38.0000 Du        
  26524 ****        13.0000  16.7500  38.5000 Du        
  26525 ****        13.0000  16.7500  38.7500 Du        
  26526 ****        13.0000  16.7500  39.0000 Du        
  26527 ****        13.0000  17.0000  38.0000 Du        
  26528 ****        13.0000  19.5000  36.0000 Du        
  26529 ****        13.0000  19.5000  36.2500 Du        
  26530 ****        13.0000  19.7500  35.5000 Du        
  26531 ****        13.0000  19.7500  35.7500 Du        
  26532 ****        13.0000  19.7500  36.0000 Du        
  26533 ****        13.0000  19.7500  36.2500 Du        
  26534 ****        13.0000  19.7500  36.5000 Du        
  26535 ****        13.0000  20.0000  35.2500 Du        
  26536 ****        13.0000  20.0000  35.5000 Du        
  26537 ****        13.0000  20.0000  35.7500 Du        
  26538 ****        13.0000  20.0000  36.0000 Du        
  26539 ****        13.0000  20.0000  36.2500 Du        
  26540 ****        13.0000  20.0000  36.5000 Du        
  26541 ****        13.0000  20.0000  36.7500 Du        
  26542 ****        13.0000  20.2500  35.7500 Du        
  26543 ****        13.0000  20.2500  36.0000 Du        
  26544 ****        13.0000  20.2500  36.2500 Du        
  26545 ****        13.0000  20.2500  36.5000 Du        
  26546 ****        13.2500   2.0000  -2.7500 Du        
  26547 ****        13.2500   2.0000  -2.2500 Du        
  26548 ****        13.2500   2.0000  -2.0000 Du        
  26549 ****        13.2500   2.0000  -1.7500 Du        
  26550 ****        13.2500   2.0000  -1.5000 Du        
  26551 ****        13.2500   2.0000  -1.2500 Du        
  26552 ****        13.2500   2.0000  -1.0000 Du        
  26553 ****        13.2500   2.0000  -0.7500 Du        
  26554 ****        13.2500   2.2500  -3.0000 Du        
  26555 ****        13.2500   2.2500  -2.7500 Du        
  26556 ****        13.2500   2.2500  -2.5000 Du        
  26557 ****        13.2500   2.2500  -2.2500 Du        
  26558 ****        13.2500   2.2500  -2.0000 Du        
  26559 ****        13.2500   2.2500  -1.7500 Du        
  26560 ****        13.2500   2.2500  -1.5000 Du        
  26561 ****        13.2500   2.2500  -1.2500 Du        
  26562 ****        13.2500   2.2500  -1.0000 Du        
  26563 ****        13.2500   2.2500  -0.7500 Du        
  26564 ****        13.2500   2.5000  -2.7500 Du        
  26565 ****        13.2500   2.5000  -2.5000 Du        
  26566 ****        13.2500   2.5000  -2.2500 Du        
  26567 ****        13.2500   2.5000  -2.0000 Du        
  26568 ****        13.2500   2.5000  -1.7500 Du        
  26569 ****        13.2500   2.5000  -1.5000 Du        
  26570 ****        13.2500   2.5000  -1.2500 Du        
  26571 ****        13.2500   2.5000  -1.0000 Du        
  26572 ****        13.2500   2.5000  -0.7500 Du        
  26573 ****        13.2500   2.7500  -2.7500 Du        
  26574 ****        13.2500   2.7500  -2.5000 Du        
  26575 ****        13.2500   2.7500  -2.2500 Du        
  26576 ****        13.2500   2.7500  -2.0000 Du        
  26577 ****        13.2500   2.7500  -1.7500 Du        
  26578 ****        13.2500   2.7500  -1.5000 Du        
  26579 ****        13.2500   2.7500  -1.2500 Du        
  26580 ****        13.2500   2.7500  -1.0000 Du        
  26581 ****        13.2500   2.7500  -0.7500 Du        
  26582 ****        13.2500   3.0000  -2.5000 Du        
  26583 ****        13.2500   3.0000  -2.2500 Du        
  26584 ****        13.2500   3.0000  -2.0000 Du        
  26585 ****        13.2500   3.0000  -1.7500 Du        
  26586 ****        13.2500   3.0000  -1.5000 Du        
  26587 ****        13.2500   3.0000  -1.2500 Du        
  26588 ****        13.2500   3.0000  -1.0000 Du        
  26589 ****        13.2500   3.0000  -0.7500 Du        
  26590 ****        13.2500   3.2500  -2.2500 Du        
  26591 ****        13.2500   3.2500  -2.0000 Du        
  26592 ****        13.2500   3.2500  -1.7500 Du        
  26593 ****        13.2500   3.2500  -1.5000 Du        
  26594 ****        13.2500   3.2500  -1.2500 Du        
  26595 ****        13.2500   3.2500  -1.0000 Du        
  26596 ****        13.2500   3.5000  -2.0000 Du        
  26597 ****        13.2500   3.5000  -1.7500 Du        
  26598 ****        13.2500   3.5000  -1.5000 Du        
  26599 ****        13.2500   4.0000   7.7500 Du        
  26600 ****        13.2500   4.0000   8.0000 Du        
  26601 ****        13.2500   4.0000   8.2500 Du        
  26602 ****        13.2500   4.2500   7.5000 Du        
  26603 ****        13.2500   4.2500   7.7500 Du        
  26604 ****        13.2500   4.2500   8.0000 Du        
  26605 ****        13.2500   4.2500   8.2500 Du        
  26606 ****        13.2500   4.2500   9.0000 Du        
  26607 ****        13.2500   4.5000   7.2500 Du        
  26608 ****        13.2500   4.5000   7.5000 Du        
  26609 ****        13.2500   4.5000   7.7500 Du        
  26610 ****        13.2500   4.5000   8.0000 Du        
  26611 ****        13.2500   4.5000   8.2500 Du        
  26612 ****        13.2500   4.5000   8.5000 Du        
  26613 ****        13.2500   4.5000   8.7500 Du        
  26614 ****        13.2500   4.5000   9.0000 Du        
  26615 ****        13.2500   4.5000   9.2500 Du        
  26616 ****        13.2500   4.7500   7.2500 Du        
  26617 ****        13.2500   4.7500   7.5000 Du        
  26618 ****        13.2500   4.7500   7.7500 Du        
  26619 ****        13.2500   4.7500   8.0000 Du        
  26620 ****        13.2500   4.7500   8.2500 Du        
  26621 ****        13.2500   4.7500   8.5000 Du        
  26622 ****        13.2500   4.7500   8.7500 Du        
  26623 ****        13.2500   4.7500   9.0000 Du        
  26624 ****        13.2500   4.7500   9.2500 Du        
  26625 ****        13.2500   5.0000   7.0000 Du        
  26626 ****        13.2500   5.0000   7.2500 Du        
  26627 ****        13.2500   5.0000   7.5000 Du        
  26628 ****        13.2500   5.0000   7.7500 Du        
  26629 ****        13.2500   5.0000   8.0000 Du        
  26630 ****        13.2500   5.0000   8.2500 Du        
  26631 ****        13.2500   5.0000   8.5000 Du        
  26632 ****        13.2500   5.0000   8.7500 Du        
  26633 ****        13.2500   5.0000   9.0000 Du        
  26634 ****        13.2500   5.2500   7.0000 Du        
  26635 ****        13.2500   5.2500   7.2500 Du        
  26636 ****        13.2500   5.2500   7.5000 Du        
  26637 ****        13.2500   5.2500   7.7500 Du        
  26638 ****        13.2500   5.2500   8.0000 Du        
  26639 ****        13.2500   5.2500   8.2500 Du        
  26640 ****        13.2500   5.2500   8.5000 Du        
  26641 ****        13.2500   5.5000   6.7500 Du        
  26642 ****        13.2500   5.5000   7.0000 Du        
  26643 ****        13.2500   5.5000   7.2500 Du        
  26644 ****        13.2500   5.5000   7.5000 Du        
  26645 ****        13.2500   5.5000   7.7500 Du        
  26646 ****        13.2500   5.7500   6.7500 Du        
  26647 ****        13.2500   5.7500   7.0000 Du        
  26648 ****        13.2500   5.7500   7.2500 Du        
  26649 ****        13.2500   5.7500   7.5000 Du        
  26650 ****        13.2500   6.0000   6.5000 Du        
  26651 ****        13.2500   6.0000   6.7500 Du        
  26652 ****        13.2500   6.0000   7.0000 Du        
  26653 ****        13.2500   6.2500   6.5000 Du        
  26654 ****        13.2500   6.2500   6.7500 Du        
  26655 ****        13.2500   8.0000  20.2500 Du        
  26656 ****        13.2500   8.0000  20.5000 Du        
  26657 ****        13.2500   8.0000  20.7500 Du        
  26658 ****        13.2500   8.2500  20.0000 Du        
  26659 ****        13.2500   8.2500  20.2500 Du        
  26660 ****        13.2500   8.2500  20.5000 Du        
  26661 ****        13.2500   8.2500  20.7500 Du        
  26662 ****        13.2500   8.2500  24.7500 Du        
  26663 ****        13.2500   8.2500  25.0000 Du        
  26664 ****        13.2500   8.2500  25.2500 Du        
  26665 ****        13.2500   8.2500  25.5000 Du        
  26666 ****        13.2500   8.2500  25.7500 Du        
  26667 ****        13.2500   8.2500  26.0000 Du        
  26668 ****        13.2500   8.2500  26.2500 Du        
  26669 ****        13.2500   8.2500  26.5000 Du        
  26670 ****        13.2500   8.5000  20.0000 Du        
  26671 ****        13.2500   8.5000  20.2500 Du        
  26672 ****        13.2500   8.5000  20.5000 Du        
  26673 ****        13.2500   8.5000  20.7500 Du        
  26674 ****        13.2500   8.5000  24.7500 Du        
  26675 ****        13.2500   8.5000  25.0000 Du        
  26676 ****        13.2500   8.5000  25.2500 Du        
  26677 ****        13.2500   8.5000  25.5000 Du        
  26678 ****        13.2500   8.5000  25.7500 Du        
  26679 ****        13.2500   8.5000  26.0000 Du        
  26680 ****        13.2500   8.5000  26.2500 Du        
  26681 ****        13.2500   8.5000  26.5000 Du        
  26682 ****        13.2500   8.5000  26.7500 Du        
  26683 ****        13.2500   8.7500  19.7500 Du        
  26684 ****        13.2500   8.7500  20.0000 Du        
  26685 ****        13.2500   8.7500  20.2500 Du        
  26686 ****        13.2500   8.7500  20.5000 Du        
  26687 ****        13.2500   8.7500  20.7500 Du        
  26688 ****        13.2500   8.7500  26.0000 Du        
  26689 ****        13.2500   8.7500  26.2500 Du        
  26690 ****        13.2500   8.7500  26.5000 Du        
  26691 ****        13.2500   9.0000  19.7500 Du        
  26692 ****        13.2500   9.0000  20.0000 Du        
  26693 ****        13.2500   9.0000  20.2500 Du        
  26694 ****        13.2500   9.0000  20.5000 Du        
  26695 ****        13.2500   9.0000  20.7500 Du        
  26696 ****        13.2500   9.2500  19.7500 Du        
  26697 ****        13.2500   9.2500  20.0000 Du        
  26698 ****        13.2500   9.2500  20.2500 Du        
  26699 ****        13.2500   9.2500  20.5000 Du        
  26700 ****        13.2500   9.5000  19.5000 Du        
  26701 ****        13.2500   9.5000  19.7500 Du        
  26702 ****        13.2500   9.5000  20.0000 Du        
  26703 ****        13.2500   9.5000  20.2500 Du        
  26704 ****        13.2500   9.7500  20.0000 Du        
  26705 ****        13.2500  10.0000  16.0000 Du        
  26706 ****        13.2500  10.0000  16.2500 Du        
  26707 ****        13.2500  10.2500  16.0000 Du        
  26708 ****        13.2500  10.2500  16.2500 Du        
  26709 ****        13.2500  10.2500  16.5000 Du        
  26710 ****        13.2500  10.5000  15.7500 Du        
  26711 ****        13.2500  10.5000  16.0000 Du        
  26712 ****        13.2500  10.5000  16.2500 Du        
  26713 ****        13.2500  10.7500  15.5000 Du        
  26714 ****        13.2500  10.7500  15.7500 Du        
  26715 ****        13.2500  10.7500  16.0000 Du        
  26716 ****        13.2500  10.7500  16.2500 Du        
  26717 ****        13.2500  11.0000  15.2500 Du        
  26718 ****        13.2500  11.0000  15.5000 Du        
  26719 ****        13.2500  11.0000  15.7500 Du        
  26720 ****        13.2500  11.0000  16.0000 Du        
  26721 ****        13.2500  11.0000  16.2500 Du        
  26722 ****        13.2500  11.2500  15.0000 Du        
  26723 ****        13.2500  11.2500  15.2500 Du        
  26724 ****        13.2500  11.2500  15.5000 Du        
  26725 ****        13.2500  11.2500  15.7500 Du        
  26726 ****        13.2500  11.2500  16.0000 Du        
  26727 ****        13.2500  11.5000  15.0000 Du        
  26728 ****        13.2500  11.5000  15.2500 Du        
  26729 ****        13.2500  11.5000  15.5000 Du        
  26730 ****        13.2500  11.5000  15.7500 Du        
  26731 ****        13.2500  11.7500  14.7500 Du        
  26732 ****        13.2500  11.7500  15.0000 Du        
  26733 ****        13.2500  11.7500  15.2500 Du        
  26734 ****        13.2500  11.7500  15.5000 Du        
  26735 ****        13.2500  11.7500  15.7500 Du        
  26736 ****        13.2500  12.0000  14.0000 Du        
  26737 ****        13.2500  12.0000  14.2500 Du        
  26738 ****        13.2500  12.0000  14.5000 Du        
  26739 ****        13.2500  12.0000  14.7500 Du        
  26740 ****        13.2500  12.0000  15.0000 Du        
  26741 ****        13.2500  12.0000  15.2500 Du        
  26742 ****        13.2500  12.0000  15.5000 Du        
  26743 ****        13.2500  12.0000  15.7500 Du        
  26744 ****        13.2500  12.2500  13.7500 Du        
  26745 ****        13.2500  12.2500  14.0000 Du        
  26746 ****        13.2500  12.2500  14.2500 Du        
  26747 ****        13.2500  12.2500  14.5000 Du        
  26748 ****        13.2500  12.2500  14.7500 Du        
  26749 ****        13.2500  12.2500  15.0000 Du        
  26750 ****        13.2500  12.2500  15.2500 Du        
  26751 ****        13.2500  12.2500  15.5000 Du        
  26752 ****        13.2500  12.5000   9.0000 Du        
  26753 ****        13.2500  12.5000   9.2500 Du        
  26754 ****        13.2500  12.5000  14.0000 Du        
  26755 ****        13.2500  12.5000  14.2500 Du        
  26756 ****        13.2500  12.5000  14.5000 Du        
  26757 ****        13.2500  12.5000  14.7500 Du        
  26758 ****        13.2500  12.5000  15.0000 Du        
  26759 ****        13.2500  12.5000  15.2500 Du        
  26760 ****        13.2500  12.7500   9.0000 Du        
  26761 ****        13.2500  12.7500   9.2500 Du        
  26762 ****        13.2500  12.7500   9.5000 Du        
  26763 ****        13.2500  12.7500   9.7500 Du        
  26764 ****        13.2500  12.7500  10.0000 Du        
  26765 ****        13.2500  12.7500  11.7500 Du        
  26766 ****        13.2500  12.7500  12.0000 Du        
  26767 ****        13.2500  12.7500  12.2500 Du        
  26768 ****        13.2500  12.7500  13.0000 Du        
  26769 ****        13.2500  12.7500  13.2500 Du        
  26770 ****        13.2500  12.7500  13.5000 Du        
  26771 ****        13.2500  12.7500  13.7500 Du        
  26772 ****        13.2500  12.7500  14.0000 Du        
  26773 ****        13.2500  12.7500  14.2500 Du        
  26774 ****        13.2500  12.7500  14.5000 Du        
  26775 ****        13.2500  12.7500  14.7500 Du        
  26776 ****        13.2500  12.7500  15.0000 Du        
  26777 ****        13.2500  12.7500  15.2500 Du        
  26778 ****        13.2500  12.7500  15.5000 Du        
  26779 ****        13.2500  13.0000   9.2500 Du        
  26780 ****        13.2500  13.0000   9.5000 Du        
  26781 ****        13.2500  13.0000   9.7500 Du        
  26782 ****        13.2500  13.0000  10.0000 Du        
  26783 ****        13.2500  13.0000  10.2500 Du        
  26784 ****        13.2500  13.0000  12.0000 Du        
  26785 ****        13.2500  13.0000  12.2500 Du        
  26786 ****        13.2500  13.0000  13.0000 Du        
  26787 ****        13.2500  13.0000  13.2500 Du        
  26788 ****        13.2500  13.0000  13.5000 Du        
  26789 ****        13.2500  13.0000  13.7500 Du        
  26790 ****        13.2500  13.0000  14.0000 Du        
  26791 ****        13.2500  13.0000  14.2500 Du        
  26792 ****        13.2500  13.0000  14.5000 Du        
  26793 ****        13.2500  13.0000  14.7500 Du        
  26794 ****        13.2500  13.0000  15.0000 Du        
  26795 ****        13.2500  13.0000  15.2500 Du        
  26796 ****        13.2500  13.0000  15.5000 Du        
  26797 ****        13.2500  13.2500  13.0000 Du        
  26798 ****        13.2500  13.2500  13.2500 Du        
  26799 ****        13.2500  13.2500  13.5000 Du        
  26800 ****        13.2500  13.2500  13.7500 Du        
  26801 ****        13.2500  13.2500  14.0000 Du        
  26802 ****        13.2500  13.2500  14.2500 Du        
  26803 ****        13.2500  13.2500  14.5000 Du        
  26804 ****        13.2500  13.2500  14.7500 Du        
  26805 ****        13.2500  13.2500  15.0000 Du        
  26806 ****        13.2500  13.2500  15.2500 Du        
  26807 ****        13.2500  13.2500  15.5000 Du        
  26808 ****        13.2500  13.5000  13.2500 Du        
  26809 ****        13.2500  13.5000  13.5000 Du        
  26810 ****        13.2500  13.5000  13.7500 Du        
  26811 ****        13.2500  13.5000  14.0000 Du        
  26812 ****        13.2500  13.5000  14.2500 Du        
  26813 ****        13.2500  13.5000  14.5000 Du        
  26814 ****        13.2500  13.5000  14.7500 Du        
  26815 ****        13.2500  13.5000  15.0000 Du        
  26816 ****        13.2500  13.5000  15.2500 Du        
  26817 ****        13.2500  13.5000  15.5000 Du        
  26818 ****        13.2500  13.7500  13.2500 Du        
  26819 ****        13.2500  13.7500  13.5000 Du        
  26820 ****        13.2500  13.7500  13.7500 Du        
  26821 ****        13.2500  13.7500  14.0000 Du        
  26822 ****        13.2500  13.7500  14.2500 Du        
  26823 ****        13.2500  13.7500  14.5000 Du        
  26824 ****        13.2500  13.7500  14.7500 Du        
  26825 ****        13.2500  13.7500  15.0000 Du        
  26826 ****        13.2500  13.7500  15.2500 Du        
  26827 ****        13.2500  14.0000  13.5000 Du        
  26828 ****        13.2500  14.0000  13.7500 Du        
  26829 ****        13.2500  14.0000  14.0000 Du        
  26830 ****        13.2500  14.0000  14.2500 Du        
  26831 ****        13.2500  14.0000  14.5000 Du        
  26832 ****        13.2500  14.0000  14.7500 Du        
  26833 ****        13.2500  14.0000  15.0000 Du        
  26834 ****        13.2500  14.0000  15.2500 Du        
  26835 ****        13.2500  14.2500  13.5000 Du        
  26836 ****        13.2500  14.2500  13.7500 Du        
  26837 ****        13.2500  14.2500  14.0000 Du        
  26838 ****        13.2500  14.2500  14.2500 Du        
  26839 ****        13.2500  14.2500  14.5000 Du        
  26840 ****        13.2500  14.2500  14.7500 Du        
  26841 ****        13.2500  14.2500  15.0000 Du        
  26842 ****        13.2500  16.0000  38.0000 Du        
  26843 ****        13.2500  16.2500  37.7500 Du        
  26844 ****        13.2500  16.2500  38.0000 Du        
  26845 ****        13.2500  16.2500  38.2500 Du        
  26846 ****        13.2500  16.2500  38.5000 Du        
  26847 ****        13.2500  16.2500  38.7500 Du        
  26848 ****        13.2500  16.5000  37.7500 Du        
  26849 ****        13.2500  16.5000  38.0000 Du        
  26850 ****        13.2500  16.5000  38.2500 Du        
  26851 ****        13.2500  16.5000  38.5000 Du        
  26852 ****        13.2500  16.5000  38.7500 Du        
  26853 ****        13.2500  16.7500  37.7500 Du        
  26854 ****        13.2500  16.7500  38.7500 Du        
  26855 ****        13.2500  16.7500  39.0000 Du        
  26856 ****        13.2500  17.0000  39.0000 Du        
  26857 ****        13.2500  19.5000  36.0000 Du        
  26858 ****        13.2500  19.5000  36.2500 Du        
  26859 ****        13.2500  19.7500  35.5000 Du        
  26860 ****        13.2500  19.7500  35.7500 Du        
  26861 ****        13.2500  19.7500  36.0000 Du        
  26862 ****        13.2500  19.7500  36.2500 Du        
  26863 ****        13.2500  20.0000  35.5000 Du        
  26864 ****        13.2500  20.0000  35.7500 Du        
  26865 ****        13.2500  20.0000  36.0000 Du        
  26866 ****        13.2500  20.0000  36.2500 Du        
  26867 ****        13.2500  20.2500  36.0000 Du        
  26868 ****        13.2500  20.2500  36.2500 Du        
  26869 ****        13.5000   2.0000  -1.5000 Du        
  26870 ****        13.5000   2.0000  -1.2500 Du        
  26871 ****        13.5000   2.0000  -1.0000 Du        
  26872 ****        13.5000   2.2500  -2.2500 Du        
  26873 ****        13.5000   2.2500  -2.0000 Du        
  26874 ****        13.5000   2.2500  -1.7500 Du        
  26875 ****        13.5000   2.2500  -1.5000 Du        
  26876 ****        13.5000   2.2500  -1.2500 Du        
  26877 ****        13.5000   2.2500  -1.0000 Du        
  26878 ****        13.5000   2.2500  -0.7500 Du        
  26879 ****        13.5000   2.5000  -2.5000 Du        
  26880 ****        13.5000   2.5000  -2.2500 Du        
  26881 ****        13.5000   2.5000  -2.0000 Du        
  26882 ****        13.5000   2.5000  -1.7500 Du        
  26883 ****        13.5000   2.5000  -1.5000 Du        
  26884 ****        13.5000   2.5000  -1.2500 Du        
  26885 ****        13.5000   2.5000  -1.0000 Du        
  26886 ****        13.5000   2.5000  -0.7500 Du        
  26887 ****        13.5000   2.7500  -2.5000 Du        
  26888 ****        13.5000   2.7500  -2.2500 Du        
  26889 ****        13.5000   2.7500  -2.0000 Du        
  26890 ****        13.5000   2.7500  -1.7500 Du        
  26891 ****        13.5000   2.7500  -1.5000 Du        
  26892 ****        13.5000   2.7500  -1.2500 Du        
  26893 ****        13.5000   2.7500  -1.0000 Du        
  26894 ****        13.5000   2.7500  -0.7500 Du        
  26895 ****        13.5000   3.0000  -2.2500 Du        
  26896 ****        13.5000   3.0000  -2.0000 Du        
  26897 ****        13.5000   3.0000  -1.7500 Du        
  26898 ****        13.5000   3.0000  -1.5000 Du        
  26899 ****        13.5000   3.0000  -1.2500 Du        
  26900 ****        13.5000   3.0000  -1.0000 Du        
  26901 ****        13.5000   3.0000  -0.7500 Du        
  26902 ****        13.5000   3.2500  -2.2500 Du        
  26903 ****        13.5000   3.2500  -2.0000 Du        
  26904 ****        13.5000   3.2500  -1.7500 Du        
  26905 ****        13.5000   3.2500  -1.5000 Du        
  26906 ****        13.5000   3.2500  -1.2500 Du        
  26907 ****        13.5000   3.2500  -1.0000 Du        
  26908 ****        13.5000   3.5000  -1.7500 Du        
  26909 ****        13.5000   3.5000  -1.5000 Du        
  26910 ****        13.5000   4.0000   7.7500 Du        
  26911 ****        13.5000   4.0000   8.0000 Du        
  26912 ****        13.5000   4.0000   8.2500 Du        
  26913 ****        13.5000   4.2500   7.5000 Du        
  26914 ****        13.5000   4.2500   7.7500 Du        
  26915 ****        13.5000   4.2500   8.0000 Du        
  26916 ****        13.5000   4.2500   8.2500 Du        
  26917 ****        13.5000   4.5000   7.0000 Du        
  26918 ****        13.5000   4.5000   7.2500 Du        
  26919 ****        13.5000   4.5000   7.5000 Du        
  26920 ****        13.5000   4.5000   7.7500 Du        
  26921 ****        13.5000   4.5000   8.0000 Du        
  26922 ****        13.5000   4.5000   8.2500 Du        
  26923 ****        13.5000   4.5000   8.5000 Du        
  26924 ****        13.5000   4.5000   8.7500 Du        
  26925 ****        13.5000   4.5000   9.0000 Du        
  26926 ****        13.5000   4.7500   7.0000 Du        
  26927 ****        13.5000   4.7500   7.2500 Du        
  26928 ****        13.5000   4.7500   7.5000 Du        
  26929 ****        13.5000   4.7500   7.7500 Du        
  26930 ****        13.5000   4.7500   8.0000 Du        
  26931 ****        13.5000   4.7500   8.2500 Du        
  26932 ****        13.5000   4.7500   8.5000 Du        
  26933 ****        13.5000   4.7500   8.7500 Du        
  26934 ****        13.5000   4.7500   9.0000 Du        
  26935 ****        13.5000   5.0000   7.0000 Du        
  26936 ****        13.5000   5.0000   7.2500 Du        
  26937 ****        13.5000   5.0000   7.5000 Du        
  26938 ****        13.5000   5.0000   7.7500 Du        
  26939 ****        13.5000   5.0000   8.0000 Du        
  26940 ****        13.5000   5.0000   8.2500 Du        
  26941 ****        13.5000   5.0000   8.5000 Du        
  26942 ****        13.5000   5.0000   8.7500 Du        
  26943 ****        13.5000   5.0000   9.0000 Du        
  26944 ****        13.5000   5.2500   6.7500 Du        
  26945 ****        13.5000   5.2500   7.0000 Du        
  26946 ****        13.5000   5.2500   7.2500 Du        
  26947 ****        13.5000   5.2500   7.5000 Du        
  26948 ****        13.5000   5.2500   7.7500 Du        
  26949 ****        13.5000   5.2500   8.0000 Du        
  26950 ****        13.5000   5.2500   8.2500 Du        
  26951 ****        13.5000   5.2500   8.5000 Du        
  26952 ****        13.5000   5.2500   8.7500 Du        
  26953 ****        13.5000   5.2500   9.0000 Du        
  26954 ****        13.5000   5.5000   6.7500 Du        
  26955 ****        13.5000   5.5000   7.0000 Du        
  26956 ****        13.5000   5.5000   7.2500 Du        
  26957 ****        13.5000   5.5000   7.5000 Du        
  26958 ****        13.5000   5.5000   7.7500 Du        
  26959 ****        13.5000   5.5000   8.0000 Du        
  26960 ****        13.5000   5.5000   8.2500 Du        
  26961 ****        13.5000   5.5000   8.5000 Du        
  26962 ****        13.5000   5.7500   6.5000 Du        
  26963 ****        13.5000   5.7500   6.7500 Du        
  26964 ****        13.5000   5.7500   7.0000 Du        
  26965 ****        13.5000   5.7500   7.2500 Du        
  26966 ****        13.5000   5.7500   7.5000 Du        
  26967 ****        13.5000   5.7500   7.7500 Du        
  26968 ****        13.5000   6.0000   6.5000 Du        
  26969 ****        13.5000   6.0000   6.7500 Du        
  26970 ****        13.5000   6.0000   7.0000 Du        
  26971 ****        13.5000   6.0000   7.2500 Du        
  26972 ****        13.5000   6.0000   7.5000 Du        
  26973 ****        13.5000   6.2500   6.2500 Du        
  26974 ****        13.5000   6.2500   6.5000 Du        
  26975 ****        13.5000   6.2500   6.7500 Du        
  26976 ****        13.5000   6.2500   7.0000 Du        
  26977 ****        13.5000   6.5000   6.2500 Du        
  26978 ****        13.5000   6.5000   6.5000 Du        
  26979 ****        13.5000   6.5000   6.7500 Du        
  26980 ****        13.5000   8.2500  25.7500 Du        
  26981 ****        13.5000   8.2500  26.0000 Du        
  26982 ****        13.5000   8.2500  26.2500 Du        
  26983 ****        13.5000   8.5000  20.2500 Du        
  26984 ****        13.5000   8.5000  20.5000 Du        
  26985 ****        13.5000   8.5000  20.7500 Du        
  26986 ****        13.5000   8.5000  24.7500 Du        
  26987 ****        13.5000   8.5000  25.0000 Du        
  26988 ****        13.5000   8.5000  25.2500 Du        
  26989 ****        13.5000   8.5000  25.5000 Du        
  26990 ****        13.5000   8.5000  25.7500 Du        
  26991 ****        13.5000   8.5000  26.0000 Du        
  26992 ****        13.5000   8.5000  26.2500 Du        
  26993 ****        13.5000   8.5000  26.5000 Du        
  26994 ****        13.5000   8.5000  26.7500 Du        
  26995 ****        13.5000   8.7500  20.0000 Du        
  26996 ****        13.5000   8.7500  20.2500 Du        
  26997 ****        13.5000   8.7500  20.5000 Du        
  26998 ****        13.5000   8.7500  20.7500 Du        
  26999 ****        13.5000   8.7500  21.0000 Du        
  27000 ****        13.5000   8.7500  26.5000 Du        
  27001 ****        13.5000   8.7500  26.7500 Du        
  27002 ****        13.5000   8.7500  27.0000 Du        
  27003 ****        13.5000   9.0000  20.0000 Du        
  27004 ****        13.5000   9.0000  20.2500 Du        
  27005 ****        13.5000   9.0000  20.5000 Du        
  27006 ****        13.5000   9.0000  20.7500 Du        
  27007 ****        13.5000   9.0000  21.0000 Du        
  27008 ****        13.5000   9.2500  20.0000 Du        
  27009 ****        13.5000   9.2500  20.2500 Du        
  27010 ****        13.5000   9.2500  20.5000 Du        
  27011 ****        13.5000   9.2500  20.7500 Du        
  27012 ****        13.5000   9.5000  19.7500 Du        
  27013 ****        13.5000   9.5000  20.0000 Du        
  27014 ****        13.5000   9.5000  20.2500 Du        
  27015 ****        13.5000   9.5000  20.5000 Du        
  27016 ****        13.5000  10.2500  16.0000 Du        
  27017 ****        13.5000  10.2500  16.2500 Du        
  27018 ****        13.5000  10.5000  15.7500 Du        
  27019 ****        13.5000  10.5000  16.0000 Du        
  27020 ****        13.5000  10.5000  16.2500 Du        
  27021 ****        13.5000  10.7500  15.5000 Du        
  27022 ****        13.5000  10.7500  15.7500 Du        
  27023 ****        13.5000  10.7500  16.0000 Du        
  27024 ****        13.5000  10.7500  16.2500 Du        
  27025 ****        13.5000  11.0000  15.2500 Du        
  27026 ****        13.5000  11.0000  15.5000 Du        
  27027 ****        13.5000  11.0000  15.7500 Du        
  27028 ****        13.5000  11.0000  16.0000 Du        
  27029 ****        13.5000  11.2500  15.0000 Du        
  27030 ****        13.5000  11.2500  15.2500 Du        
  27031 ****        13.5000  11.2500  15.5000 Du        
  27032 ****        13.5000  11.2500  15.7500 Du        
  27033 ****        13.5000  11.2500  16.0000 Du        
  27034 ****        13.5000  11.5000  14.7500 Du        
  27035 ****        13.5000  11.5000  15.0000 Du        
  27036 ****        13.5000  11.5000  15.2500 Du        
  27037 ****        13.5000  11.5000  15.5000 Du        
  27038 ****        13.5000  11.5000  15.7500 Du        
  27039 ****        13.5000  11.7500  14.5000 Du        
  27040 ****        13.5000  11.7500  14.7500 Du        
  27041 ****        13.5000  11.7500  15.0000 Du        
  27042 ****        13.5000  11.7500  15.2500 Du        
  27043 ****        13.5000  11.7500  15.5000 Du        
  27044 ****        13.5000  12.0000  14.0000 Du        
  27045 ****        13.5000  12.0000  14.2500 Du        
  27046 ****        13.5000  12.0000  14.5000 Du        
  27047 ****        13.5000  12.0000  14.7500 Du        
  27048 ****        13.5000  12.0000  15.0000 Du        
  27049 ****        13.5000  12.0000  15.2500 Du        
  27050 ****        13.5000  12.0000  15.5000 Du        
  27051 ****        13.5000  12.2500  12.0000 Du        
  27052 ****        13.5000  12.2500  12.2500 Du        
  27053 ****        13.5000  12.2500  13.7500 Du        
  27054 ****        13.5000  12.2500  14.0000 Du        
  27055 ****        13.5000  12.2500  14.2500 Du        
  27056 ****        13.5000  12.2500  14.5000 Du        
  27057 ****        13.5000  12.2500  14.7500 Du        
  27058 ****        13.5000  12.2500  15.0000 Du        
  27059 ****        13.5000  12.2500  15.2500 Du        
  27060 ****        13.5000  12.5000   9.0000 Du        
  27061 ****        13.5000  12.5000   9.2500 Du        
  27062 ****        13.5000  12.5000   9.5000 Du        
  27063 ****        13.5000  12.5000   9.7500 Du        
  27064 ****        13.5000  12.5000  10.0000 Du        
  27065 ****        13.5000  12.5000  10.2500 Du        
  27066 ****        13.5000  12.5000  11.0000 Du        
  27067 ****        13.5000  12.5000  11.2500 Du        
  27068 ****        13.5000  12.5000  11.5000 Du        
  27069 ****        13.5000  12.5000  11.7500 Du        
  27070 ****        13.5000  12.5000  12.0000 Du        
  27071 ****        13.5000  12.5000  12.2500 Du        
  27072 ****        13.5000  12.5000  13.2500 Du        
  27073 ****        13.5000  12.5000  13.5000 Du        
  27074 ****        13.5000  12.5000  13.7500 Du        
  27075 ****        13.5000  12.5000  14.0000 Du        
  27076 ****        13.5000  12.5000  14.2500 Du        
  27077 ****        13.5000  12.5000  14.5000 Du        
  27078 ****        13.5000  12.5000  14.7500 Du        
  27079 ****        13.5000  12.5000  15.0000 Du        
  27080 ****        13.5000  12.5000  15.2500 Du        
  27081 ****        13.5000  12.7500   9.2500 Du        
  27082 ****        13.5000  12.7500   9.5000 Du        
  27083 ****        13.5000  12.7500   9.7500 Du        
  27084 ****        13.5000  12.7500  10.0000 Du        
  27085 ****        13.5000  12.7500  10.2500 Du        
  27086 ****        13.5000  12.7500  10.5000 Du        
  27087 ****        13.5000  12.7500  10.7500 Du        
  27088 ****        13.5000  12.7500  11.0000 Du        
  27089 ****        13.5000  12.7500  11.2500 Du        
  27090 ****        13.5000  12.7500  11.5000 Du        
  27091 ****        13.5000  12.7500  11.7500 Du        
  27092 ****        13.5000  12.7500  12.0000 Du        
  27093 ****        13.5000  12.7500  12.2500 Du        
  27094 ****        13.5000  12.7500  12.7500 Du        
  27095 ****        13.5000  12.7500  13.0000 Du        
  27096 ****        13.5000  12.7500  13.2500 Du        
  27097 ****        13.5000  12.7500  13.5000 Du        
  27098 ****        13.5000  12.7500  13.7500 Du        
  27099 ****        13.5000  12.7500  14.0000 Du        
  27100 ****        13.5000  12.7500  14.2500 Du        
  27101 ****        13.5000  12.7500  14.5000 Du        
  27102 ****        13.5000  12.7500  14.7500 Du        
  27103 ****        13.5000  12.7500  15.0000 Du        
  27104 ****        13.5000  12.7500  15.2500 Du        
  27105 ****        13.5000  13.0000   9.2500 Du        
  27106 ****        13.5000  13.0000   9.5000 Du        
  27107 ****        13.5000  13.0000   9.7500 Du        
  27108 ****        13.5000  13.0000  10.0000 Du        
  27109 ****        13.5000  13.0000  10.2500 Du        
  27110 ****        13.5000  13.0000  10.5000 Du        
  27111 ****        13.5000  13.0000  10.7500 Du        
  27112 ****        13.5000  13.0000  11.0000 Du        
  27113 ****        13.5000  13.0000  11.2500 Du        
  27114 ****        13.5000  13.0000  11.5000 Du        
  27115 ****        13.5000  13.0000  11.7500 Du        
  27116 ****        13.5000  13.0000  12.0000 Du        
  27117 ****        13.5000  13.0000  12.2500 Du        
  27118 ****        13.5000  13.0000  12.5000 Du        
  27119 ****        13.5000  13.0000  13.0000 Du        
  27120 ****        13.5000  13.0000  13.2500 Du        
  27121 ****        13.5000  13.0000  13.5000 Du        
  27122 ****        13.5000  13.0000  13.7500 Du        
  27123 ****        13.5000  13.0000  14.0000 Du        
  27124 ****        13.5000  13.0000  14.2500 Du        
  27125 ****        13.5000  13.0000  14.5000 Du        
  27126 ****        13.5000  13.0000  14.7500 Du        
  27127 ****        13.5000  13.0000  15.0000 Du        
  27128 ****        13.5000  13.0000  15.2500 Du        
  27129 ****        13.5000  13.2500   9.7500 Du        
  27130 ****        13.5000  13.2500  10.0000 Du        
  27131 ****        13.5000  13.2500  10.2500 Du        
  27132 ****        13.5000  13.2500  13.5000 Du        
  27133 ****        13.5000  13.2500  13.7500 Du        
  27134 ****        13.5000  13.2500  14.0000 Du        
  27135 ****        13.5000  13.2500  14.2500 Du        
  27136 ****        13.5000  13.2500  14.5000 Du        
  27137 ****        13.5000  13.2500  14.7500 Du        
  27138 ****        13.5000  13.2500  15.0000 Du        
  27139 ****        13.5000  13.2500  15.2500 Du        
  27140 ****        13.5000  13.5000  12.7500 Du        
  27141 ****        13.5000  13.5000  13.0000 Du        
  27142 ****        13.5000  13.5000  13.2500 Du        
  27143 ****        13.5000  13.5000  13.5000 Du        
  27144 ****        13.5000  13.5000  13.7500 Du        
  27145 ****        13.5000  13.5000  14.0000 Du        
  27146 ****        13.5000  13.5000  14.2500 Du        
  27147 ****        13.5000  13.5000  14.5000 Du        
  27148 ****        13.5000  13.5000  14.7500 Du        
  27149 ****        13.5000  13.5000  15.0000 Du        
  27150 ****        13.5000  13.5000  15.2500 Du        
  27151 ****        13.5000  13.7500  13.0000 Du        
  27152 ****        13.5000  13.7500  13.2500 Du        
  27153 ****        13.5000  13.7500  13.5000 Du        
  27154 ****        13.5000  13.7500  13.7500 Du        
  27155 ****        13.5000  13.7500  14.0000 Du        
  27156 ****        13.5000  13.7500  14.2500 Du        
  27157 ****        13.5000  13.7500  14.5000 Du        
  27158 ****        13.5000  13.7500  14.7500 Du        
  27159 ****        13.5000  13.7500  15.0000 Du        
  27160 ****        13.5000  13.7500  15.2500 Du        
  27161 ****        13.5000  14.0000  13.5000 Du        
  27162 ****        13.5000  14.0000  13.7500 Du        
  27163 ****        13.5000  14.0000  14.0000 Du        
  27164 ****        13.5000  14.0000  14.2500 Du        
  27165 ****        13.5000  14.0000  14.5000 Du        
  27166 ****        13.5000  14.0000  14.7500 Du        
  27167 ****        13.5000  14.0000  15.0000 Du        
  27168 ****        13.5000  14.0000  15.2500 Du        
  27169 ****        13.5000  14.2500  13.5000 Du        
  27170 ****        13.5000  14.2500  13.7500 Du        
  27171 ****        13.5000  14.2500  14.0000 Du        
  27172 ****        13.5000  14.2500  14.2500 Du        
  27173 ****        13.5000  14.2500  14.5000 Du        
  27174 ****        13.5000  14.2500  14.7500 Du        
  27175 ****        13.5000  14.2500  15.0000 Du        
  27176 ****        13.5000  14.5000  13.7500 Du        
  27177 ****        13.5000  14.5000  14.0000 Du        
  27178 ****        13.5000  14.5000  14.2500 Du        
  27179 ****        13.5000  14.5000  14.5000 Du        
  27180 ****        13.5000  14.5000  14.7500 Du        
  27181 ****        13.5000  14.5000  15.0000 Du        
  27182 ****        13.5000  14.7500  13.7500 Du        
  27183 ****        13.5000  14.7500  14.0000 Du        
  27184 ****        13.5000  14.7500  14.2500 Du        
  27185 ****        13.5000  14.7500  14.5000 Du        
  27186 ****        13.5000  16.0000  38.0000 Du        
  27187 ****        13.5000  16.0000  38.2500 Du        
  27188 ****        13.5000  16.2500  37.7500 Du        
  27189 ****        13.5000  16.2500  38.0000 Du        
  27190 ****        13.5000  16.2500  38.2500 Du        
  27191 ****        13.5000  16.2500  38.5000 Du        
  27192 ****        13.5000  16.2500  38.7500 Du        
  27193 ****        13.5000  16.5000  38.0000 Du        
  27194 ****        13.5000  16.5000  38.2500 Du        
  27195 ****        13.5000  16.5000  38.5000 Du        
  27196 ****        13.5000  16.5000  38.7500 Du        
  27197 ****        13.5000  16.7500  38.7500 Du        
  27198 ****        13.5000  16.7500  39.0000 Du        
  27199 ****        13.5000  19.7500  35.7500 Du        
  27200 ****        13.5000  19.7500  36.0000 Du        
  27201 ****        13.5000  19.7500  36.2500 Du        
  27202 ****        13.5000  20.0000  35.7500 Du        
  27203 ****        13.5000  20.0000  36.0000 Du        
  27204 ****        13.5000  20.0000  36.2500 Du        
  27205 ****        13.7500   2.2500  -2.0000 Du        
  27206 ****        13.7500   2.2500  -1.7500 Du        
  27207 ****        13.7500   2.2500  -1.5000 Du        
  27208 ****        13.7500   2.2500  -1.2500 Du        
  27209 ****        13.7500   2.2500  -1.0000 Du        
  27210 ****        13.7500   2.2500  -0.7500 Du        
  27211 ****        13.7500   2.5000  -2.5000 Du        
  27212 ****        13.7500   2.5000  -2.2500 Du        
  27213 ****        13.7500   2.5000  -2.0000 Du        
  27214 ****        13.7500   2.5000  -1.7500 Du        
  27215 ****        13.7500   2.5000  -1.5000 Du        
  27216 ****        13.7500   2.5000  -1.2500 Du        
  27217 ****        13.7500   2.5000  -1.0000 Du        
  27218 ****        13.7500   2.5000  -0.7500 Du        
  27219 ****        13.7500   2.7500  -2.5000 Du        
  27220 ****        13.7500   2.7500  -2.2500 Du        
  27221 ****        13.7500   2.7500  -2.0000 Du        
  27222 ****        13.7500   2.7500  -1.7500 Du        
  27223 ****        13.7500   2.7500  -1.5000 Du        
  27224 ****        13.7500   2.7500  -1.2500 Du        
  27225 ****        13.7500   2.7500  -1.0000 Du        
  27226 ****        13.7500   2.7500  -0.7500 Du        
  27227 ****        13.7500   3.0000  -2.2500 Du        
  27228 ****        13.7500   3.0000  -2.0000 Du        
  27229 ****        13.7500   3.0000  -1.7500 Du        
  27230 ****        13.7500   3.0000  -1.5000 Du        
  27231 ****        13.7500   3.0000  -1.2500 Du        
  27232 ****        13.7500   3.0000  -1.0000 Du        
  27233 ****        13.7500   3.0000  -0.7500 Du        
  27234 ****        13.7500   3.2500  -2.0000 Du        
  27235 ****        13.7500   3.2500  -1.7500 Du        
  27236 ****        13.7500   3.2500  -1.5000 Du        
  27237 ****        13.7500   3.2500  -1.2500 Du        
  27238 ****        13.7500   3.7500   8.2500 Du        
  27239 ****        13.7500   4.0000   7.2500 Du        
  27240 ****        13.7500   4.0000   7.5000 Du        
  27241 ****        13.7500   4.0000   7.7500 Du        
  27242 ****        13.7500   4.0000   8.0000 Du        
  27243 ****        13.7500   4.0000   8.2500 Du        
  27244 ****        13.7500   4.2500   7.2500 Du        
  27245 ****        13.7500   4.2500   7.5000 Du        
  27246 ****        13.7500   4.2500   7.7500 Du        
  27247 ****        13.7500   4.2500   8.0000 Du        
  27248 ****        13.7500   4.2500   8.2500 Du        
  27249 ****        13.7500   4.2500   8.7500 Du        
  27250 ****        13.7500   4.5000   7.0000 Du        
  27251 ****        13.7500   4.5000   7.2500 Du        
  27252 ****        13.7500   4.5000   7.5000 Du        
  27253 ****        13.7500   4.5000   7.7500 Du        
  27254 ****        13.7500   4.5000   8.0000 Du        
  27255 ****        13.7500   4.5000   8.2500 Du        
  27256 ****        13.7500   4.5000   8.5000 Du        
  27257 ****        13.7500   4.5000   8.7500 Du        
  27258 ****        13.7500   4.5000   9.0000 Du        
  27259 ****        13.7500   4.7500   6.7500 Du        
  27260 ****        13.7500   4.7500   7.0000 Du        
  27261 ****        13.7500   4.7500   7.2500 Du        
  27262 ****        13.7500   4.7500   7.5000 Du        
  27263 ****        13.7500   4.7500   7.7500 Du        
  27264 ****        13.7500   4.7500   8.0000 Du        
  27265 ****        13.7500   4.7500   8.2500 Du        
  27266 ****        13.7500   4.7500   8.5000 Du        
  27267 ****        13.7500   4.7500   8.7500 Du        
  27268 ****        13.7500   4.7500   9.0000 Du        
  27269 ****        13.7500   5.0000   6.7500 Du        
  27270 ****        13.7500   5.0000   7.0000 Du        
  27271 ****        13.7500   5.0000   7.2500 Du        
  27272 ****        13.7500   5.0000   7.5000 Du        
  27273 ****        13.7500   5.0000   7.7500 Du        
  27274 ****        13.7500   5.0000   8.0000 Du        
  27275 ****        13.7500   5.0000   8.2500 Du        
  27276 ****        13.7500   5.0000   8.5000 Du        
  27277 ****        13.7500   5.0000   8.7500 Du        
  27278 ****        13.7500   5.0000   9.0000 Du        
  27279 ****        13.7500   5.2500   6.7500 Du        
  27280 ****        13.7500   5.2500   7.0000 Du        
  27281 ****        13.7500   5.2500   7.2500 Du        
  27282 ****        13.7500   5.2500   7.5000 Du        
  27283 ****        13.7500   5.2500   7.7500 Du        
  27284 ****        13.7500   5.2500   8.0000 Du        
  27285 ****        13.7500   5.2500   8.2500 Du        
  27286 ****        13.7500   5.2500   8.5000 Du        
  27287 ****        13.7500   5.2500   8.7500 Du        
  27288 ****        13.7500   5.5000   6.5000 Du        
  27289 ****        13.7500   5.5000   6.7500 Du        
  27290 ****        13.7500   5.5000   7.0000 Du        
  27291 ****        13.7500   5.5000   7.2500 Du        
  27292 ****        13.7500   5.5000   7.5000 Du        
  27293 ****        13.7500   5.5000   7.7500 Du        
  27294 ****        13.7500   5.5000   8.0000 Du        
  27295 ****        13.7500   5.5000   8.2500 Du        
  27296 ****        13.7500   5.5000   8.5000 Du        
  27297 ****        13.7500   5.5000   8.7500 Du        
  27298 ****        13.7500   5.7500   6.5000 Du        
  27299 ****        13.7500   5.7500   6.7500 Du        
  27300 ****        13.7500   5.7500   7.0000 Du        
  27301 ****        13.7500   5.7500   7.2500 Du        
  27302 ****        13.7500   5.7500   7.5000 Du        
  27303 ****        13.7500   5.7500   7.7500 Du        
  27304 ****        13.7500   5.7500   8.0000 Du        
  27305 ****        13.7500   5.7500   8.2500 Du        
  27306 ****        13.7500   6.0000   6.2500 Du        
  27307 ****        13.7500   6.0000   6.5000 Du        
  27308 ****        13.7500   6.0000   6.7500 Du        
  27309 ****        13.7500   6.0000   7.0000 Du        
  27310 ****        13.7500   6.0000   7.2500 Du        
  27311 ****        13.7500   6.0000   7.5000 Du        
  27312 ****        13.7500   6.0000   7.7500 Du        
  27313 ****        13.7500   6.2500   6.2500 Du        
  27314 ****        13.7500   6.2500   6.5000 Du        
  27315 ****        13.7500   6.2500   6.7500 Du        
  27316 ****        13.7500   6.2500   7.0000 Du        
  27317 ****        13.7500   6.2500   7.2500 Du        
  27318 ****        13.7500   6.5000   6.2500 Du        
  27319 ****        13.7500   6.5000   6.5000 Du        
  27320 ****        13.7500   6.5000   6.7500 Du        
  27321 ****        13.7500   6.5000   7.0000 Du        
  27322 ****        13.7500   8.5000  20.5000 Du        
  27323 ****        13.7500   8.5000  20.7500 Du        
  27324 ****        13.7500   8.5000  25.7500 Du        
  27325 ****        13.7500   8.5000  26.0000 Du        
  27326 ****        13.7500   8.5000  26.2500 Du        
  27327 ****        13.7500   8.5000  26.5000 Du        
  27328 ****        13.7500   8.5000  26.7500 Du        
  27329 ****        13.7500   8.7500  20.2500 Du        
  27330 ****        13.7500   8.7500  20.5000 Du        
  27331 ****        13.7500   8.7500  20.7500 Du        
  27332 ****        13.7500   8.7500  21.0000 Du        
  27333 ****        13.7500   8.7500  26.5000 Du        
  27334 ****        13.7500   8.7500  26.7500 Du        
  27335 ****        13.7500   8.7500  27.0000 Du        
  27336 ****        13.7500   8.7500  27.2500 Du        
  27337 ****        13.7500   9.0000  20.2500 Du        
  27338 ****        13.7500   9.0000  20.5000 Du        
  27339 ****        13.7500   9.0000  20.7500 Du        
  27340 ****        13.7500   9.0000  21.0000 Du        
  27341 ****        13.7500   9.0000  27.2500 Du        
  27342 ****        13.7500   9.2500  20.0000 Du        
  27343 ****        13.7500   9.2500  20.2500 Du        
  27344 ****        13.7500   9.2500  20.5000 Du        
  27345 ****        13.7500   9.2500  20.7500 Du        
  27346 ****        13.7500   9.2500  21.0000 Du        
  27347 ****        13.7500   9.5000  20.0000 Du        
  27348 ****        13.7500   9.5000  20.2500 Du        
  27349 ****        13.7500   9.5000  20.5000 Du        
  27350 ****        13.7500   9.5000  20.7500 Du        
  27351 ****        13.7500   9.7500  20.5000 Du        
  27352 ****        13.7500  10.5000  16.0000 Du        
  27353 ****        13.7500  10.7500  15.7500 Du        
  27354 ****        13.7500  10.7500  16.0000 Du        
  27355 ****        13.7500  11.0000  15.5000 Du        
  27356 ****        13.7500  11.0000  15.7500 Du        
  27357 ****        13.7500  11.0000  16.0000 Du        
  27358 ****        13.7500  11.2500  15.2500 Du        
  27359 ****        13.7500  11.2500  15.5000 Du        
  27360 ****        13.7500  11.2500  15.7500 Du        
  27361 ****        13.7500  11.5000  14.7500 Du        
  27362 ****        13.7500  11.5000  15.0000 Du        
  27363 ****        13.7500  11.5000  15.2500 Du        
  27364 ****        13.7500  11.5000  15.5000 Du        
  27365 ****        13.7500  11.7500  14.2500 Du        
  27366 ****        13.7500  11.7500  14.5000 Du        
  27367 ****        13.7500  11.7500  14.7500 Du        
  27368 ****        13.7500  11.7500  15.0000 Du        
  27369 ****        13.7500  11.7500  15.2500 Du        
  27370 ****        13.7500  11.7500  15.5000 Du        
  27371 ****        13.7500  12.0000  14.0000 Du        
  27372 ****        13.7500  12.0000  14.2500 Du        
  27373 ****        13.7500  12.0000  14.5000 Du        
  27374 ****        13.7500  12.0000  14.7500 Du        
  27375 ****        13.7500  12.0000  15.0000 Du        
  27376 ****        13.7500  12.0000  15.2500 Du        
  27377 ****        13.7500  12.2500   9.0000 Du        
  27378 ****        13.7500  12.2500   9.2500 Du        
  27379 ****        13.7500  12.2500   9.5000 Du        
  27380 ****        13.7500  12.2500   9.7500 Du        
  27381 ****        13.7500  12.2500  10.0000 Du        
  27382 ****        13.7500  12.2500  10.2500 Du        
  27383 ****        13.7500  12.2500  11.0000 Du        
  27384 ****        13.7500  12.2500  11.2500 Du        
  27385 ****        13.7500  12.2500  11.5000 Du        
  27386 ****        13.7500  12.2500  11.7500 Du        
  27387 ****        13.7500  12.2500  12.0000 Du        
  27388 ****        13.7500  12.2500  12.2500 Du        
  27389 ****        13.7500  12.2500  12.5000 Du        
  27390 ****        13.7500  12.2500  12.7500 Du        
  27391 ****        13.7500  12.2500  13.0000 Du        
  27392 ****        13.7500  12.2500  13.2500 Du        
  27393 ****        13.7500  12.2500  13.5000 Du        
  27394 ****        13.7500  12.2500  13.7500 Du        
  27395 ****        13.7500  12.2500  14.0000 Du        
  27396 ****        13.7500  12.2500  14.2500 Du        
  27397 ****        13.7500  12.2500  14.5000 Du        
  27398 ****        13.7500  12.2500  14.7500 Du        
  27399 ****        13.7500  12.2500  15.0000 Du        
  27400 ****        13.7500  12.2500  15.2500 Du        
  27401 ****        13.7500  12.5000   9.0000 Du        
  27402 ****        13.7500  12.5000   9.2500 Du        
  27403 ****        13.7500  12.5000   9.5000 Du        
  27404 ****        13.7500  12.5000   9.7500 Du        
  27405 ****        13.7500  12.5000  10.0000 Du        
  27406 ****        13.7500  12.5000  10.2500 Du        
  27407 ****        13.7500  12.5000  10.5000 Du        
  27408 ****        13.7500  12.5000  10.7500 Du        
  27409 ****        13.7500  12.5000  11.0000 Du        
  27410 ****        13.7500  12.5000  11.2500 Du        
  27411 ****        13.7500  12.5000  11.5000 Du        
  27412 ****        13.7500  12.5000  11.7500 Du        
  27413 ****        13.7500  12.5000  12.0000 Du        
  27414 ****        13.7500  12.5000  12.2500 Du        
  27415 ****        13.7500  12.5000  12.5000 Du        
  27416 ****        13.7500  12.5000  12.7500 Du        
  27417 ****        13.7500  12.5000  13.0000 Du        
  27418 ****        13.7500  12.5000  13.2500 Du        
  27419 ****        13.7500  12.5000  13.5000 Du        
  27420 ****        13.7500  12.5000  13.7500 Du        
  27421 ****        13.7500  12.5000  14.0000 Du        
  27422 ****        13.7500  12.5000  14.2500 Du        
  27423 ****        13.7500  12.5000  14.5000 Du        
  27424 ****        13.7500  12.5000  14.7500 Du        
  27425 ****        13.7500  12.5000  15.0000 Du        
  27426 ****        13.7500  12.5000  15.2500 Du        
  27427 ****        13.7500  12.7500   9.2500 Du        
  27428 ****        13.7500  12.7500   9.5000 Du        
  27429 ****        13.7500  12.7500   9.7500 Du        
  27430 ****        13.7500  12.7500  10.0000 Du        
  27431 ****        13.7500  12.7500  10.2500 Du        
  27432 ****        13.7500  12.7500  10.5000 Du        
  27433 ****        13.7500  12.7500  10.7500 Du        
  27434 ****        13.7500  12.7500  11.0000 Du        
  27435 ****        13.7500  12.7500  11.2500 Du        
  27436 ****        13.7500  12.7500  11.5000 Du        
  27437 ****        13.7500  12.7500  11.7500 Du        
  27438 ****        13.7500  12.7500  12.0000 Du        
  27439 ****        13.7500  12.7500  12.2500 Du        
  27440 ****        13.7500  12.7500  12.5000 Du        
  27441 ****        13.7500  12.7500  12.7500 Du        
  27442 ****        13.7500  12.7500  13.0000 Du        
  27443 ****        13.7500  12.7500  13.2500 Du        
  27444 ****        13.7500  12.7500  13.5000 Du        
  27445 ****        13.7500  12.7500  13.7500 Du        
  27446 ****        13.7500  12.7500  14.0000 Du        
  27447 ****        13.7500  12.7500  14.2500 Du        
  27448 ****        13.7500  12.7500  14.5000 Du        
  27449 ****        13.7500  12.7500  14.7500 Du        
  27450 ****        13.7500  12.7500  15.0000 Du        
  27451 ****        13.7500  12.7500  15.2500 Du        
  27452 ****        13.7500  13.0000   9.5000 Du        
  27453 ****        13.7500  13.0000   9.7500 Du        
  27454 ****        13.7500  13.0000  10.0000 Du        
  27455 ****        13.7500  13.0000  10.2500 Du        
  27456 ****        13.7500  13.0000  10.5000 Du        
  27457 ****        13.7500  13.0000  10.7500 Du        
  27458 ****        13.7500  13.0000  11.0000 Du        
  27459 ****        13.7500  13.0000  11.2500 Du        
  27460 ****        13.7500  13.0000  11.5000 Du        
  27461 ****        13.7500  13.0000  11.7500 Du        
  27462 ****        13.7500  13.0000  12.0000 Du        
  27463 ****        13.7500  13.0000  12.2500 Du        
  27464 ****        13.7500  13.0000  12.5000 Du        
  27465 ****        13.7500  13.0000  12.7500 Du        
  27466 ****        13.7500  13.0000  13.0000 Du        
  27467 ****        13.7500  13.0000  13.2500 Du        
  27468 ****        13.7500  13.0000  13.5000 Du        
  27469 ****        13.7500  13.0000  13.7500 Du        
  27470 ****        13.7500  13.0000  14.0000 Du        
  27471 ****        13.7500  13.0000  14.2500 Du        
  27472 ****        13.7500  13.0000  14.5000 Du        
  27473 ****        13.7500  13.0000  14.7500 Du        
  27474 ****        13.7500  13.0000  15.0000 Du        
  27475 ****        13.7500  13.0000  15.2500 Du        
  27476 ****        13.7500  13.2500   9.7500 Du        
  27477 ****        13.7500  13.2500  10.0000 Du        
  27478 ****        13.7500  13.2500  10.2500 Du        
  27479 ****        13.7500  13.2500  10.5000 Du        
  27480 ****        13.7500  13.2500  10.7500 Du        
  27481 ****        13.7500  13.2500  11.0000 Du        
  27482 ****        13.7500  13.2500  11.2500 Du        
  27483 ****        13.7500  13.2500  11.5000 Du        
  27484 ****        13.7500  13.2500  11.7500 Du        
  27485 ****        13.7500  13.2500  12.0000 Du        
  27486 ****        13.7500  13.2500  12.2500 Du        
  27487 ****        13.7500  13.2500  12.7500 Du        
  27488 ****        13.7500  13.2500  13.0000 Du        
  27489 ****        13.7500  13.2500  13.2500 Du        
  27490 ****        13.7500  13.2500  13.5000 Du        
  27491 ****        13.7500  13.2500  13.7500 Du        
  27492 ****        13.7500  13.2500  14.0000 Du        
  27493 ****        13.7500  13.2500  14.2500 Du        
  27494 ****        13.7500  13.2500  14.5000 Du        
  27495 ****        13.7500  13.2500  14.7500 Du        
  27496 ****        13.7500  13.2500  15.0000 Du        
  27497 ****        13.7500  13.2500  15.2500 Du        
  27498 ****        13.7500  13.5000  12.5000 Du        
  27499 ****        13.7500  13.5000  12.7500 Du        
  27500 ****        13.7500  13.5000  13.0000 Du        
  27501 ****        13.7500  13.5000  13.2500 Du        
  27502 ****        13.7500  13.5000  13.5000 Du        
  27503 ****        13.7500  13.5000  13.7500 Du        
  27504 ****        13.7500  13.5000  14.0000 Du        
  27505 ****        13.7500  13.5000  14.2500 Du        
  27506 ****        13.7500  13.5000  14.5000 Du        
  27507 ****        13.7500  13.5000  14.7500 Du        
  27508 ****        13.7500  13.5000  15.0000 Du        
  27509 ****        13.7500  13.5000  15.2500 Du        
  27510 ****        13.7500  13.7500  12.7500 Du        
  27511 ****        13.7500  13.7500  13.0000 Du        
  27512 ****        13.7500  13.7500  13.2500 Du        
  27513 ****        13.7500  13.7500  13.5000 Du        
  27514 ****        13.7500  13.7500  13.7500 Du        
  27515 ****        13.7500  13.7500  14.0000 Du        
  27516 ****        13.7500  13.7500  14.2500 Du        
  27517 ****        13.7500  13.7500  14.5000 Du        
  27518 ****        13.7500  13.7500  14.7500 Du        
  27519 ****        13.7500  13.7500  15.0000 Du        
  27520 ****        13.7500  13.7500  15.2500 Du        
  27521 ****        13.7500  14.0000  12.7500 Du        
  27522 ****        13.7500  14.0000  13.0000 Du        
  27523 ****        13.7500  14.0000  13.2500 Du        
  27524 ****        13.7500  14.0000  13.5000 Du        
  27525 ****        13.7500  14.0000  13.7500 Du        
  27526 ****        13.7500  14.0000  14.0000 Du        
  27527 ****        13.7500  14.0000  14.2500 Du        
  27528 ****        13.7500  14.0000  14.5000 Du        
  27529 ****        13.7500  14.0000  14.7500 Du        
  27530 ****        13.7500  14.0000  15.0000 Du        
  27531 ****        13.7500  14.0000  15.2500 Du        
  27532 ****        13.7500  14.2500  13.0000 Du        
  27533 ****        13.7500  14.2500  13.2500 Du        
  27534 ****        13.7500  14.2500  13.5000 Du        
  27535 ****        13.7500  14.2500  13.7500 Du        
  27536 ****        13.7500  14.2500  14.0000 Du        
  27537 ****        13.7500  14.2500  14.2500 Du        
  27538 ****        13.7500  14.2500  14.5000 Du        
  27539 ****        13.7500  14.2500  14.7500 Du        
  27540 ****        13.7500  14.2500  15.0000 Du        
  27541 ****        13.7500  14.2500  15.2500 Du        
  27542 ****        13.7500  14.5000  13.5000 Du        
  27543 ****        13.7500  14.5000  13.7500 Du        
  27544 ****        13.7500  14.5000  14.0000 Du        
  27545 ****        13.7500  14.5000  14.2500 Du        
  27546 ****        13.7500  14.5000  14.5000 Du        
  27547 ****        13.7500  14.5000  14.7500 Du        
  27548 ****        13.7500  14.5000  15.0000 Du        
  27549 ****        13.7500  14.5000  15.2500 Du        
  27550 ****        13.7500  14.7500  13.5000 Du        
  27551 ****        13.7500  14.7500  13.7500 Du        
  27552 ****        13.7500  14.7500  14.0000 Du        
  27553 ****        13.7500  14.7500  14.2500 Du        
  27554 ****        13.7500  14.7500  14.5000 Du        
  27555 ****        13.7500  14.7500  14.7500 Du        
  27556 ****        13.7500  14.7500  15.0000 Du        
  27557 ****        13.7500  15.0000  13.5000 Du        
  27558 ****        13.7500  15.0000  13.7500 Du        
  27559 ****        13.7500  15.0000  14.0000 Du        
  27560 ****        13.7500  15.0000  14.2500 Du        
  27561 ****        13.7500  15.0000  14.5000 Du        
  27562 ****        13.7500  15.0000  14.7500 Du        
  27563 ****        13.7500  15.0000  15.0000 Du        
  27564 ****        13.7500  15.2500  13.7500 Du        
  27565 ****        13.7500  15.2500  14.0000 Du        
  27566 ****        13.7500  15.2500  14.2500 Du        
  27567 ****        13.7500  15.2500  14.5000 Du        
  27568 ****        13.7500  16.0000  37.7500 Du        
  27569 ****        13.7500  16.0000  38.0000 Du        
  27570 ****        13.7500  16.0000  38.2500 Du        
  27571 ****        13.7500  16.0000  38.5000 Du        
  27572 ****        13.7500  16.2500  37.7500 Du        
  27573 ****        13.7500  16.2500  38.0000 Du        
  27574 ****        13.7500  16.2500  38.2500 Du        
  27575 ****        13.7500  16.2500  38.5000 Du        
  27576 ****        13.7500  16.2500  38.7500 Du        
  27577 ****        13.7500  16.5000  38.0000 Du        
  27578 ****        13.7500  16.5000  38.2500 Du        
  27579 ****        13.7500  16.5000  38.7500 Du        
  27580 ****        13.7500  16.7500  38.7500 Du        
  27581 ****        13.7500  19.7500  35.5000 Du        
  27582 ****        13.7500  19.7500  35.7500 Du        
  27583 ****        13.7500  19.7500  36.0000 Du        
  27584 ****        13.7500  20.0000  35.7500 Du        
  27585 ****        13.7500  20.0000  36.0000 Du        
  27586 ****        14.0000   2.2500  -1.7500 Du        
  27587 ****        14.0000   2.2500  -1.2500 Du        
  27588 ****        14.0000   2.2500  -1.0000 Du        
  27589 ****        14.0000   2.5000  -2.2500 Du        
  27590 ****        14.0000   2.5000  -2.0000 Du        
  27591 ****        14.0000   2.5000  -1.7500 Du        
  27592 ****        14.0000   2.5000  -1.5000 Du        
  27593 ****        14.0000   2.5000  -1.2500 Du        
  27594 ****        14.0000   2.5000  -1.0000 Du        
  27595 ****        14.0000   2.7500  -2.2500 Du        
  27596 ****        14.0000   2.7500  -2.0000 Du        
  27597 ****        14.0000   2.7500  -1.7500 Du        
  27598 ****        14.0000   2.7500  -1.5000 Du        
  27599 ****        14.0000   2.7500  -1.2500 Du        
  27600 ****        14.0000   2.7500  -1.0000 Du        
  27601 ****        14.0000   2.7500  -0.7500 Du        
  27602 ****        14.0000   3.0000  -2.0000 Du        
  27603 ****        14.0000   3.0000  -1.7500 Du        
  27604 ****        14.0000   3.0000  -1.5000 Du        
  27605 ****        14.0000   3.0000  -1.2500 Du        
  27606 ****        14.0000   3.0000  -1.0000 Du        
  27607 ****        14.0000   3.7500   7.2500 Du        
  27608 ****        14.0000   3.7500   7.7500 Du        
  27609 ****        14.0000   3.7500   8.0000 Du        
  27610 ****        14.0000   3.7500   8.2500 Du        
  27611 ****        14.0000   4.0000   7.0000 Du        
  27612 ****        14.0000   4.0000   7.2500 Du        
  27613 ****        14.0000   4.0000   7.5000 Du        
  27614 ****        14.0000   4.0000   7.7500 Du        
  27615 ****        14.0000   4.0000   8.0000 Du        
  27616 ****        14.0000   4.0000   8.2500 Du        
  27617 ****        14.0000   4.0000   8.5000 Du        
  27618 ****        14.0000   4.2500   7.0000 Du        
  27619 ****        14.0000   4.2500   7.2500 Du        
  27620 ****        14.0000   4.2500   7.5000 Du        
  27621 ****        14.0000   4.2500   7.7500 Du        
  27622 ****        14.0000   4.2500   8.0000 Du        
  27623 ****        14.0000   4.2500   8.2500 Du        
  27624 ****        14.0000   4.5000   6.7500 Du        
  27625 ****        14.0000   4.5000   7.0000 Du        
  27626 ****        14.0000   4.5000   7.2500 Du        
  27627 ****        14.0000   4.5000   7.5000 Du        
  27628 ****        14.0000   4.5000   7.7500 Du        
  27629 ****        14.0000   4.5000   8.0000 Du        
  27630 ****        14.0000   4.5000   8.2500 Du        
  27631 ****        14.0000   4.5000   8.5000 Du        
  27632 ****        14.0000   4.5000   8.7500 Du        
  27633 ****        14.0000   4.7500   6.7500 Du        
  27634 ****        14.0000   4.7500   7.0000 Du        
  27635 ****        14.0000   4.7500   7.2500 Du        
  27636 ****        14.0000   4.7500   7.5000 Du        
  27637 ****        14.0000   4.7500   7.7500 Du        
  27638 ****        14.0000   4.7500   8.0000 Du        
  27639 ****        14.0000   4.7500   8.2500 Du        
  27640 ****        14.0000   4.7500   8.5000 Du        
  27641 ****        14.0000   4.7500   8.7500 Du        
  27642 ****        14.0000   5.0000   6.5000 Du        
  27643 ****        14.0000   5.0000   6.7500 Du        
  27644 ****        14.0000   5.0000   7.0000 Du        
  27645 ****        14.0000   5.0000   7.2500 Du        
  27646 ****        14.0000   5.0000   7.5000 Du        
  27647 ****        14.0000   5.0000   7.7500 Du        
  27648 ****        14.0000   5.0000   8.0000 Du        
  27649 ****        14.0000   5.0000   8.2500 Du        
  27650 ****        14.0000   5.0000   8.5000 Du        
  27651 ****        14.0000   5.0000   8.7500 Du        
  27652 ****        14.0000   5.2500   6.5000 Du        
  27653 ****        14.0000   5.2500   6.7500 Du        
  27654 ****        14.0000   5.2500   7.0000 Du        
  27655 ****        14.0000   5.2500   7.2500 Du        
  27656 ****        14.0000   5.2500   7.5000 Du        
  27657 ****        14.0000   5.2500   7.7500 Du        
  27658 ****        14.0000   5.2500   8.0000 Du        
  27659 ****        14.0000   5.2500   8.2500 Du        
  27660 ****        14.0000   5.2500   8.5000 Du        
  27661 ****        14.0000   5.2500   8.7500 Du        
  27662 ****        14.0000   5.5000   6.2500 Du        
  27663 ****        14.0000   5.5000   6.5000 Du        
  27664 ****        14.0000   5.5000   6.7500 Du        
  27665 ****        14.0000   5.5000   7.0000 Du        
  27666 ****        14.0000   5.5000   7.2500 Du        
  27667 ****        14.0000   5.5000   7.5000 Du        
  27668 ****        14.0000   5.5000   7.7500 Du        
  27669 ****        14.0000   5.5000   8.0000 Du        
  27670 ****        14.0000   5.5000   8.2500 Du        
  27671 ****        14.0000   5.5000   8.5000 Du        
  27672 ****        14.0000   5.7500   6.2500 Du        
  27673 ****        14.0000   5.7500   6.5000 Du        
  27674 ****        14.0000   5.7500   6.7500 Du        
  27675 ****        14.0000   5.7500   7.0000 Du        
  27676 ****        14.0000   5.7500   7.2500 Du        
  27677 ****        14.0000   5.7500   7.5000 Du        
  27678 ****        14.0000   5.7500   7.7500 Du        
  27679 ****        14.0000   5.7500   8.0000 Du        
  27680 ****        14.0000   5.7500   8.2500 Du        
  27681 ****        14.0000   5.7500   8.5000 Du        
  27682 ****        14.0000   6.0000   6.0000 Du        
  27683 ****        14.0000   6.0000   6.2500 Du        
  27684 ****        14.0000   6.0000   6.5000 Du        
  27685 ****        14.0000   6.0000   6.7500 Du        
  27686 ****        14.0000   6.0000   7.0000 Du        
  27687 ****        14.0000   6.0000   7.2500 Du        
  27688 ****        14.0000   6.0000   7.5000 Du        
  27689 ****        14.0000   6.0000   7.7500 Du        
  27690 ****        14.0000   6.0000   8.0000 Du        
  27691 ****        14.0000   6.0000   8.2500 Du        
  27692 ****        14.0000   6.2500   6.0000 Du        
  27693 ****        14.0000   6.2500   6.2500 Du        
  27694 ****        14.0000   6.2500   6.5000 Du        
  27695 ****        14.0000   6.2500   6.7500 Du        
  27696 ****        14.0000   6.2500   7.0000 Du        
  27697 ****        14.0000   6.2500   7.2500 Du        
  27698 ****        14.0000   6.2500   7.5000 Du        
  27699 ****        14.0000   6.5000   6.0000 Du        
  27700 ****        14.0000   6.5000   6.2500 Du        
  27701 ****        14.0000   6.5000   6.5000 Du        
  27702 ****        14.0000   6.5000   6.7500 Du        
  27703 ****        14.0000   6.5000   7.0000 Du        
  27704 ****        14.0000   8.5000  26.0000 Du        
  27705 ****        14.0000   8.5000  26.2500 Du        
  27706 ****        14.0000   8.5000  26.5000 Du        
  27707 ****        14.0000   8.5000  26.7500 Du        
  27708 ****        14.0000   8.7500  20.5000 Du        
  27709 ****        14.0000   8.7500  26.5000 Du        
  27710 ****        14.0000   8.7500  26.7500 Du        
  27711 ****        14.0000   8.7500  27.0000 Du        
  27712 ****        14.0000   8.7500  27.2500 Du        
  27713 ****        14.0000   9.0000  20.2500 Du        
  27714 ****        14.0000   9.0000  20.5000 Du        
  27715 ****        14.0000   9.0000  20.7500 Du        
  27716 ****        14.0000   9.0000  21.0000 Du        
  27717 ****        14.0000   9.0000  27.0000 Du        
  27718 ****        14.0000   9.0000  27.2500 Du        
  27719 ****        14.0000   9.2500  20.2500 Du        
  27720 ****        14.0000   9.2500  20.5000 Du        
  27721 ****        14.0000   9.2500  20.7500 Du        
  27722 ****        14.0000   9.2500  21.0000 Du        
  27723 ****        14.0000   9.5000  20.2500 Du        
  27724 ****        14.0000   9.5000  20.5000 Du        
  27725 ****        14.0000   9.5000  20.7500 Du        
  27726 ****        14.0000   9.5000  21.0000 Du        
  27727 ****        14.0000   9.7500  20.2500 Du        
  27728 ****        14.0000   9.7500  20.5000 Du        
  27729 ****        14.0000   9.7500  20.7500 Du        
  27730 ****        14.0000  11.0000  15.7500 Du        
  27731 ****        14.0000  11.2500  15.2500 Du        
  27732 ****        14.0000  11.2500  15.5000 Du        
  27733 ****        14.0000  11.5000  15.0000 Du        
  27734 ****        14.0000  11.5000  15.2500 Du        
  27735 ****        14.0000  11.7500  14.2500 Du        
  27736 ****        14.0000  11.7500  14.5000 Du        
  27737 ****        14.0000  11.7500  14.7500 Du        
  27738 ****        14.0000  11.7500  15.0000 Du        
  27739 ****        14.0000  11.7500  15.2500 Du        
  27740 ****        14.0000  12.0000   9.0000 Du        
  27741 ****        14.0000  12.0000   9.2500 Du        
  27742 ****        14.0000  12.0000   9.5000 Du        
  27743 ****        14.0000  12.0000   9.7500 Du        
  27744 ****        14.0000  12.0000  11.7500 Du        
  27745 ****        14.0000  12.0000  12.0000 Du        
  27746 ****        14.0000  12.0000  12.2500 Du        
  27747 ****        14.0000  12.0000  13.0000 Du        
  27748 ****        14.0000  12.0000  13.2500 Du        
  27749 ****        14.0000  12.0000  13.7500 Du        
  27750 ****        14.0000  12.0000  14.0000 Du        
  27751 ****        14.0000  12.0000  14.2500 Du        
  27752 ****        14.0000  12.0000  14.5000 Du        
  27753 ****        14.0000  12.0000  14.7500 Du        
  27754 ****        14.0000  12.0000  15.0000 Du        
  27755 ****        14.0000  12.0000  15.2500 Du        
  27756 ****        14.0000  12.2500   9.0000 Du        
  27757 ****        14.0000  12.2500   9.2500 Du        
  27758 ****        14.0000  12.2500   9.5000 Du        
  27759 ****        14.0000  12.2500   9.7500 Du        
  27760 ****        14.0000  12.2500  10.0000 Du        
  27761 ****        14.0000  12.2500  10.2500 Du        
  27762 ****        14.0000  12.2500  10.5000 Du        
  27763 ****        14.0000  12.2500  10.7500 Du        
  27764 ****        14.0000  12.2500  11.0000 Du        
  27765 ****        14.0000  12.2500  11.2500 Du        
  27766 ****        14.0000  12.2500  11.5000 Du        
  27767 ****        14.0000  12.2500  11.7500 Du        
  27768 ****        14.0000  12.2500  12.0000 Du        
  27769 ****        14.0000  12.2500  12.2500 Du        
  27770 ****        14.0000  12.2500  12.5000 Du        
  27771 ****        14.0000  12.2500  12.7500 Du        
  27772 ****        14.0000  12.2500  13.0000 Du        
  27773 ****        14.0000  12.2500  13.2500 Du        
  27774 ****        14.0000  12.2500  13.5000 Du        
  27775 ****        14.0000  12.2500  13.7500 Du        
  27776 ****        14.0000  12.2500  14.0000 Du        
  27777 ****        14.0000  12.2500  14.2500 Du        
  27778 ****        14.0000  12.2500  14.5000 Du        
  27779 ****        14.0000  12.2500  14.7500 Du        
  27780 ****        14.0000  12.2500  15.0000 Du        
  27781 ****        14.0000  12.2500  15.2500 Du        
  27782 ****        14.0000  12.5000   9.0000 Du        
  27783 ****        14.0000  12.5000   9.2500 Du        
  27784 ****        14.0000  12.5000   9.5000 Du        
  27785 ****        14.0000  12.5000   9.7500 Du        
  27786 ****        14.0000  12.5000  10.0000 Du        
  27787 ****        14.0000  12.5000  10.2500 Du        
  27788 ****        14.0000  12.5000  10.5000 Du        
  27789 ****        14.0000  12.5000  10.7500 Du        
  27790 ****        14.0000  12.5000  11.0000 Du        
  27791 ****        14.0000  12.5000  11.2500 Du        
  27792 ****        14.0000  12.5000  11.5000 Du        
  27793 ****        14.0000  12.5000  11.7500 Du        
  27794 ****        14.0000  12.5000  12.0000 Du        
  27795 ****        14.0000  12.5000  12.2500 Du        
  27796 ****        14.0000  12.5000  12.5000 Du        
  27797 ****        14.0000  12.5000  12.7500 Du        
  27798 ****        14.0000  12.5000  13.0000 Du        
  27799 ****        14.0000  12.5000  13.2500 Du        
  27800 ****        14.0000  12.5000  13.5000 Du        
  27801 ****        14.0000  12.5000  13.7500 Du        
  27802 ****        14.0000  12.5000  14.0000 Du        
  27803 ****        14.0000  12.5000  14.2500 Du        
  27804 ****        14.0000  12.5000  14.5000 Du        
  27805 ****        14.0000  12.5000  14.7500 Du        
  27806 ****        14.0000  12.5000  15.0000 Du        
  27807 ****        14.0000  12.5000  15.2500 Du        
  27808 ****        14.0000  12.7500   9.2500 Du        
  27809 ****        14.0000  12.7500   9.5000 Du        
  27810 ****        14.0000  12.7500   9.7500 Du        
  27811 ****        14.0000  12.7500  10.0000 Du        
  27812 ****        14.0000  12.7500  10.2500 Du        
  27813 ****        14.0000  12.7500  10.5000 Du        
  27814 ****        14.0000  12.7500  10.7500 Du        
  27815 ****        14.0000  12.7500  11.0000 Du        
  27816 ****        14.0000  12.7500  11.2500 Du        
  27817 ****        14.0000  12.7500  11.5000 Du        
  27818 ****        14.0000  12.7500  11.7500 Du        
  27819 ****        14.0000  12.7500  12.0000 Du        
  27820 ****        14.0000  12.7500  12.2500 Du        
  27821 ****        14.0000  12.7500  12.5000 Du        
  27822 ****        14.0000  12.7500  12.7500 Du        
  27823 ****        14.0000  12.7500  13.0000 Du        
  27824 ****        14.0000  12.7500  13.2500 Du        
  27825 ****        14.0000  12.7500  13.5000 Du        
  27826 ****        14.0000  12.7500  13.7500 Du        
  27827 ****        14.0000  12.7500  14.0000 Du        
  27828 ****        14.0000  12.7500  14.2500 Du        
  27829 ****        14.0000  12.7500  14.5000 Du        
  27830 ****        14.0000  12.7500  14.7500 Du        
  27831 ****        14.0000  12.7500  15.0000 Du        
  27832 ****        14.0000  12.7500  15.2500 Du        
  27833 ****        14.0000  13.0000   9.5000 Du        
  27834 ****        14.0000  13.0000   9.7500 Du        
  27835 ****        14.0000  13.0000  10.0000 Du        
  27836 ****        14.0000  13.0000  10.2500 Du        
  27837 ****        14.0000  13.0000  10.5000 Du        
  27838 ****        14.0000  13.0000  10.7500 Du        
  27839 ****        14.0000  13.0000  11.0000 Du        
  27840 ****        14.0000  13.0000  11.2500 Du        
  27841 ****        14.0000  13.0000  11.5000 Du        
  27842 ****        14.0000  13.0000  11.7500 Du        
  27843 ****        14.0000  13.0000  12.0000 Du        
  27844 ****        14.0000  13.0000  12.2500 Du        
  27845 ****        14.0000  13.0000  12.5000 Du        
  27846 ****        14.0000  13.0000  12.7500 Du        
  27847 ****        14.0000  13.0000  13.0000 Du        
  27848 ****        14.0000  13.0000  13.2500 Du        
  27849 ****        14.0000  13.0000  13.5000 Du        
  27850 ****        14.0000  13.0000  13.7500 Du        
  27851 ****        14.0000  13.0000  14.0000 Du        
  27852 ****        14.0000  13.0000  14.2500 Du        
  27853 ****        14.0000  13.0000  14.5000 Du        
  27854 ****        14.0000  13.0000  14.7500 Du        
  27855 ****        14.0000  13.0000  15.0000 Du        
  27856 ****        14.0000  13.0000  15.2500 Du        
  27857 ****        14.0000  13.2500   9.7500 Du        
  27858 ****        14.0000  13.2500  10.0000 Du        
  27859 ****        14.0000  13.2500  10.2500 Du        
  27860 ****        14.0000  13.2500  10.5000 Du        
  27861 ****        14.0000  13.2500  10.7500 Du        
  27862 ****        14.0000  13.2500  11.0000 Du        
  27863 ****        14.0000  13.2500  11.2500 Du        
  27864 ****        14.0000  13.2500  11.5000 Du        
  27865 ****        14.0000  13.2500  11.7500 Du        
  27866 ****        14.0000  13.2500  12.0000 Du        
  27867 ****        14.0000  13.2500  12.2500 Du        
  27868 ****        14.0000  13.2500  12.5000 Du        
  27869 ****        14.0000  13.2500  12.7500 Du        
  27870 ****        14.0000  13.2500  13.0000 Du        
  27871 ****        14.0000  13.2500  13.2500 Du        
  27872 ****        14.0000  13.2500  13.5000 Du        
  27873 ****        14.0000  13.2500  13.7500 Du        
  27874 ****        14.0000  13.2500  14.0000 Du        
  27875 ****        14.0000  13.2500  14.2500 Du        
  27876 ****        14.0000  13.2500  14.5000 Du        
  27877 ****        14.0000  13.2500  14.7500 Du        
  27878 ****        14.0000  13.2500  15.0000 Du        
  27879 ****        14.0000  13.2500  15.2500 Du        
  27880 ****        14.0000  13.5000  10.0000 Du        
  27881 ****        14.0000  13.5000  10.2500 Du        
  27882 ****        14.0000  13.5000  10.5000 Du        
  27883 ****        14.0000  13.5000  10.7500 Du        
  27884 ****        14.0000  13.5000  11.0000 Du        
  27885 ****        14.0000  13.5000  11.2500 Du        
  27886 ****        14.0000  13.5000  11.7500 Du        
  27887 ****        14.0000  13.5000  12.0000 Du        
  27888 ****        14.0000  13.5000  12.2500 Du        
  27889 ****        14.0000  13.5000  12.5000 Du        
  27890 ****        14.0000  13.5000  12.7500 Du        
  27891 ****        14.0000  13.5000  13.0000 Du        
  27892 ****        14.0000  13.5000  13.2500 Du        
  27893 ****        14.0000  13.5000  13.5000 Du        
  27894 ****        14.0000  13.5000  13.7500 Du        
  27895 ****        14.0000  13.5000  14.0000 Du        
  27896 ****        14.0000  13.5000  14.2500 Du        
  27897 ****        14.0000  13.5000  14.5000 Du        
  27898 ****        14.0000  13.5000  14.7500 Du        
  27899 ****        14.0000  13.5000  15.0000 Du        
  27900 ****        14.0000  13.5000  15.2500 Du        
  27901 ****        14.0000  13.7500  12.7500 Du        
  27902 ****        14.0000  13.7500  13.0000 Du        
  27903 ****        14.0000  13.7500  13.2500 Du        
  27904 ****        14.0000  13.7500  13.5000 Du        
  27905 ****        14.0000  13.7500  13.7500 Du        
  27906 ****        14.0000  13.7500  14.0000 Du        
  27907 ****        14.0000  13.7500  14.2500 Du        
  27908 ****        14.0000  13.7500  14.5000 Du        
  27909 ****        14.0000  13.7500  14.7500 Du        
  27910 ****        14.0000  13.7500  15.0000 Du        
  27911 ****        14.0000  13.7500  15.2500 Du        
  27912 ****        14.0000  14.0000  12.7500 Du        
  27913 ****        14.0000  14.0000  13.0000 Du        
  27914 ****        14.0000  14.0000  13.2500 Du        
  27915 ****        14.0000  14.0000  13.5000 Du        
  27916 ****        14.0000  14.0000  13.7500 Du        
  27917 ****        14.0000  14.0000  14.0000 Du        
  27918 ****        14.0000  14.0000  14.2500 Du        
  27919 ****        14.0000  14.0000  14.5000 Du        
  27920 ****        14.0000  14.0000  14.7500 Du        
  27921 ****        14.0000  14.0000  15.0000 Du        
  27922 ****        14.0000  14.0000  15.2500 Du        
  27923 ****        14.0000  14.2500  12.7500 Du        
  27924 ****        14.0000  14.2500  13.0000 Du        
  27925 ****        14.0000  14.2500  13.2500 Du        
  27926 ****        14.0000  14.2500  13.5000 Du        
  27927 ****        14.0000  14.2500  13.7500 Du        
  27928 ****        14.0000  14.2500  14.0000 Du        
  27929 ****        14.0000  14.2500  14.2500 Du        
  27930 ****        14.0000  14.2500  14.5000 Du        
  27931 ****        14.0000  14.2500  14.7500 Du        
  27932 ****        14.0000  14.2500  15.0000 Du        
  27933 ****        14.0000  14.2500  15.2500 Du        
  27934 ****        14.0000  14.5000  13.2500 Du        
  27935 ****        14.0000  14.5000  13.5000 Du        
  27936 ****        14.0000  14.5000  13.7500 Du        
  27937 ****        14.0000  14.5000  14.0000 Du        
  27938 ****        14.0000  14.5000  14.2500 Du        
  27939 ****        14.0000  14.5000  14.5000 Du        
  27940 ****        14.0000  14.5000  14.7500 Du        
  27941 ****        14.0000  14.5000  15.0000 Du        
  27942 ****        14.0000  14.5000  15.2500 Du        
  27943 ****        14.0000  14.7500  13.2500 Du        
  27944 ****        14.0000  14.7500  13.5000 Du        
  27945 ****        14.0000  14.7500  13.7500 Du        
  27946 ****        14.0000  14.7500  14.0000 Du        
  27947 ****        14.0000  14.7500  14.2500 Du        
  27948 ****        14.0000  14.7500  14.5000 Du        
  27949 ****        14.0000  14.7500  14.7500 Du        
  27950 ****        14.0000  14.7500  15.0000 Du        
  27951 ****        14.0000  14.7500  15.2500 Du        
  27952 ****        14.0000  15.0000  13.2500 Du        
  27953 ****        14.0000  15.0000  13.5000 Du        
  27954 ****        14.0000  15.0000  13.7500 Du        
  27955 ****        14.0000  15.0000  14.0000 Du        
  27956 ****        14.0000  15.0000  14.2500 Du        
  27957 ****        14.0000  15.0000  14.5000 Du        
  27958 ****        14.0000  15.0000  14.7500 Du        
  27959 ****        14.0000  15.0000  15.0000 Du        
  27960 ****        14.0000  15.2500  13.5000 Du        
  27961 ****        14.0000  15.2500  13.7500 Du        
  27962 ****        14.0000  15.2500  14.0000 Du        
  27963 ****        14.0000  15.2500  14.2500 Du        
  27964 ****        14.0000  15.2500  14.5000 Du        
  27965 ****        14.0000  15.2500  14.7500 Du        
  27966 ****        14.0000  15.2500  15.0000 Du        
  27967 ****        14.0000  15.5000  13.7500 Du        
  27968 ****        14.0000  15.5000  14.0000 Du        
  27969 ****        14.0000  15.5000  14.2500 Du        
  27970 ****        14.0000  15.5000  14.5000 Du        
  27971 ****        14.0000  15.5000  14.7500 Du        
  27972 ****        14.0000  15.7500  38.0000 Du        
  27973 ****        14.0000  16.0000  37.7500 Du        
  27974 ****        14.0000  16.0000  38.0000 Du        
  27975 ****        14.0000  16.0000  38.2500 Du        
  27976 ****        14.0000  16.2500  37.7500 Du        
  27977 ****        14.0000  16.2500  38.0000 Du        
  27978 ****        14.0000  16.2500  38.2500 Du        
  27979 ****        14.0000  16.2500  38.5000 Du        
  27980 ****        14.0000  16.2500  38.7500 Du        
  27981 ****        14.0000  16.5000  38.0000 Du        
  27982 ****        14.0000  16.5000  38.7500 Du        
  27983 ****        14.0000  19.7500  35.0000 Du        
  27984 ****        14.0000  19.7500  35.2500 Du        
  27985 ****        14.0000  19.7500  35.5000 Du        
  27986 ****        14.0000  19.7500  35.7500 Du        
  27987 ****        14.0000  19.7500  36.0000 Du        
  27988 ****        14.0000  20.5000  32.0000 Du        
  27989 ****        14.0000  20.5000  32.2500 Du        
  27990 ****        14.0000  20.7500  31.5000 Du        
  27991 ****        14.0000  20.7500  31.7500 Du        
  27992 ****        14.0000  20.7500  32.0000 Du        
  27993 ****        14.2500   3.7500   7.0000 Du        
  27994 ****        14.2500   3.7500   7.2500 Du        
  27995 ****        14.2500   3.7500   7.5000 Du        
  27996 ****        14.2500   4.0000   6.7500 Du        
  27997 ****        14.2500   4.0000   7.0000 Du        
  27998 ****        14.2500   4.0000   7.2500 Du        
  27999 ****        14.2500   4.0000   7.5000 Du        
  28000 ****        14.2500   4.0000   7.7500 Du        
  28001 ****        14.2500   4.0000   8.0000 Du        
  28002 ****        14.2500   4.2500   6.7500 Du        
  28003 ****        14.2500   4.2500   7.0000 Du        
  28004 ****        14.2500   4.2500   7.2500 Du        
  28005 ****        14.2500   4.2500   7.5000 Du        
  28006 ****        14.2500   4.2500   7.7500 Du        
  28007 ****        14.2500   4.2500   8.0000 Du        
  28008 ****        14.2500   4.2500   8.2500 Du        
  28009 ****        14.2500   4.5000   6.5000 Du        
  28010 ****        14.2500   4.5000   6.7500 Du        
  28011 ****        14.2500   4.5000   7.0000 Du        
  28012 ****        14.2500   4.5000   7.2500 Du        
  28013 ****        14.2500   4.5000   7.5000 Du        
  28014 ****        14.2500   4.5000   7.7500 Du        
  28015 ****        14.2500   4.5000   8.0000 Du        
  28016 ****        14.2500   4.5000   8.2500 Du        
  28017 ****        14.2500   4.7500   6.5000 Du        
  28018 ****        14.2500   4.7500   6.7500 Du        
  28019 ****        14.2500   4.7500   7.0000 Du        
  28020 ****        14.2500   4.7500   7.2500 Du        
  28021 ****        14.2500   4.7500   7.5000 Du        
  28022 ****        14.2500   4.7500   7.7500 Du        
  28023 ****        14.2500   4.7500   8.0000 Du        
  28024 ****        14.2500   4.7500   8.2500 Du        
  28025 ****        14.2500   5.0000   6.5000 Du        
  28026 ****        14.2500   5.0000   6.7500 Du        
  28027 ****        14.2500   5.0000   7.0000 Du        
  28028 ****        14.2500   5.0000   7.2500 Du        
  28029 ****        14.2500   5.0000   7.5000 Du        
  28030 ****        14.2500   5.0000   7.7500 Du        
  28031 ****        14.2500   5.0000   8.0000 Du        
  28032 ****        14.2500   5.0000   8.2500 Du        
  28033 ****        14.2500   5.2500   6.2500 Du        
  28034 ****        14.2500   5.2500   6.5000 Du        
  28035 ****        14.2500   5.2500   6.7500 Du        
  28036 ****        14.2500   5.2500   7.0000 Du        
  28037 ****        14.2500   5.2500   7.2500 Du        
  28038 ****        14.2500   5.2500   7.5000 Du        
  28039 ****        14.2500   5.2500   7.7500 Du        
  28040 ****        14.2500   5.2500   8.0000 Du        
  28041 ****        14.2500   5.2500   8.2500 Du        
  28042 ****        14.2500   5.5000   6.2500 Du        
  28043 ****        14.2500   5.5000   6.5000 Du        
  28044 ****        14.2500   5.5000   6.7500 Du        
  28045 ****        14.2500   5.5000   7.0000 Du        
  28046 ****        14.2500   5.5000   7.2500 Du        
  28047 ****        14.2500   5.5000   7.5000 Du        
  28048 ****        14.2500   5.5000   7.7500 Du        
  28049 ****        14.2500   5.5000   8.0000 Du        
  28050 ****        14.2500   5.5000   8.2500 Du        
  28051 ****        14.2500   5.5000   8.5000 Du        
  28052 ****        14.2500   5.7500   6.0000 Du        
  28053 ****        14.2500   5.7500   6.2500 Du        
  28054 ****        14.2500   5.7500   6.5000 Du        
  28055 ****        14.2500   5.7500   6.7500 Du        
  28056 ****        14.2500   5.7500   7.0000 Du        
  28057 ****        14.2500   5.7500   7.2500 Du        
  28058 ****        14.2500   5.7500   7.5000 Du        
  28059 ****        14.2500   5.7500   7.7500 Du        
  28060 ****        14.2500   5.7500   8.0000 Du        
  28061 ****        14.2500   5.7500   8.2500 Du        
  28062 ****        14.2500   6.0000   5.7500 Du        
  28063 ****        14.2500   6.0000   6.0000 Du        
  28064 ****        14.2500   6.0000   6.2500 Du        
  28065 ****        14.2500   6.0000   6.5000 Du        
  28066 ****        14.2500   6.0000   6.7500 Du        
  28067 ****        14.2500   6.0000   7.0000 Du        
  28068 ****        14.2500   6.0000   7.2500 Du        
  28069 ****        14.2500   6.0000   7.5000 Du        
  28070 ****        14.2500   6.0000   7.7500 Du        
  28071 ****        14.2500   6.0000   8.0000 Du        
  28072 ****        14.2500   6.0000   8.2500 Du        
  28073 ****        14.2500   6.2500   5.7500 Du        
  28074 ****        14.2500   6.2500   6.0000 Du        
  28075 ****        14.2500   6.2500   6.2500 Du        
  28076 ****        14.2500   6.2500   6.5000 Du        
  28077 ****        14.2500   6.2500   6.7500 Du        
  28078 ****        14.2500   6.2500   7.0000 Du        
  28079 ****        14.2500   6.2500   7.2500 Du        
  28080 ****        14.2500   6.2500   7.5000 Du        
  28081 ****        14.2500   6.5000   5.7500 Du        
  28082 ****        14.2500   6.5000   6.0000 Du        
  28083 ****        14.2500   6.5000   6.2500 Du        
  28084 ****        14.2500   6.5000   6.5000 Du        
  28085 ****        14.2500   6.5000   6.7500 Du        
  28086 ****        14.2500   6.5000   7.0000 Du        
  28087 ****        14.2500   8.5000  26.5000 Du        
  28088 ****        14.2500   8.5000  26.7500 Du        
  28089 ****        14.2500   8.7500  26.7500 Du        
  28090 ****        14.2500   8.7500  27.0000 Du        
  28091 ****        14.2500   9.0000  20.5000 Du        
  28092 ****        14.2500   9.0000  27.2500 Du        
  28093 ****        14.2500   9.2500  20.5000 Du        
  28094 ****        14.2500   9.2500  20.7500 Du        
  28095 ****        14.2500   9.2500  21.0000 Du        
  28096 ****        14.2500   9.5000  20.2500 Du        
  28097 ****        14.2500   9.5000  20.5000 Du        
  28098 ****        14.2500   9.5000  20.7500 Du        
  28099 ****        14.2500   9.5000  21.0000 Du        
  28100 ****        14.2500   9.5000  21.2500 Du        
  28101 ****        14.2500   9.7500  20.5000 Du        
  28102 ****        14.2500   9.7500  20.7500 Du        
  28103 ****        14.2500   9.7500  21.0000 Du        
  28104 ****        14.2500  11.7500  14.7500 Du        
  28105 ****        14.2500  11.7500  15.0000 Du        
  28106 ****        14.2500  11.7500  15.2500 Du        
  28107 ****        14.2500  12.0000   9.0000 Du        
  28108 ****        14.2500  12.0000   9.2500 Du        
  28109 ****        14.2500  12.0000   9.5000 Du        
  28110 ****        14.2500  12.0000   9.7500 Du        
  28111 ****        14.2500  12.0000  10.0000 Du        
  28112 ****        14.2500  12.0000  10.2500 Du        
  28113 ****        14.2500  12.0000  10.5000 Du        
  28114 ****        14.2500  12.0000  10.7500 Du        
  28115 ****        14.2500  12.0000  11.0000 Du        
  28116 ****        14.2500  12.0000  11.2500 Du        
  28117 ****        14.2500  12.0000  11.5000 Du        
  28118 ****        14.2500  12.0000  11.7500 Du        
  28119 ****        14.2500  12.0000  12.0000 Du        
  28120 ****        14.2500  12.0000  12.2500 Du        
  28121 ****        14.2500  12.0000  12.5000 Du        
  28122 ****        14.2500  12.0000  12.7500 Du        
  28123 ****        14.2500  12.0000  13.0000 Du        
  28124 ****        14.2500  12.0000  13.2500 Du        
  28125 ****        14.2500  12.0000  13.5000 Du        
  28126 ****        14.2500  12.0000  13.7500 Du        
  28127 ****        14.2500  12.0000  14.0000 Du        
  28128 ****        14.2500  12.0000  14.2500 Du        
  28129 ****        14.2500  12.0000  14.5000 Du        
  28130 ****        14.2500  12.0000  14.7500 Du        
  28131 ****        14.2500  12.0000  15.0000 Du        
  28132 ****        14.2500  12.0000  15.2500 Du        
  28133 ****        14.2500  12.2500   9.0000 Du        
  28134 ****        14.2500  12.2500   9.2500 Du        
  28135 ****        14.2500  12.2500   9.5000 Du        
  28136 ****        14.2500  12.2500   9.7500 Du        
  28137 ****        14.2500  12.2500  10.0000 Du        
  28138 ****        14.2500  12.2500  10.2500 Du        
  28139 ****        14.2500  12.2500  10.5000 Du        
  28140 ****        14.2500  12.2500  10.7500 Du        
  28141 ****        14.2500  12.2500  11.0000 Du        
  28142 ****        14.2500  12.2500  11.2500 Du        
  28143 ****        14.2500  12.2500  11.5000 Du        
  28144 ****        14.2500  12.2500  11.7500 Du        
  28145 ****        14.2500  12.2500  12.0000 Du        
  28146 ****        14.2500  12.2500  12.2500 Du        
  28147 ****        14.2500  12.2500  12.5000 Du        
  28148 ****        14.2500  12.2500  12.7500 Du        
  28149 ****        14.2500  12.2500  13.0000 Du        
  28150 ****        14.2500  12.2500  13.2500 Du        
  28151 ****        14.2500  12.2500  13.5000 Du        
  28152 ****        14.2500  12.2500  13.7500 Du        
  28153 ****        14.2500  12.2500  14.0000 Du        
  28154 ****        14.2500  12.2500  14.2500 Du        
  28155 ****        14.2500  12.2500  14.5000 Du        
  28156 ****        14.2500  12.2500  14.7500 Du        
  28157 ****        14.2500  12.2500  15.0000 Du        
  28158 ****        14.2500  12.5000   9.2500 Du        
  28159 ****        14.2500  12.5000   9.5000 Du        
  28160 ****        14.2500  12.5000   9.7500 Du        
  28161 ****        14.2500  12.5000  10.0000 Du        
  28162 ****        14.2500  12.5000  10.2500 Du        
  28163 ****        14.2500  12.5000  10.5000 Du        
  28164 ****        14.2500  12.5000  10.7500 Du        
  28165 ****        14.2500  12.5000  11.0000 Du        
  28166 ****        14.2500  12.5000  11.2500 Du        
  28167 ****        14.2500  12.5000  11.5000 Du        
  28168 ****        14.2500  12.5000  11.7500 Du        
  28169 ****        14.2500  12.5000  12.0000 Du        
  28170 ****        14.2500  12.5000  12.2500 Du        
  28171 ****        14.2500  12.5000  12.5000 Du        
  28172 ****        14.2500  12.5000  12.7500 Du        
  28173 ****        14.2500  12.5000  13.0000 Du        
  28174 ****        14.2500  12.5000  13.2500 Du        
  28175 ****        14.2500  12.5000  13.5000 Du        
  28176 ****        14.2500  12.5000  13.7500 Du        
  28177 ****        14.2500  12.5000  14.0000 Du        
  28178 ****        14.2500  12.5000  14.2500 Du        
  28179 ****        14.2500  12.5000  14.5000 Du        
  28180 ****        14.2500  12.5000  14.7500 Du        
  28181 ****        14.2500  12.5000  15.0000 Du        
  28182 ****        14.2500  12.5000  15.2500 Du        
  28183 ****        14.2500  12.7500   9.2500 Du        
  28184 ****        14.2500  12.7500   9.5000 Du        
  28185 ****        14.2500  12.7500   9.7500 Du        
  28186 ****        14.2500  12.7500  10.0000 Du        
  28187 ****        14.2500  12.7500  10.2500 Du        
  28188 ****        14.2500  12.7500  10.5000 Du        
  28189 ****        14.2500  12.7500  10.7500 Du        
  28190 ****        14.2500  12.7500  11.0000 Du        
  28191 ****        14.2500  12.7500  11.2500 Du        
  28192 ****        14.2500  12.7500  11.5000 Du        
  28193 ****        14.2500  12.7500  11.7500 Du        
  28194 ****        14.2500  12.7500  12.0000 Du        
  28195 ****        14.2500  12.7500  12.2500 Du        
  28196 ****        14.2500  12.7500  12.5000 Du        
  28197 ****        14.2500  12.7500  12.7500 Du        
  28198 ****        14.2500  12.7500  13.0000 Du        
  28199 ****        14.2500  12.7500  13.2500 Du        
  28200 ****        14.2500  12.7500  13.5000 Du        
  28201 ****        14.2500  12.7500  13.7500 Du        
  28202 ****        14.2500  12.7500  14.0000 Du        
  28203 ****        14.2500  12.7500  14.2500 Du        
  28204 ****        14.2500  12.7500  14.5000 Du        
  28205 ****        14.2500  12.7500  14.7500 Du        
  28206 ****        14.2500  12.7500  15.0000 Du        
  28207 ****        14.2500  12.7500  15.2500 Du        
  28208 ****        14.2500  13.0000   9.5000 Du        
  28209 ****        14.2500  13.0000   9.7500 Du        
  28210 ****        14.2500  13.0000  10.0000 Du        
  28211 ****        14.2500  13.0000  10.2500 Du        
  28212 ****        14.2500  13.0000  10.5000 Du        
  28213 ****        14.2500  13.0000  10.7500 Du        
  28214 ****        14.2500  13.0000  11.0000 Du        
  28215 ****        14.2500  13.0000  11.2500 Du        
  28216 ****        14.2500  13.0000  11.5000 Du        
  28217 ****        14.2500  13.0000  11.7500 Du        
  28218 ****        14.2500  13.0000  12.0000 Du        
  28219 ****        14.2500  13.0000  12.2500 Du        
  28220 ****        14.2500  13.0000  12.5000 Du        
  28221 ****        14.2500  13.0000  12.7500 Du        
  28222 ****        14.2500  13.0000  13.0000 Du        
  28223 ****        14.2500  13.0000  13.2500 Du        
  28224 ****        14.2500  13.0000  13.5000 Du        
  28225 ****        14.2500  13.0000  13.7500 Du        
  28226 ****        14.2500  13.0000  14.0000 Du        
  28227 ****        14.2500  13.0000  14.2500 Du        
  28228 ****        14.2500  13.0000  14.5000 Du        
  28229 ****        14.2500  13.0000  14.7500 Du        
  28230 ****        14.2500  13.0000  15.0000 Du        
  28231 ****        14.2500  13.0000  15.2500 Du        
  28232 ****        14.2500  13.2500   9.7500 Du        
  28233 ****        14.2500  13.2500  10.0000 Du        
  28234 ****        14.2500  13.2500  10.2500 Du        
  28235 ****        14.2500  13.2500  10.5000 Du        
  28236 ****        14.2500  13.2500  10.7500 Du        
  28237 ****        14.2500  13.2500  11.0000 Du        
  28238 ****        14.2500  13.2500  11.2500 Du        
  28239 ****        14.2500  13.2500  11.5000 Du        
  28240 ****        14.2500  13.2500  11.7500 Du        
  28241 ****        14.2500  13.2500  12.0000 Du        
  28242 ****        14.2500  13.2500  12.2500 Du        
  28243 ****        14.2500  13.2500  12.5000 Du        
  28244 ****        14.2500  13.2500  12.7500 Du        
  28245 ****        14.2500  13.2500  13.0000 Du        
  28246 ****        14.2500  13.2500  13.2500 Du        
  28247 ****        14.2500  13.2500  13.5000 Du        
  28248 ****        14.2500  13.2500  13.7500 Du        
  28249 ****        14.2500  13.2500  14.0000 Du        
  28250 ****        14.2500  13.2500  14.2500 Du        
  28251 ****        14.2500  13.2500  14.5000 Du        
  28252 ****        14.2500  13.2500  14.7500 Du        
  28253 ****        14.2500  13.2500  15.0000 Du        
  28254 ****        14.2500  13.2500  15.2500 Du        
  28255 ****        14.2500  13.5000  10.0000 Du        
  28256 ****        14.2500  13.5000  10.2500 Du        
  28257 ****        14.2500  13.5000  10.5000 Du        
  28258 ****        14.2500  13.5000  10.7500 Du        
  28259 ****        14.2500  13.5000  11.0000 Du        
  28260 ****        14.2500  13.5000  11.2500 Du        
  28261 ****        14.2500  13.5000  11.5000 Du        
  28262 ****        14.2500  13.5000  11.7500 Du        
  28263 ****        14.2500  13.5000  12.0000 Du        
  28264 ****        14.2500  13.5000  12.2500 Du        
  28265 ****        14.2500  13.5000  12.5000 Du        
  28266 ****        14.2500  13.5000  12.7500 Du        
  28267 ****        14.2500  13.5000  13.0000 Du        
  28268 ****        14.2500  13.5000  13.2500 Du        
  28269 ****        14.2500  13.5000  13.5000 Du        
  28270 ****        14.2500  13.5000  13.7500 Du        
  28271 ****        14.2500  13.5000  14.0000 Du        
  28272 ****        14.2500  13.5000  14.2500 Du        
  28273 ****        14.2500  13.5000  14.5000 Du        
  28274 ****        14.2500  13.5000  14.7500 Du        
  28275 ****        14.2500  13.5000  15.0000 Du        
  28276 ****        14.2500  13.5000  15.2500 Du        
  28277 ****        14.2500  13.7500  10.5000 Du        
  28278 ****        14.2500  13.7500  10.7500 Du        
  28279 ****        14.2500  13.7500  11.0000 Du        
  28280 ****        14.2500  13.7500  11.2500 Du        
  28281 ****        14.2500  13.7500  11.7500 Du        
  28282 ****        14.2500  13.7500  12.0000 Du        
  28283 ****        14.2500  13.7500  12.2500 Du        
  28284 ****        14.2500  13.7500  12.5000 Du        
  28285 ****        14.2500  13.7500  12.7500 Du        
  28286 ****        14.2500  13.7500  13.0000 Du        
  28287 ****        14.2500  13.7500  13.2500 Du        
  28288 ****        14.2500  13.7500  13.5000 Du        
  28289 ****        14.2500  13.7500  13.7500 Du        
  28290 ****        14.2500  13.7500  14.0000 Du        
  28291 ****        14.2500  13.7500  14.2500 Du        
  28292 ****        14.2500  13.7500  14.5000 Du        
  28293 ****        14.2500  13.7500  14.7500 Du        
  28294 ****        14.2500  13.7500  15.0000 Du        
  28295 ****        14.2500  13.7500  15.2500 Du        
  28296 ****        14.2500  14.0000  12.2500 Du        
  28297 ****        14.2500  14.0000  12.5000 Du        
  28298 ****        14.2500  14.0000  12.7500 Du        
  28299 ****        14.2500  14.0000  13.0000 Du        
  28300 ****        14.2500  14.0000  13.2500 Du        
  28301 ****        14.2500  14.0000  13.5000 Du        
  28302 ****        14.2500  14.0000  13.7500 Du        
  28303 ****        14.2500  14.0000  14.0000 Du        
  28304 ****        14.2500  14.0000  14.2500 Du        
  28305 ****        14.2500  14.0000  14.5000 Du        
  28306 ****        14.2500  14.0000  14.7500 Du        
  28307 ****        14.2500  14.0000  15.0000 Du        
  28308 ****        14.2500  14.0000  15.2500 Du        
  28309 ****        14.2500  14.2500  12.5000 Du        
  28310 ****        14.2500  14.2500  12.7500 Du        
  28311 ****        14.2500  14.2500  13.0000 Du        
  28312 ****        14.2500  14.2500  13.2500 Du        
  28313 ****        14.2500  14.2500  13.5000 Du        
  28314 ****        14.2500  14.2500  13.7500 Du        
  28315 ****        14.2500  14.2500  14.0000 Du        
  28316 ****        14.2500  14.2500  14.2500 Du        
  28317 ****        14.2500  14.2500  14.5000 Du        
  28318 ****        14.2500  14.2500  14.7500 Du        
  28319 ****        14.2500  14.2500  15.0000 Du        
  28320 ****        14.2500  14.2500  15.2500 Du        
  28321 ****        14.2500  14.5000  13.0000 Du        
  28322 ****        14.2500  14.5000  13.2500 Du        
  28323 ****        14.2500  14.5000  13.5000 Du        
  28324 ****        14.2500  14.5000  13.7500 Du        
  28325 ****        14.2500  14.5000  14.0000 Du        
  28326 ****        14.2500  14.5000  14.2500 Du        
  28327 ****        14.2500  14.5000  14.5000 Du        
  28328 ****        14.2500  14.5000  14.7500 Du        
  28329 ****        14.2500  14.5000  15.0000 Du        
  28330 ****        14.2500  14.5000  15.2500 Du        
  28331 ****        14.2500  14.7500  13.0000 Du        
  28332 ****        14.2500  14.7500  13.2500 Du        
  28333 ****        14.2500  14.7500  13.5000 Du        
  28334 ****        14.2500  14.7500  13.7500 Du        
  28335 ****        14.2500  14.7500  14.0000 Du        
  28336 ****        14.2500  14.7500  14.2500 Du        
  28337 ****        14.2500  14.7500  14.5000 Du        
  28338 ****        14.2500  14.7500  14.7500 Du        
  28339 ****        14.2500  14.7500  15.0000 Du        
  28340 ****        14.2500  14.7500  15.2500 Du        
  28341 ****        14.2500  15.0000  13.0000 Du        
  28342 ****        14.2500  15.0000  13.2500 Du        
  28343 ****        14.2500  15.0000  13.5000 Du        
  28344 ****        14.2500  15.0000  13.7500 Du        
  28345 ****        14.2500  15.0000  14.0000 Du        
  28346 ****        14.2500  15.0000  14.2500 Du        
  28347 ****        14.2500  15.0000  14.5000 Du        
  28348 ****        14.2500  15.0000  14.7500 Du        
  28349 ****        14.2500  15.0000  15.0000 Du        
  28350 ****        14.2500  15.0000  15.2500 Du        
  28351 ****        14.2500  15.2500  13.2500 Du        
  28352 ****        14.2500  15.2500  13.5000 Du        
  28353 ****        14.2500  15.2500  13.7500 Du        
  28354 ****        14.2500  15.2500  14.0000 Du        
  28355 ****        14.2500  15.2500  14.2500 Du        
  28356 ****        14.2500  15.2500  14.5000 Du        
  28357 ****        14.2500  15.2500  14.7500 Du        
  28358 ****        14.2500  15.2500  15.0000 Du        
  28359 ****        14.2500  15.2500  15.2500 Du        
  28360 ****        14.2500  15.5000  13.5000 Du        
  28361 ****        14.2500  15.5000  13.7500 Du        
  28362 ****        14.2500  15.5000  14.0000 Du        
  28363 ****        14.2500  15.5000  14.2500 Du        
  28364 ****        14.2500  15.5000  14.5000 Du        
  28365 ****        14.2500  15.5000  14.7500 Du        
  28366 ****        14.2500  15.5000  15.0000 Du        
  28367 ****        14.2500  15.7500  13.7500 Du        
  28368 ****        14.2500  15.7500  14.0000 Du        
  28369 ****        14.2500  15.7500  14.2500 Du        
  28370 ****        14.2500  15.7500  14.5000 Du        
  28371 ****        14.2500  15.7500  14.7500 Du        
  28372 ****        14.2500  15.7500  37.7500 Du        
  28373 ****        14.2500  15.7500  38.0000 Du        
  28374 ****        14.2500  15.7500  38.2500 Du        
  28375 ****        14.2500  16.0000  37.7500 Du        
  28376 ****        14.2500  16.0000  38.0000 Du        
  28377 ****        14.2500  16.0000  38.2500 Du        
  28378 ****        14.2500  16.2500  37.7500 Du        
  28379 ****        14.2500  16.2500  38.0000 Du        
  28380 ****        14.2500  16.2500  38.2500 Du        
  28381 ****        14.2500  16.2500  38.5000 Du        
  28382 ****        14.2500  16.2500  38.7500 Du        
  28383 ****        14.2500  19.7500  34.7500 Du        
  28384 ****        14.2500  19.7500  35.0000 Du        
  28385 ****        14.2500  19.7500  35.2500 Du        
  28386 ****        14.2500  19.7500  35.7500 Du        
  28387 ****        14.2500  20.0000  32.2500 Du        
  28388 ****        14.2500  20.0000  32.5000 Du        
  28389 ****        14.2500  20.0000  32.7500 Du        
  28390 ****        14.2500  20.0000  33.0000 Du        
  28391 ****        14.2500  20.0000  33.2500 Du        
  28392 ****        14.2500  20.0000  35.2500 Du        
  28393 ****        14.2500  20.2500  31.7500 Du        
  28394 ****        14.2500  20.2500  32.0000 Du        
  28395 ****        14.2500  20.2500  32.2500 Du        
  28396 ****        14.2500  20.2500  32.5000 Du        
  28397 ****        14.2500  20.2500  32.7500 Du        
  28398 ****        14.2500  20.2500  33.0000 Du        
  28399 ****        14.2500  20.5000  31.5000 Du        
  28400 ****        14.2500  20.5000  31.7500 Du        
  28401 ****        14.2500  20.5000  32.0000 Du        
  28402 ****        14.2500  20.5000  32.2500 Du        
  28403 ****        14.2500  20.5000  32.5000 Du        
  28404 ****        14.2500  20.7500  31.2500 Du        
  28405 ****        14.2500  20.7500  31.5000 Du        
  28406 ****        14.2500  20.7500  31.7500 Du        
  28407 ****        14.2500  20.7500  32.0000 Du        
  28408 ****        14.2500  20.7500  32.2500 Du        
  28409 ****        14.5000   3.7500   6.7500 Du        
  28410 ****        14.5000   3.7500   7.0000 Du        
  28411 ****        14.5000   4.0000   6.5000 Du        
  28412 ****        14.5000   4.0000   6.7500 Du        
  28413 ****        14.5000   4.0000   7.0000 Du        
  28414 ****        14.5000   4.0000   7.2500 Du        
  28415 ****        14.5000   4.2500   6.5000 Du        
  28416 ****        14.5000   4.2500   6.7500 Du        
  28417 ****        14.5000   4.2500   7.0000 Du        
  28418 ****        14.5000   4.2500   7.2500 Du        
  28419 ****        14.5000   4.2500  19.5000 Du        
  28420 ****        14.5000   4.5000   6.2500 Du        
  28421 ****        14.5000   4.5000   6.5000 Du        
  28422 ****        14.5000   4.5000   6.7500 Du        
  28423 ****        14.5000   4.5000   7.0000 Du        
  28424 ****        14.5000   4.5000   7.2500 Du        
  28425 ****        14.5000   4.5000   7.5000 Du        
  28426 ****        14.5000   4.5000  19.5000 Du        
  28427 ****        14.5000   4.5000  19.7500 Du        
  28428 ****        14.5000   4.7500   6.2500 Du        
  28429 ****        14.5000   4.7500   6.5000 Du        
  28430 ****        14.5000   4.7500   6.7500 Du        
  28431 ****        14.5000   4.7500   7.0000 Du        
  28432 ****        14.5000   4.7500   7.2500 Du        
  28433 ****        14.5000   4.7500   7.5000 Du        
  28434 ****        14.5000   4.7500  19.5000 Du        
  28435 ****        14.5000   4.7500  19.7500 Du        
  28436 ****        14.5000   5.0000   6.2500 Du        
  28437 ****        14.5000   5.0000   6.5000 Du        
  28438 ****        14.5000   5.0000   6.7500 Du        
  28439 ****        14.5000   5.0000   7.0000 Du        
  28440 ****        14.5000   5.0000   7.2500 Du        
  28441 ****        14.5000   5.0000   7.5000 Du        
  28442 ****        14.5000   5.0000  19.5000 Du        
  28443 ****        14.5000   5.0000  19.7500 Du        
  28444 ****        14.5000   5.2500   6.0000 Du        
  28445 ****        14.5000   5.2500   6.2500 Du        
  28446 ****        14.5000   5.2500   6.5000 Du        
  28447 ****        14.5000   5.2500   6.7500 Du        
  28448 ****        14.5000   5.2500   7.0000 Du        
  28449 ****        14.5000   5.2500   7.2500 Du        
  28450 ****        14.5000   5.2500   7.5000 Du        
  28451 ****        14.5000   5.2500  19.7500 Du        
  28452 ****        14.5000   5.5000   6.0000 Du        
  28453 ****        14.5000   5.5000   6.2500 Du        
  28454 ****        14.5000   5.5000   6.5000 Du        
  28455 ****        14.5000   5.5000   6.7500 Du        
  28456 ****        14.5000   5.5000   7.0000 Du        
  28457 ****        14.5000   5.5000   7.2500 Du        
  28458 ****        14.5000   5.5000   7.5000 Du        
  28459 ****        14.5000   5.5000   7.7500 Du        
  28460 ****        14.5000   5.7500   5.7500 Du        
  28461 ****        14.5000   5.7500   6.0000 Du        
  28462 ****        14.5000   5.7500   6.2500 Du        
  28463 ****        14.5000   5.7500   6.5000 Du        
  28464 ****        14.5000   5.7500   6.7500 Du        
  28465 ****        14.5000   5.7500   7.0000 Du        
  28466 ****        14.5000   5.7500   7.2500 Du        
  28467 ****        14.5000   5.7500   7.5000 Du        
  28468 ****        14.5000   5.7500   7.7500 Du        
  28469 ****        14.5000   6.0000   5.7500 Du        
  28470 ****        14.5000   6.0000   6.0000 Du        
  28471 ****        14.5000   6.0000   6.2500 Du        
  28472 ****        14.5000   6.0000   6.5000 Du        
  28473 ****        14.5000   6.0000   6.7500 Du        
  28474 ****        14.5000   6.0000   7.0000 Du        
  28475 ****        14.5000   6.0000   7.2500 Du        
  28476 ****        14.5000   6.0000   7.5000 Du        
  28477 ****        14.5000   6.0000   7.7500 Du        
  28478 ****        14.5000   6.2500   5.5000 Du        
  28479 ****        14.5000   6.2500   5.7500 Du        
  28480 ****        14.5000   6.2500   6.0000 Du        
  28481 ****        14.5000   6.2500   6.2500 Du        
  28482 ****        14.5000   6.2500   6.5000 Du        
  28483 ****        14.5000   6.2500   6.7500 Du        
  28484 ****        14.5000   6.2500   7.0000 Du        
  28485 ****        14.5000   6.2500   7.2500 Du        
  28486 ****        14.5000   6.5000   5.5000 Du        
  28487 ****        14.5000   6.5000   5.7500 Du        
  28488 ****        14.5000   6.5000   6.0000 Du        
  28489 ****        14.5000   6.5000   6.2500 Du        
  28490 ****        14.5000   6.5000   6.5000 Du        
  28491 ****        14.5000   6.5000   6.7500 Du        
  28492 ****        14.5000   8.7500  27.0000 Du        
  28493 ****        14.5000   9.2500  20.5000 Du        
  28494 ****        14.5000   9.2500  36.5000 Du        
  28495 ****        14.5000   9.2500  36.7500 Du        
  28496 ****        14.5000   9.5000  20.5000 Du        
  28497 ****        14.5000   9.5000  20.7500 Du        
  28498 ****        14.5000   9.5000  21.0000 Du        
  28499 ****        14.5000   9.5000  36.2500 Du        
  28500 ****        14.5000   9.5000  36.5000 Du        
  28501 ****        14.5000   9.5000  36.7500 Du        
  28502 ****        14.5000   9.5000  37.0000 Du        
  28503 ****        14.5000   9.7500  20.5000 Du        
  28504 ****        14.5000   9.7500  20.7500 Du        
  28505 ****        14.5000   9.7500  21.0000 Du        
  28506 ****        14.5000   9.7500  21.2500 Du        
  28507 ****        14.5000   9.7500  36.0000 Du        
  28508 ****        14.5000   9.7500  36.2500 Du        
  28509 ****        14.5000   9.7500  36.5000 Du        
  28510 ****        14.5000   9.7500  36.7500 Du        
  28511 ****        14.5000  10.0000  21.0000 Du        
  28512 ****        14.5000  10.0000  36.0000 Du        
  28513 ****        14.5000  10.0000  36.2500 Du        
  28514 ****        14.5000  10.2500  36.0000 Du        
  28515 ****        14.5000  11.7500   9.5000 Du        
  28516 ****        14.5000  11.7500   9.7500 Du        
  28517 ****        14.5000  11.7500  10.0000 Du        
  28518 ****        14.5000  11.7500  10.2500 Du        
  28519 ****        14.5000  11.7500  11.0000 Du        
  28520 ****        14.5000  11.7500  11.2500 Du        
  28521 ****        14.5000  12.0000   9.2500 Du        
  28522 ****        14.5000  12.0000   9.5000 Du        
  28523 ****        14.5000  12.0000   9.7500 Du        
  28524 ****        14.5000  12.0000  10.0000 Du        
  28525 ****        14.5000  12.0000  10.2500 Du        
  28526 ****        14.5000  12.0000  10.5000 Du        
  28527 ****        14.5000  12.0000  10.7500 Du        
  28528 ****        14.5000  12.0000  11.0000 Du        
  28529 ****        14.5000  12.0000  11.2500 Du        
  28530 ****        14.5000  12.0000  11.5000 Du        
  28531 ****        14.5000  12.0000  11.7500 Du        
  28532 ****        14.5000  12.0000  12.0000 Du        
  28533 ****        14.5000  12.0000  12.2500 Du        
  28534 ****        14.5000  12.0000  12.5000 Du        
  28535 ****        14.5000  12.0000  12.7500 Du        
  28536 ****        14.5000  12.0000  13.0000 Du        
  28537 ****        14.5000  12.0000  13.2500 Du        
  28538 ****        14.5000  12.0000  13.5000 Du        
  28539 ****        14.5000  12.0000  14.0000 Du        
  28540 ****        14.5000  12.0000  14.5000 Du        
  28541 ****        14.5000  12.0000  14.7500 Du        
  28542 ****        14.5000  12.0000  15.0000 Du        
  28543 ****        14.5000  12.2500   9.0000 Du        
  28544 ****        14.5000  12.2500   9.2500 Du        
  28545 ****        14.5000  12.2500   9.5000 Du        
  28546 ****        14.5000  12.2500   9.7500 Du        
  28547 ****        14.5000  12.2500  10.0000 Du        
  28548 ****        14.5000  12.2500  10.2500 Du        
  28549 ****        14.5000  12.2500  10.5000 Du        
  28550 ****        14.5000  12.2500  10.7500 Du        
  28551 ****        14.5000  12.2500  11.0000 Du        
  28552 ****        14.5000  12.2500  11.2500 Du        
  28553 ****        14.5000  12.2500  11.5000 Du        
  28554 ****        14.5000  12.2500  11.7500 Du        
  28555 ****        14.5000  12.2500  12.0000 Du        
  28556 ****        14.5000  12.2500  12.2500 Du        
  28557 ****        14.5000  12.2500  12.5000 Du        
  28558 ****        14.5000  12.2500  12.7500 Du        
  28559 ****        14.5000  12.2500  13.0000 Du        
  28560 ****        14.5000  12.2500  13.2500 Du        
  28561 ****        14.5000  12.2500  13.5000 Du        
  28562 ****        14.5000  12.2500  13.7500 Du        
  28563 ****        14.5000  12.2500  14.0000 Du        
  28564 ****        14.5000  12.2500  14.2500 Du        
  28565 ****        14.5000  12.2500  14.5000 Du        
  28566 ****        14.5000  12.2500  14.7500 Du        
  28567 ****        14.5000  12.2500  15.0000 Du        
  28568 ****        14.5000  12.5000   9.2500 Du        
  28569 ****        14.5000  12.5000   9.5000 Du        
  28570 ****        14.5000  12.5000   9.7500 Du        
  28571 ****        14.5000  12.5000  10.0000 Du        
  28572 ****        14.5000  12.5000  10.2500 Du        
  28573 ****        14.5000  12.5000  10.5000 Du        
  28574 ****        14.5000  12.5000  10.7500 Du        
  28575 ****        14.5000  12.5000  11.0000 Du        
  28576 ****        14.5000  12.5000  11.2500 Du        
  28577 ****        14.5000  12.5000  11.5000 Du        
  28578 ****        14.5000  12.5000  11.7500 Du        
  28579 ****        14.5000  12.5000  12.0000 Du        
  28580 ****        14.5000  12.5000  12.2500 Du        
  28581 ****        14.5000  12.5000  12.5000 Du        
  28582 ****        14.5000  12.5000  12.7500 Du        
  28583 ****        14.5000  12.5000  13.0000 Du        
  28584 ****        14.5000  12.5000  13.2500 Du        
  28585 ****        14.5000  12.5000  13.5000 Du        
  28586 ****        14.5000  12.5000  13.7500 Du        
  28587 ****        14.5000  12.5000  14.0000 Du        
  28588 ****        14.5000  12.5000  14.2500 Du        
  28589 ****        14.5000  12.5000  14.5000 Du        
  28590 ****        14.5000  12.5000  14.7500 Du        
  28591 ****        14.5000  12.7500   9.5000 Du        
  28592 ****        14.5000  12.7500   9.7500 Du        
  28593 ****        14.5000  12.7500  10.0000 Du        
  28594 ****        14.5000  12.7500  10.2500 Du        
  28595 ****        14.5000  12.7500  10.5000 Du        
  28596 ****        14.5000  12.7500  10.7500 Du        
  28597 ****        14.5000  12.7500  11.0000 Du        
  28598 ****        14.5000  12.7500  11.2500 Du        
  28599 ****        14.5000  12.7500  11.5000 Du        
  28600 ****        14.5000  12.7500  11.7500 Du        
  28601 ****        14.5000  12.7500  12.0000 Du        
  28602 ****        14.5000  12.7500  12.2500 Du        
  28603 ****        14.5000  12.7500  12.5000 Du        
  28604 ****        14.5000  12.7500  12.7500 Du        
  28605 ****        14.5000  12.7500  13.0000 Du        
  28606 ****        14.5000  12.7500  13.2500 Du        
  28607 ****        14.5000  12.7500  13.5000 Du        
  28608 ****        14.5000  12.7500  13.7500 Du        
  28609 ****        14.5000  12.7500  14.0000 Du        
  28610 ****        14.5000  12.7500  14.2500 Du        
  28611 ****        14.5000  12.7500  14.5000 Du        
  28612 ****        14.5000  12.7500  14.7500 Du        
  28613 ****        14.5000  12.7500  15.0000 Du        
  28614 ****        14.5000  13.0000   9.5000 Du        
  28615 ****        14.5000  13.0000   9.7500 Du        
  28616 ****        14.5000  13.0000  10.0000 Du        
  28617 ****        14.5000  13.0000  10.2500 Du        
  28618 ****        14.5000  13.0000  10.5000 Du        
  28619 ****        14.5000  13.0000  10.7500 Du        
  28620 ****        14.5000  13.0000  11.0000 Du        
  28621 ****        14.5000  13.0000  11.2500 Du        
  28622 ****        14.5000  13.0000  11.5000 Du        
  28623 ****        14.5000  13.0000  11.7500 Du        
  28624 ****        14.5000  13.0000  12.0000 Du        
  28625 ****        14.5000  13.0000  12.2500 Du        
  28626 ****        14.5000  13.0000  12.5000 Du        
  28627 ****        14.5000  13.0000  12.7500 Du        
  28628 ****        14.5000  13.0000  13.0000 Du        
  28629 ****        14.5000  13.0000  13.2500 Du        
  28630 ****        14.5000  13.0000  13.5000 Du        
  28631 ****        14.5000  13.0000  13.7500 Du        
  28632 ****        14.5000  13.0000  14.0000 Du        
  28633 ****        14.5000  13.0000  14.2500 Du        
  28634 ****        14.5000  13.0000  14.5000 Du        
  28635 ****        14.5000  13.0000  14.7500 Du        
  28636 ****        14.5000  13.0000  15.0000 Du        
  28637 ****        14.5000  13.2500   9.7500 Du        
  28638 ****        14.5000  13.2500  10.0000 Du        
  28639 ****        14.5000  13.2500  10.2500 Du        
  28640 ****        14.5000  13.2500  10.5000 Du        
  28641 ****        14.5000  13.2500  10.7500 Du        
  28642 ****        14.5000  13.2500  11.0000 Du        
  28643 ****        14.5000  13.2500  11.2500 Du        
  28644 ****        14.5000  13.2500  11.5000 Du        
  28645 ****        14.5000  13.2500  11.7500 Du        
  28646 ****        14.5000  13.2500  12.0000 Du        
  28647 ****        14.5000  13.2500  12.2500 Du        
  28648 ****        14.5000  13.2500  12.5000 Du        
  28649 ****        14.5000  13.2500  12.7500 Du        
  28650 ****        14.5000  13.2500  13.0000 Du        
  28651 ****        14.5000  13.2500  13.2500 Du        
  28652 ****        14.5000  13.2500  13.5000 Du        
  28653 ****        14.5000  13.2500  13.7500 Du        
  28654 ****        14.5000  13.2500  14.0000 Du        
  28655 ****        14.5000  13.2500  14.2500 Du        
  28656 ****        14.5000  13.2500  14.5000 Du        
  28657 ****        14.5000  13.2500  14.7500 Du        
  28658 ****        14.5000  13.2500  15.0000 Du        
  28659 ****        14.5000  13.5000  10.0000 Du        
  28660 ****        14.5000  13.5000  10.2500 Du        
  28661 ****        14.5000  13.5000  10.5000 Du        
  28662 ****        14.5000  13.5000  10.7500 Du        
  28663 ****        14.5000  13.5000  11.0000 Du        
  28664 ****        14.5000  13.5000  11.2500 Du        
  28665 ****        14.5000  13.5000  11.5000 Du        
  28666 ****        14.5000  13.5000  11.7500 Du        
  28667 ****        14.5000  13.5000  12.0000 Du        
  28668 ****        14.5000  13.5000  12.2500 Du        
  28669 ****        14.5000  13.5000  12.5000 Du        
  28670 ****        14.5000  13.5000  12.7500 Du        
  28671 ****        14.5000  13.5000  13.0000 Du        
  28672 ****        14.5000  13.5000  13.2500 Du        
  28673 ****        14.5000  13.5000  13.5000 Du        
  28674 ****        14.5000  13.5000  13.7500 Du        
  28675 ****        14.5000  13.5000  14.0000 Du        
  28676 ****        14.5000  13.5000  14.2500 Du        
  28677 ****        14.5000  13.5000  14.5000 Du        
  28678 ****        14.5000  13.5000  14.7500 Du        
  28679 ****        14.5000  13.5000  15.0000 Du        
  28680 ****        14.5000  13.5000  15.2500 Du        
  28681 ****        14.5000  13.7500  10.2500 Du        
  28682 ****        14.5000  13.7500  10.5000 Du        
  28683 ****        14.5000  13.7500  10.7500 Du        
  28684 ****        14.5000  13.7500  11.0000 Du        
  28685 ****        14.5000  13.7500  11.2500 Du        
  28686 ****        14.5000  13.7500  11.5000 Du        
  28687 ****        14.5000  13.7500  11.7500 Du        
  28688 ****        14.5000  13.7500  12.0000 Du        
  28689 ****        14.5000  13.7500  12.2500 Du        
  28690 ****        14.5000  13.7500  12.5000 Du        
  28691 ****        14.5000  13.7500  12.7500 Du        
  28692 ****        14.5000  13.7500  13.0000 Du        
  28693 ****        14.5000  13.7500  13.2500 Du        
  28694 ****        14.5000  13.7500  13.5000 Du        
  28695 ****        14.5000  13.7500  13.7500 Du        
  28696 ****        14.5000  13.7500  14.0000 Du        
  28697 ****        14.5000  13.7500  14.2500 Du        
  28698 ****        14.5000  13.7500  14.5000 Du        
  28699 ****        14.5000  13.7500  14.7500 Du        
  28700 ****        14.5000  13.7500  15.0000 Du        
  28701 ****        14.5000  13.7500  15.2500 Du        
  28702 ****        14.5000  14.0000  10.5000 Du        
  28703 ****        14.5000  14.0000  10.7500 Du        
  28704 ****        14.5000  14.0000  11.0000 Du        
  28705 ****        14.5000  14.0000  11.2500 Du        
  28706 ****        14.5000  14.0000  11.5000 Du        
  28707 ****        14.5000  14.0000  11.7500 Du        
  28708 ****        14.5000  14.0000  12.0000 Du        
  28709 ****        14.5000  14.0000  12.2500 Du        
  28710 ****        14.5000  14.0000  12.5000 Du        
  28711 ****        14.5000  14.0000  12.7500 Du        
  28712 ****        14.5000  14.0000  13.0000 Du        
  28713 ****        14.5000  14.0000  13.2500 Du        
  28714 ****        14.5000  14.0000  13.5000 Du        
  28715 ****        14.5000  14.0000  13.7500 Du        
  28716 ****        14.5000  14.0000  14.0000 Du        
  28717 ****        14.5000  14.0000  14.2500 Du        
  28718 ****        14.5000  14.0000  14.5000 Du        
  28719 ****        14.5000  14.0000  14.7500 Du        
  28720 ****        14.5000  14.0000  15.0000 Du        
  28721 ****        14.5000  14.0000  15.2500 Du        
  28722 ****        14.5000  14.2500  11.5000 Du        
  28723 ****        14.5000  14.2500  11.7500 Du        
  28724 ****        14.5000  14.2500  12.0000 Du        
  28725 ****        14.5000  14.2500  12.2500 Du        
  28726 ****        14.5000  14.2500  12.5000 Du        
  28727 ****        14.5000  14.2500  12.7500 Du        
  28728 ****        14.5000  14.2500  13.0000 Du        
  28729 ****        14.5000  14.2500  13.2500 Du        
  28730 ****        14.5000  14.2500  13.5000 Du        
  28731 ****        14.5000  14.2500  13.7500 Du        
  28732 ****        14.5000  14.2500  14.0000 Du        
  28733 ****        14.5000  14.2500  14.2500 Du        
  28734 ****        14.5000  14.2500  14.5000 Du        
  28735 ****        14.5000  14.2500  14.7500 Du        
  28736 ****        14.5000  14.2500  15.0000 Du        
  28737 ****        14.5000  14.2500  15.2500 Du        
  28738 ****        14.5000  14.2500  15.5000 Du        
  28739 ****        14.5000  14.5000  12.7500 Du        
  28740 ****        14.5000  14.5000  13.0000 Du        
  28741 ****        14.5000  14.5000  13.2500 Du        
  28742 ****        14.5000  14.5000  13.5000 Du        
  28743 ****        14.5000  14.5000  13.7500 Du        
  28744 ****        14.5000  14.5000  14.0000 Du        
  28745 ****        14.5000  14.5000  14.2500 Du        
  28746 ****        14.5000  14.5000  14.5000 Du        
  28747 ****        14.5000  14.5000  14.7500 Du        
  28748 ****        14.5000  14.5000  15.0000 Du        
  28749 ****        14.5000  14.5000  15.2500 Du        
  28750 ****        14.5000  14.5000  15.5000 Du        
  28751 ****        14.5000  14.7500  12.7500 Du        
  28752 ****        14.5000  14.7500  13.0000 Du        
  28753 ****        14.5000  14.7500  13.2500 Du        
  28754 ****        14.5000  14.7500  13.5000 Du        
  28755 ****        14.5000  14.7500  13.7500 Du        
  28756 ****        14.5000  14.7500  14.0000 Du        
  28757 ****        14.5000  14.7500  14.2500 Du        
  28758 ****        14.5000  14.7500  14.5000 Du        
  28759 ****        14.5000  14.7500  14.7500 Du        
  28760 ****        14.5000  14.7500  15.0000 Du        
  28761 ****        14.5000  14.7500  15.2500 Du        
  28762 ****        14.5000  14.7500  15.5000 Du        
  28763 ****        14.5000  15.0000  12.7500 Du        
  28764 ****        14.5000  15.0000  13.0000 Du        
  28765 ****        14.5000  15.0000  13.2500 Du        
  28766 ****        14.5000  15.0000  13.5000 Du        
  28767 ****        14.5000  15.0000  13.7500 Du        
  28768 ****        14.5000  15.0000  14.0000 Du        
  28769 ****        14.5000  15.0000  14.2500 Du        
  28770 ****        14.5000  15.0000  14.5000 Du        
  28771 ****        14.5000  15.0000  14.7500 Du        
  28772 ****        14.5000  15.0000  15.0000 Du        
  28773 ****        14.5000  15.0000  15.2500 Du        
  28774 ****        14.5000  15.0000  15.5000 Du        
  28775 ****        14.5000  15.2500  13.0000 Du        
  28776 ****        14.5000  15.2500  13.2500 Du        
  28777 ****        14.5000  15.2500  13.5000 Du        
  28778 ****        14.5000  15.2500  13.7500 Du        
  28779 ****        14.5000  15.2500  14.0000 Du        
  28780 ****        14.5000  15.2500  14.2500 Du        
  28781 ****        14.5000  15.2500  14.5000 Du        
  28782 ****        14.5000  15.2500  14.7500 Du        
  28783 ****        14.5000  15.2500  15.0000 Du        
  28784 ****        14.5000  15.2500  15.2500 Du        
  28785 ****        14.5000  15.5000  13.0000 Du        
  28786 ****        14.5000  15.5000  13.2500 Du        
  28787 ****        14.5000  15.5000  13.5000 Du        
  28788 ****        14.5000  15.5000  13.7500 Du        
  28789 ****        14.5000  15.5000  14.0000 Du        
  28790 ****        14.5000  15.5000  14.2500 Du        
  28791 ****        14.5000  15.5000  14.5000 Du        
  28792 ****        14.5000  15.5000  14.7500 Du        
  28793 ****        14.5000  15.5000  15.0000 Du        
  28794 ****        14.5000  15.5000  15.2500 Du        
  28795 ****        14.5000  15.7500  13.7500 Du        
  28796 ****        14.5000  15.7500  14.0000 Du        
  28797 ****        14.5000  15.7500  14.2500 Du        
  28798 ****        14.5000  15.7500  14.5000 Du        
  28799 ****        14.5000  15.7500  14.7500 Du        
  28800 ****        14.5000  15.7500  15.0000 Du        
  28801 ****        14.5000  15.7500  38.0000 Du        
  28802 ****        14.5000  16.0000  37.7500 Du        
  28803 ****        14.5000  16.0000  38.0000 Du        
  28804 ****        14.5000  16.0000  38.2500 Du        
  28805 ****        14.5000  16.2500  38.0000 Du        
  28806 ****        14.5000  16.2500  38.2500 Du        
  28807 ****        14.5000  19.7500  32.2500 Du        
  28808 ****        14.5000  19.7500  32.5000 Du        
  28809 ****        14.5000  19.7500  32.7500 Du        
  28810 ****        14.5000  19.7500  33.0000 Du        
  28811 ****        14.5000  19.7500  33.2500 Du        
  28812 ****        14.5000  19.7500  33.5000 Du        
  28813 ****        14.5000  19.7500  33.7500 Du        
  28814 ****        14.5000  19.7500  34.0000 Du        
  28815 ****        14.5000  19.7500  34.2500 Du        
  28816 ****        14.5000  19.7500  35.2500 Du        
  28817 ****        14.5000  20.0000  31.7500 Du        
  28818 ****        14.5000  20.0000  32.0000 Du        
  28819 ****        14.5000  20.0000  32.2500 Du        
  28820 ****        14.5000  20.0000  32.5000 Du        
  28821 ****        14.5000  20.0000  32.7500 Du        
  28822 ****        14.5000  20.0000  33.0000 Du        
  28823 ****        14.5000  20.0000  33.2500 Du        
  28824 ****        14.5000  20.0000  33.5000 Du        
  28825 ****        14.5000  20.0000  33.7500 Du        
  28826 ****        14.5000  20.0000  34.0000 Du        
  28827 ****        14.5000  20.2500  31.2500 Du        
  28828 ****        14.5000  20.2500  31.5000 Du        
  28829 ****        14.5000  20.2500  31.7500 Du        
  28830 ****        14.5000  20.2500  32.0000 Du        
  28831 ****        14.5000  20.2500  32.2500 Du        
  28832 ****        14.5000  20.2500  32.5000 Du        
  28833 ****        14.5000  20.2500  32.7500 Du        
  28834 ****        14.5000  20.2500  33.0000 Du        
  28835 ****        14.5000  20.2500  33.2500 Du        
  28836 ****        14.5000  20.5000  31.2500 Du        
  28837 ****        14.5000  20.5000  31.5000 Du        
  28838 ****        14.5000  20.5000  31.7500 Du        
  28839 ****        14.5000  20.5000  32.0000 Du        
  28840 ****        14.5000  20.5000  32.2500 Du        
  28841 ****        14.5000  20.5000  32.5000 Du        
  28842 ****        14.5000  20.5000  32.7500 Du        
  28843 ****        14.5000  20.7500  31.2500 Du        
  28844 ****        14.5000  20.7500  31.5000 Du        
  28845 ****        14.5000  20.7500  31.7500 Du        
  28846 ****        14.5000  20.7500  32.0000 Du        
  28847 ****        14.5000  20.7500  32.2500 Du        
  28848 ****        14.5000  20.7500  32.5000 Du        
  28849 ****        14.7500   3.5000  19.5000 Du        
  28850 ****        14.7500   3.7500   6.5000 Du        
  28851 ****        14.7500   3.7500   6.7500 Du        
  28852 ****        14.7500   3.7500  19.2500 Du        
  28853 ****        14.7500   3.7500  19.5000 Du        
  28854 ****        14.7500   3.7500  19.7500 Du        
  28855 ****        14.7500   4.0000   6.2500 Du        
  28856 ****        14.7500   4.0000   6.5000 Du        
  28857 ****        14.7500   4.0000   6.7500 Du        
  28858 ****        14.7500   4.0000  19.0000 Du        
  28859 ****        14.7500   4.0000  19.2500 Du        
  28860 ****        14.7500   4.0000  19.5000 Du        
  28861 ****        14.7500   4.0000  19.7500 Du        
  28862 ****        14.7500   4.2500   6.2500 Du        
  28863 ****        14.7500   4.2500   6.5000 Du        
  28864 ****        14.7500   4.2500   6.7500 Du        
  28865 ****        14.7500   4.2500   7.0000 Du        
  28866 ****        14.7500   4.2500  19.0000 Du        
  28867 ****        14.7500   4.2500  19.2500 Du        
  28868 ****        14.7500   4.2500  19.5000 Du        
  28869 ****        14.7500   4.2500  19.7500 Du        
  28870 ****        14.7500   4.5000   6.0000 Du        
  28871 ****        14.7500   4.5000   6.2500 Du        
  28872 ****        14.7500   4.5000   6.5000 Du        
  28873 ****        14.7500   4.5000   6.7500 Du        
  28874 ****        14.7500   4.5000   7.0000 Du        
  28875 ****        14.7500   4.5000  19.2500 Du        
  28876 ****        14.7500   4.5000  19.5000 Du        
  28877 ****        14.7500   4.5000  19.7500 Du        
  28878 ****        14.7500   4.7500   6.0000 Du        
  28879 ****        14.7500   4.7500   6.2500 Du        
  28880 ****        14.7500   4.7500   6.5000 Du        
  28881 ****        14.7500   4.7500   6.7500 Du        
  28882 ****        14.7500   4.7500   7.0000 Du        
  28883 ****        14.7500   4.7500  19.5000 Du        
  28884 ****        14.7500   4.7500  19.7500 Du        
  28885 ****        14.7500   5.0000   6.0000 Du        
  28886 ****        14.7500   5.0000   6.2500 Du        
  28887 ****        14.7500   5.0000   6.5000 Du        
  28888 ****        14.7500   5.0000   6.7500 Du        
  28889 ****        14.7500   5.0000   7.0000 Du        
  28890 ****        14.7500   5.0000  19.5000 Du        
  28891 ****        14.7500   5.0000  19.7500 Du        
  28892 ****        14.7500   5.2500   6.0000 Du        
  28893 ****        14.7500   5.2500   6.2500 Du        
  28894 ****        14.7500   5.2500   6.5000 Du        
  28895 ****        14.7500   5.2500   6.7500 Du        
  28896 ****        14.7500   5.2500   7.0000 Du        
  28897 ****        14.7500   5.2500  19.7500 Du        
  28898 ****        14.7500   5.5000   5.7500 Du        
  28899 ****        14.7500   5.5000   6.0000 Du        
  28900 ****        14.7500   5.5000   6.2500 Du        
  28901 ****        14.7500   5.5000   6.5000 Du        
  28902 ****        14.7500   5.5000   6.7500 Du        
  28903 ****        14.7500   5.5000   7.0000 Du        
  28904 ****        14.7500   5.7500   5.5000 Du        
  28905 ****        14.7500   5.7500   5.7500 Du        
  28906 ****        14.7500   5.7500   6.0000 Du        
  28907 ****        14.7500   5.7500   6.2500 Du        
  28908 ****        14.7500   5.7500   6.5000 Du        
  28909 ****        14.7500   5.7500   6.7500 Du        
  28910 ****        14.7500   5.7500   7.0000 Du        
  28911 ****        14.7500   5.7500   7.2500 Du        
  28912 ****        14.7500   6.0000   5.2500 Du        
  28913 ****        14.7500   6.0000   5.5000 Du        
  28914 ****        14.7500   6.0000   5.7500 Du        
  28915 ****        14.7500   6.0000   6.0000 Du        
  28916 ****        14.7500   6.0000   6.2500 Du        
  28917 ****        14.7500   6.0000   6.5000 Du        
  28918 ****        14.7500   6.0000   6.7500 Du        
  28919 ****        14.7500   6.0000   7.0000 Du        
  28920 ****        14.7500   6.0000   7.2500 Du        
  28921 ****        14.7500   6.2500   5.2500 Du        
  28922 ****        14.7500   6.2500   5.5000 Du        
  28923 ****        14.7500   6.2500   5.7500 Du        
  28924 ****        14.7500   6.2500   6.0000 Du        
  28925 ****        14.7500   6.2500   6.2500 Du        
  28926 ****        14.7500   6.2500   6.5000 Du        
  28927 ****        14.7500   6.2500   6.7500 Du        
  28928 ****        14.7500   6.2500   7.0000 Du        
  28929 ****        14.7500   6.5000   5.0000 Du        
  28930 ****        14.7500   6.5000   5.2500 Du        
  28931 ****        14.7500   6.5000   5.5000 Du        
  28932 ****        14.7500   6.5000   5.7500 Du        
  28933 ****        14.7500   6.5000   6.0000 Du        
  28934 ****        14.7500   6.5000   6.2500 Du        
  28935 ****        14.7500   6.5000   6.5000 Du        
  28936 ****        14.7500   6.7500   5.2500 Du        
  28937 ****        14.7500   6.7500   5.5000 Du        
  28938 ****        14.7500   6.7500   5.7500 Du        
  28939 ****        14.7500   6.7500   6.0000 Du        
  28940 ****        14.7500   9.2500  36.5000 Du        
  28941 ****        14.7500   9.2500  36.7500 Du        
  28942 ****        14.7500   9.2500  37.0000 Du        
  28943 ****        14.7500   9.2500  37.2500 Du        
  28944 ****        14.7500   9.5000  20.5000 Du        
  28945 ****        14.7500   9.5000  20.7500 Du        
  28946 ****        14.7500   9.5000  36.0000 Du        
  28947 ****        14.7500   9.5000  36.2500 Du        
  28948 ****        14.7500   9.5000  36.5000 Du        
  28949 ****        14.7500   9.5000  36.7500 Du        
  28950 ****        14.7500   9.5000  37.0000 Du        
  28951 ****        14.7500   9.5000  37.2500 Du        
  28952 ****        14.7500   9.5000  37.5000 Du        
  28953 ****        14.7500   9.7500  20.5000 Du        
  28954 ****        14.7500   9.7500  20.7500 Du        
  28955 ****        14.7500   9.7500  21.0000 Du        
  28956 ****        14.7500   9.7500  21.2500 Du        
  28957 ****        14.7500   9.7500  35.7500 Du        
  28958 ****        14.7500   9.7500  36.0000 Du        
  28959 ****        14.7500   9.7500  36.2500 Du        
  28960 ****        14.7500   9.7500  36.5000 Du        
  28961 ****        14.7500   9.7500  36.7500 Du        
  28962 ****        14.7500   9.7500  37.0000 Du        
  28963 ****        14.7500   9.7500  37.2500 Du        
  28964 ****        14.7500  10.0000  20.7500 Du        
  28965 ****        14.7500  10.0000  21.0000 Du        
  28966 ****        14.7500  10.0000  21.2500 Du        
  28967 ****        14.7500  10.0000  35.7500 Du        
  28968 ****        14.7500  10.0000  36.0000 Du        
  28969 ****        14.7500  10.0000  36.2500 Du        
  28970 ****        14.7500  10.0000  36.5000 Du        
  28971 ****        14.7500  10.0000  36.7500 Du        
  28972 ****        14.7500  10.2500  35.7500 Du        
  28973 ****        14.7500  10.2500  36.0000 Du        
  28974 ****        14.7500  10.2500  36.2500 Du        
  28975 ****        14.7500  10.2500  36.5000 Du        
  28976 ****        14.7500  10.5000  35.7500 Du        
  28977 ****        14.7500  10.5000  36.0000 Du        
  28978 ****        14.7500  11.7500   9.5000 Du        
  28979 ****        14.7500  11.7500   9.7500 Du        
  28980 ****        14.7500  11.7500  10.0000 Du        
  28981 ****        14.7500  11.7500  10.2500 Du        
  28982 ****        14.7500  11.7500  10.5000 Du        
  28983 ****        14.7500  11.7500  10.7500 Du        
  28984 ****        14.7500  11.7500  11.0000 Du        
  28985 ****        14.7500  11.7500  11.2500 Du        
  28986 ****        14.7500  11.7500  11.5000 Du        
  28987 ****        14.7500  11.7500  11.7500 Du        
  28988 ****        14.7500  11.7500  12.0000 Du        
  28989 ****        14.7500  12.0000   9.2500 Du        
  28990 ****        14.7500  12.0000   9.5000 Du        
  28991 ****        14.7500  12.0000   9.7500 Du        
  28992 ****        14.7500  12.0000  10.0000 Du        
  28993 ****        14.7500  12.0000  10.2500 Du        
  28994 ****        14.7500  12.0000  10.5000 Du        
  28995 ****        14.7500  12.0000  10.7500 Du        
  28996 ****        14.7500  12.0000  11.0000 Du        
  28997 ****        14.7500  12.0000  11.2500 Du        
  28998 ****        14.7500  12.0000  11.5000 Du        
  28999 ****        14.7500  12.0000  11.7500 Du        
  29000 ****        14.7500  12.0000  12.0000 Du        
  29001 ****        14.7500  12.0000  12.2500 Du        
  29002 ****        14.7500  12.0000  12.5000 Du        
  29003 ****        14.7500  12.0000  12.7500 Du        
  29004 ****        14.7500  12.0000  13.0000 Du        
  29005 ****        14.7500  12.0000  13.2500 Du        
  29006 ****        14.7500  12.2500   9.0000 Du        
  29007 ****        14.7500  12.2500   9.2500 Du        
  29008 ****        14.7500  12.2500   9.5000 Du        
  29009 ****        14.7500  12.2500   9.7500 Du        
  29010 ****        14.7500  12.2500  10.0000 Du        
  29011 ****        14.7500  12.2500  10.2500 Du        
  29012 ****        14.7500  12.2500  10.5000 Du        
  29013 ****        14.7500  12.2500  10.7500 Du        
  29014 ****        14.7500  12.2500  11.0000 Du        
  29015 ****        14.7500  12.2500  11.2500 Du        
  29016 ****        14.7500  12.2500  11.5000 Du        
  29017 ****        14.7500  12.2500  11.7500 Du        
  29018 ****        14.7500  12.2500  12.0000 Du        
  29019 ****        14.7500  12.2500  12.2500 Du        
  29020 ****        14.7500  12.2500  12.5000 Du        
  29021 ****        14.7500  12.2500  12.7500 Du        
  29022 ****        14.7500  12.2500  13.0000 Du        
  29023 ****        14.7500  12.2500  13.2500 Du        
  29024 ****        14.7500  12.2500  13.5000 Du        
  29025 ****        14.7500  12.2500  13.7500 Du        
  29026 ****        14.7500  12.5000   9.2500 Du        
  29027 ****        14.7500  12.5000   9.5000 Du        
  29028 ****        14.7500  12.5000   9.7500 Du        
  29029 ****        14.7500  12.5000  10.0000 Du        
  29030 ****        14.7500  12.5000  10.2500 Du        
  29031 ****        14.7500  12.5000  10.5000 Du        
  29032 ****        14.7500  12.5000  10.7500 Du        
  29033 ****        14.7500  12.5000  11.0000 Du        
  29034 ****        14.7500  12.5000  11.2500 Du        
  29035 ****        14.7500  12.5000  11.5000 Du        
  29036 ****        14.7500  12.5000  11.7500 Du        
  29037 ****        14.7500  12.5000  12.0000 Du        
  29038 ****        14.7500  12.5000  12.2500 Du        
  29039 ****        14.7500  12.5000  12.5000 Du        
  29040 ****        14.7500  12.5000  12.7500 Du        
  29041 ****        14.7500  12.5000  13.0000 Du        
  29042 ****        14.7500  12.5000  13.2500 Du        
  29043 ****        14.7500  12.5000  13.5000 Du        
  29044 ****        14.7500  12.5000  13.7500 Du        
  29045 ****        14.7500  12.5000  14.0000 Du        
  29046 ****        14.7500  12.5000  14.2500 Du        
  29047 ****        14.7500  12.7500   9.5000 Du        
  29048 ****        14.7500  12.7500   9.7500 Du        
  29049 ****        14.7500  12.7500  10.0000 Du        
  29050 ****        14.7500  12.7500  10.2500 Du        
  29051 ****        14.7500  12.7500  10.5000 Du        
  29052 ****        14.7500  12.7500  10.7500 Du        
  29053 ****        14.7500  12.7500  11.0000 Du        
  29054 ****        14.7500  12.7500  11.2500 Du        
  29055 ****        14.7500  12.7500  11.5000 Du        
  29056 ****        14.7500  12.7500  11.7500 Du        
  29057 ****        14.7500  12.7500  12.0000 Du        
  29058 ****        14.7500  12.7500  12.2500 Du        
  29059 ****        14.7500  12.7500  12.5000 Du        
  29060 ****        14.7500  12.7500  12.7500 Du        
  29061 ****        14.7500  12.7500  13.0000 Du        
  29062 ****        14.7500  12.7500  13.2500 Du        
  29063 ****        14.7500  12.7500  13.5000 Du        
  29064 ****        14.7500  12.7500  13.7500 Du        
  29065 ****        14.7500  12.7500  14.0000 Du        
  29066 ****        14.7500  12.7500  14.2500 Du        
  29067 ****        14.7500  12.7500  14.5000 Du        
  29068 ****        14.7500  12.7500  14.7500 Du        
  29069 ****        14.7500  12.7500  15.0000 Du        
  29070 ****        14.7500  13.0000   9.5000 Du        
  29071 ****        14.7500  13.0000   9.7500 Du        
  29072 ****        14.7500  13.0000  10.0000 Du        
  29073 ****        14.7500  13.0000  10.2500 Du        
  29074 ****        14.7500  13.0000  10.5000 Du        
  29075 ****        14.7500  13.0000  10.7500 Du        
  29076 ****        14.7500  13.0000  11.0000 Du        
  29077 ****        14.7500  13.0000  11.2500 Du        
  29078 ****        14.7500  13.0000  11.5000 Du        
  29079 ****        14.7500  13.0000  11.7500 Du        
  29080 ****        14.7500  13.0000  12.0000 Du        
  29081 ****        14.7500  13.0000  12.2500 Du        
  29082 ****        14.7500  13.0000  12.5000 Du        
  29083 ****        14.7500  13.0000  12.7500 Du        
  29084 ****        14.7500  13.0000  13.0000 Du        
  29085 ****        14.7500  13.0000  13.2500 Du        
  29086 ****        14.7500  13.0000  13.5000 Du        
  29087 ****        14.7500  13.0000  13.7500 Du        
  29088 ****        14.7500  13.0000  14.0000 Du        
  29089 ****        14.7500  13.0000  14.2500 Du        
  29090 ****        14.7500  13.0000  14.5000 Du        
  29091 ****        14.7500  13.0000  14.7500 Du        
  29092 ****        14.7500  13.0000  15.0000 Du        
  29093 ****        14.7500  13.2500   9.7500 Du        
  29094 ****        14.7500  13.2500  10.0000 Du        
  29095 ****        14.7500  13.2500  10.2500 Du        
  29096 ****        14.7500  13.2500  10.5000 Du        
  29097 ****        14.7500  13.2500  10.7500 Du        
  29098 ****        14.7500  13.2500  11.0000 Du        
  29099 ****        14.7500  13.2500  11.2500 Du        
  29100 ****        14.7500  13.2500  11.5000 Du        
  29101 ****        14.7500  13.2500  11.7500 Du        
  29102 ****        14.7500  13.2500  12.0000 Du        
  29103 ****        14.7500  13.2500  12.2500 Du        
  29104 ****        14.7500  13.2500  12.5000 Du        
  29105 ****        14.7500  13.2500  12.7500 Du        
  29106 ****        14.7500  13.2500  13.0000 Du        
  29107 ****        14.7500  13.2500  13.2500 Du        
  29108 ****        14.7500  13.2500  13.5000 Du        
  29109 ****        14.7500  13.2500  13.7500 Du        
  29110 ****        14.7500  13.2500  14.0000 Du        
  29111 ****        14.7500  13.2500  14.2500 Du        
  29112 ****        14.7500  13.2500  14.5000 Du        
  29113 ****        14.7500  13.2500  14.7500 Du        
  29114 ****        14.7500  13.2500  15.0000 Du        
  29115 ****        14.7500  13.5000  10.0000 Du        
  29116 ****        14.7500  13.5000  10.2500 Du        
  29117 ****        14.7500  13.5000  10.5000 Du        
  29118 ****        14.7500  13.5000  10.7500 Du        
  29119 ****        14.7500  13.5000  11.0000 Du        
  29120 ****        14.7500  13.5000  11.2500 Du        
  29121 ****        14.7500  13.5000  11.5000 Du        
  29122 ****        14.7500  13.5000  11.7500 Du        
  29123 ****        14.7500  13.5000  12.0000 Du        
  29124 ****        14.7500  13.5000  12.2500 Du        
  29125 ****        14.7500  13.5000  12.5000 Du        
  29126 ****        14.7500  13.5000  12.7500 Du        
  29127 ****        14.7500  13.5000  13.0000 Du        
  29128 ****        14.7500  13.5000  13.2500 Du        
  29129 ****        14.7500  13.5000  13.5000 Du        
  29130 ****        14.7500  13.5000  13.7500 Du        
  29131 ****        14.7500  13.5000  14.0000 Du        
  29132 ****        14.7500  13.5000  14.2500 Du        
  29133 ****        14.7500  13.5000  14.5000 Du        
  29134 ****        14.7500  13.5000  14.7500 Du        
  29135 ****        14.7500  13.5000  15.0000 Du        
  29136 ****        14.7500  13.5000  15.2500 Du        
  29137 ****        14.7500  13.7500  10.2500 Du        
  29138 ****        14.7500  13.7500  10.5000 Du        
  29139 ****        14.7500  13.7500  10.7500 Du        
  29140 ****        14.7500  13.7500  11.0000 Du        
  29141 ****        14.7500  13.7500  11.2500 Du        
  29142 ****        14.7500  13.7500  11.5000 Du        
  29143 ****        14.7500  13.7500  11.7500 Du        
  29144 ****        14.7500  13.7500  12.0000 Du        
  29145 ****        14.7500  13.7500  12.2500 Du        
  29146 ****        14.7500  13.7500  12.5000 Du        
  29147 ****        14.7500  13.7500  12.7500 Du        
  29148 ****        14.7500  13.7500  13.0000 Du        
  29149 ****        14.7500  13.7500  13.2500 Du        
  29150 ****        14.7500  13.7500  13.5000 Du        
  29151 ****        14.7500  13.7500  13.7500 Du        
  29152 ****        14.7500  13.7500  14.0000 Du        
  29153 ****        14.7500  13.7500  14.2500 Du        
  29154 ****        14.7500  13.7500  14.5000 Du        
  29155 ****        14.7500  13.7500  14.7500 Du        
  29156 ****        14.7500  13.7500  15.0000 Du        
  29157 ****        14.7500  13.7500  15.2500 Du        
  29158 ****        14.7500  14.0000  10.5000 Du        
  29159 ****        14.7500  14.0000  10.7500 Du        
  29160 ****        14.7500  14.0000  11.0000 Du        
  29161 ****        14.7500  14.0000  11.2500 Du        
  29162 ****        14.7500  14.0000  11.5000 Du        
  29163 ****        14.7500  14.0000  11.7500 Du        
  29164 ****        14.7500  14.0000  12.0000 Du        
  29165 ****        14.7500  14.0000  12.2500 Du        
  29166 ****        14.7500  14.0000  12.5000 Du        
  29167 ****        14.7500  14.0000  12.7500 Du        
  29168 ****        14.7500  14.0000  13.0000 Du        
  29169 ****        14.7500  14.0000  13.2500 Du        
  29170 ****        14.7500  14.0000  13.5000 Du        
  29171 ****        14.7500  14.0000  13.7500 Du        
  29172 ****        14.7500  14.0000  14.0000 Du        
  29173 ****        14.7500  14.0000  14.2500 Du        
  29174 ****        14.7500  14.0000  14.5000 Du        
  29175 ****        14.7500  14.0000  14.7500 Du        
  29176 ****        14.7500  14.0000  15.0000 Du        
  29177 ****        14.7500  14.0000  15.2500 Du        
  29178 ****        14.7500  14.0000  15.5000 Du        
  29179 ****        14.7500  14.2500  10.7500 Du        
  29180 ****        14.7500  14.2500  11.0000 Du        
  29181 ****        14.7500  14.2500  11.2500 Du        
  29182 ****        14.7500  14.2500  11.5000 Du        
  29183 ****        14.7500  14.2500  11.7500 Du        
  29184 ****        14.7500  14.2500  12.0000 Du        
  29185 ****        14.7500  14.2500  12.2500 Du        
  29186 ****        14.7500  14.2500  12.5000 Du        
  29187 ****        14.7500  14.2500  12.7500 Du        
  29188 ****        14.7500  14.2500  13.0000 Du        
  29189 ****        14.7500  14.2500  13.2500 Du        
  29190 ****        14.7500  14.2500  13.5000 Du        
  29191 ****        14.7500  14.2500  13.7500 Du        
  29192 ****        14.7500  14.2500  14.0000 Du        
  29193 ****        14.7500  14.2500  14.2500 Du        
  29194 ****        14.7500  14.2500  14.5000 Du        
  29195 ****        14.7500  14.2500  14.7500 Du        
  29196 ****        14.7500  14.2500  15.0000 Du        
  29197 ****        14.7500  14.2500  15.2500 Du        
  29198 ****        14.7500  14.2500  15.5000 Du        
  29199 ****        14.7500  14.5000  12.2500 Du        
  29200 ****        14.7500  14.5000  12.7500 Du        
  29201 ****        14.7500  14.5000  13.0000 Du        
  29202 ****        14.7500  14.5000  13.2500 Du        
  29203 ****        14.7500  14.5000  13.5000 Du        
  29204 ****        14.7500  14.5000  13.7500 Du        
  29205 ****        14.7500  14.5000  14.0000 Du        
  29206 ****        14.7500  14.5000  14.2500 Du        
  29207 ****        14.7500  14.5000  14.5000 Du        
  29208 ****        14.7500  14.5000  14.7500 Du        
  29209 ****        14.7500  14.5000  15.0000 Du        
  29210 ****        14.7500  14.5000  15.2500 Du        
  29211 ****        14.7500  14.5000  15.5000 Du        
  29212 ****        14.7500  14.7500  12.5000 Du        
  29213 ****        14.7500  14.7500  12.7500 Du        
  29214 ****        14.7500  14.7500  13.0000 Du        
  29215 ****        14.7500  14.7500  13.2500 Du        
  29216 ****        14.7500  14.7500  13.5000 Du        
  29217 ****        14.7500  14.7500  13.7500 Du        
  29218 ****        14.7500  14.7500  14.0000 Du        
  29219 ****        14.7500  14.7500  14.2500 Du        
  29220 ****        14.7500  14.7500  14.5000 Du        
  29221 ****        14.7500  14.7500  14.7500 Du        
  29222 ****        14.7500  14.7500  15.0000 Du        
  29223 ****        14.7500  14.7500  15.2500 Du        
  29224 ****        14.7500  14.7500  15.5000 Du        
  29225 ****        14.7500  15.0000  12.5000 Du        
  29226 ****        14.7500  15.0000  12.7500 Du        
  29227 ****        14.7500  15.0000  13.0000 Du        
  29228 ****        14.7500  15.0000  13.2500 Du        
  29229 ****        14.7500  15.0000  13.5000 Du        
  29230 ****        14.7500  15.0000  13.7500 Du        
  29231 ****        14.7500  15.0000  14.0000 Du        
  29232 ****        14.7500  15.0000  14.2500 Du        
  29233 ****        14.7500  15.0000  14.5000 Du        
  29234 ****        14.7500  15.0000  14.7500 Du        
  29235 ****        14.7500  15.0000  15.0000 Du        
  29236 ****        14.7500  15.0000  15.2500 Du        
  29237 ****        14.7500  15.0000  15.5000 Du        
  29238 ****        14.7500  15.2500  12.7500 Du        
  29239 ****        14.7500  15.2500  13.0000 Du        
  29240 ****        14.7500  15.2500  13.2500 Du        
  29241 ****        14.7500  15.2500  13.5000 Du        
  29242 ****        14.7500  15.2500  13.7500 Du        
  29243 ****        14.7500  15.2500  14.0000 Du        
  29244 ****        14.7500  15.2500  14.2500 Du        
  29245 ****        14.7500  15.2500  14.5000 Du        
  29246 ****        14.7500  15.2500  14.7500 Du        
  29247 ****        14.7500  15.2500  15.0000 Du        
  29248 ****        14.7500  15.2500  15.2500 Du        
  29249 ****        14.7500  15.2500  15.5000 Du        
  29250 ****        14.7500  15.5000  12.7500 Du        
  29251 ****        14.7500  15.5000  13.0000 Du        
  29252 ****        14.7500  15.5000  13.2500 Du        
  29253 ****        14.7500  15.5000  13.5000 Du        
  29254 ****        14.7500  15.5000  13.7500 Du        
  29255 ****        14.7500  15.5000  14.0000 Du        
  29256 ****        14.7500  15.5000  14.2500 Du        
  29257 ****        14.7500  15.5000  14.5000 Du        
  29258 ****        14.7500  15.5000  14.7500 Du        
  29259 ****        14.7500  15.5000  15.0000 Du        
  29260 ****        14.7500  15.5000  15.2500 Du        
  29261 ****        14.7500  15.5000  15.5000 Du        
  29262 ****        14.7500  15.7500  13.0000 Du        
  29263 ****        14.7500  15.7500  13.2500 Du        
  29264 ****        14.7500  15.7500  13.5000 Du        
  29265 ****        14.7500  15.7500  13.7500 Du        
  29266 ****        14.7500  15.7500  14.0000 Du        
  29267 ****        14.7500  15.7500  14.2500 Du        
  29268 ****        14.7500  15.7500  14.5000 Du        
  29269 ****        14.7500  15.7500  14.7500 Du        
  29270 ****        14.7500  15.7500  15.0000 Du        
  29271 ****        14.7500  15.7500  15.2500 Du        
  29272 ****        14.7500  15.7500  15.5000 Du        
  29273 ****        14.7500  15.7500  38.0000 Du        
  29274 ****        14.7500  16.0000  15.0000 Du        
  29275 ****        14.7500  16.0000  15.2500 Du        
  29276 ****        14.7500  16.0000  37.7500 Du        
  29277 ****        14.7500  16.0000  38.0000 Du        
  29278 ****        14.7500  16.0000  38.2500 Du        
  29279 ****        14.7500  16.2500  38.0000 Du        
  29280 ****        14.7500  16.2500  38.2500 Du        
  29281 ****        14.7500  19.5000  32.0000 Du        
  29282 ****        14.7500  19.5000  32.2500 Du        
  29283 ****        14.7500  19.5000  32.5000 Du        
  29284 ****        14.7500  19.5000  32.7500 Du        
  29285 ****        14.7500  19.5000  33.0000 Du        
  29286 ****        14.7500  19.5000  33.2500 Du        
  29287 ****        14.7500  19.7500  31.5000 Du        
  29288 ****        14.7500  19.7500  31.7500 Du        
  29289 ****        14.7500  19.7500  32.0000 Du        
  29290 ****        14.7500  19.7500  32.2500 Du        
  29291 ****        14.7500  19.7500  32.5000 Du        
  29292 ****        14.7500  19.7500  32.7500 Du        
  29293 ****        14.7500  19.7500  33.0000 Du        
  29294 ****        14.7500  19.7500  33.2500 Du        
  29295 ****        14.7500  19.7500  33.5000 Du        
  29296 ****        14.7500  19.7500  33.7500 Du        
  29297 ****        14.7500  19.7500  34.0000 Du        
  29298 ****        14.7500  19.7500  34.2500 Du        
  29299 ****        14.7500  19.7500  34.5000 Du        
  29300 ****        14.7500  19.7500  34.7500 Du        
  29301 ****        14.7500  19.7500  35.0000 Du        
  29302 ****        14.7500  19.7500  35.2500 Du        
  29303 ****        14.7500  20.0000  31.2500 Du        
  29304 ****        14.7500  20.0000  31.5000 Du        
  29305 ****        14.7500  20.0000  31.7500 Du        
  29306 ****        14.7500  20.0000  32.0000 Du        
  29307 ****        14.7500  20.0000  32.2500 Du        
  29308 ****        14.7500  20.0000  32.5000 Du        
  29309 ****        14.7500  20.0000  32.7500 Du        
  29310 ****        14.7500  20.0000  33.0000 Du        
  29311 ****        14.7500  20.0000  33.2500 Du        
  29312 ****        14.7500  20.0000  33.5000 Du        
  29313 ****        14.7500  20.0000  33.7500 Du        
  29314 ****        14.7500  20.0000  34.0000 Du        
  29315 ****        14.7500  20.0000  34.2500 Du        
  29316 ****        14.7500  20.0000  34.5000 Du        
  29317 ****        14.7500  20.0000  34.7500 Du        
  29318 ****        14.7500  20.0000  35.0000 Du        
  29319 ****        14.7500  20.2500  31.2500 Du        
  29320 ****        14.7500  20.2500  31.5000 Du        
  29321 ****        14.7500  20.2500  31.7500 Du        
  29322 ****        14.7500  20.2500  32.0000 Du        
  29323 ****        14.7500  20.2500  32.2500 Du        
  29324 ****        14.7500  20.2500  32.5000 Du        
  29325 ****        14.7500  20.2500  32.7500 Du        
  29326 ****        14.7500  20.2500  33.0000 Du        
  29327 ****        14.7500  20.2500  33.2500 Du        
  29328 ****        14.7500  20.2500  33.5000 Du        
  29329 ****        14.7500  20.5000  31.2500 Du        
  29330 ****        14.7500  20.5000  31.5000 Du        
  29331 ****        14.7500  20.5000  31.7500 Du        
  29332 ****        14.7500  20.5000  32.0000 Du        
  29333 ****        14.7500  20.5000  32.2500 Du        
  29334 ****        14.7500  20.5000  32.5000 Du        
  29335 ****        14.7500  20.5000  32.7500 Du        
  29336 ****        14.7500  20.5000  33.0000 Du        
  29337 ****        14.7500  20.7500  31.5000 Du        
  29338 ****        14.7500  20.7500  31.7500 Du        
  29339 ****        14.7500  20.7500  32.0000 Du        
  29340 ****        14.7500  20.7500  32.2500 Du        
  29341 ****        14.7500  20.7500  32.5000 Du        
  29342 ****        15.0000   1.5000  12.2500 Du        
  29343 ****        15.0000   1.7500  12.0000 Du        
  29344 ****        15.0000   1.7500  12.2500 Du        
  29345 ****        15.0000   1.7500  12.5000 Du        
  29346 ****        15.0000   1.7500  12.7500 Du        
  29347 ****        15.0000   1.7500  13.0000 Du        
  29348 ****        15.0000   2.0000  11.2500 Du        
  29349 ****        15.0000   2.0000  11.5000 Du        
  29350 ****        15.0000   2.0000  11.7500 Du        
  29351 ****        15.0000   2.0000  12.0000 Du        
  29352 ****        15.0000   2.0000  12.2500 Du        
  29353 ****        15.0000   2.0000  12.5000 Du        
  29354 ****        15.0000   2.0000  12.7500 Du        
  29355 ****        15.0000   2.0000  13.0000 Du        
  29356 ****        15.0000   2.0000  13.2500 Du        
  29357 ****        15.0000   2.2500  11.5000 Du        
  29358 ****        15.0000   2.2500  11.7500 Du        
  29359 ****        15.0000   2.2500  12.0000 Du        
  29360 ****        15.0000   2.2500  12.2500 Du        
  29361 ****        15.0000   2.2500  12.5000 Du        
  29362 ****        15.0000   2.2500  12.7500 Du        
  29363 ****        15.0000   3.2500  19.5000 Du        
  29364 ****        15.0000   3.2500  19.7500 Du        
  29365 ****        15.0000   3.5000  18.7500 Du        
  29366 ****        15.0000   3.5000  19.0000 Du        
  29367 ****        15.0000   3.5000  19.2500 Du        
  29368 ****        15.0000   3.5000  19.5000 Du        
  29369 ****        15.0000   3.5000  19.7500 Du        
  29370 ****        15.0000   3.7500   6.0000 Du        
  29371 ****        15.0000   3.7500   6.2500 Du        
  29372 ****        15.0000   3.7500  18.7500 Du        
  29373 ****        15.0000   3.7500  19.0000 Du        
  29374 ****        15.0000   3.7500  19.2500 Du        
  29375 ****        15.0000   3.7500  19.5000 Du        
  29376 ****        15.0000   3.7500  19.7500 Du        
  29377 ****        15.0000   3.7500  20.0000 Du        
  29378 ****        15.0000   4.0000   6.0000 Du        
  29379 ****        15.0000   4.0000   6.2500 Du        
  29380 ****        15.0000   4.0000   6.5000 Du        
  29381 ****        15.0000   4.0000  19.0000 Du        
  29382 ****        15.0000   4.0000  19.2500 Du        
  29383 ****        15.0000   4.0000  19.5000 Du        
  29384 ****        15.0000   4.0000  19.7500 Du        
  29385 ****        15.0000   4.0000  20.0000 Du        
  29386 ****        15.0000   4.2500   6.0000 Du        
  29387 ****        15.0000   4.2500   6.2500 Du        
  29388 ****        15.0000   4.2500   6.5000 Du        
  29389 ****        15.0000   4.2500  19.0000 Du        
  29390 ****        15.0000   4.2500  19.2500 Du        
  29391 ****        15.0000   4.2500  19.5000 Du        
  29392 ****        15.0000   4.2500  19.7500 Du        
  29393 ****        15.0000   4.2500  20.0000 Du        
  29394 ****        15.0000   4.5000   5.7500 Du        
  29395 ****        15.0000   4.5000   6.0000 Du        
  29396 ****        15.0000   4.5000   6.2500 Du        
  29397 ****        15.0000   4.5000   6.5000 Du        
  29398 ****        15.0000   4.5000  19.2500 Du        
  29399 ****        15.0000   4.5000  19.5000 Du        
  29400 ****        15.0000   4.5000  19.7500 Du        
  29401 ****        15.0000   4.5000  20.0000 Du        
  29402 ****        15.0000   4.7500   5.7500 Du        
  29403 ****        15.0000   4.7500   6.0000 Du        
  29404 ****        15.0000   4.7500   6.2500 Du        
  29405 ****        15.0000   4.7500   6.5000 Du        
  29406 ****        15.0000   4.7500  19.5000 Du        
  29407 ****        15.0000   4.7500  19.7500 Du        
  29408 ****        15.0000   4.7500  20.0000 Du        
  29409 ****        15.0000   5.0000   5.7500 Du        
  29410 ****        15.0000   5.0000   6.0000 Du        
  29411 ****        15.0000   5.0000   6.2500 Du        
  29412 ****        15.0000   5.0000   6.5000 Du        
  29413 ****        15.0000   5.0000  19.5000 Du        
  29414 ****        15.0000   5.0000  19.7500 Du        
  29415 ****        15.0000   5.0000  20.0000 Du        
  29416 ****        15.0000   5.2500   5.7500 Du        
  29417 ****        15.0000   5.2500   6.0000 Du        
  29418 ****        15.0000   5.2500   6.2500 Du        
  29419 ****        15.0000   5.2500   6.5000 Du        
  29420 ****        15.0000   5.2500  19.7500 Du        
  29421 ****        15.0000   5.5000   5.5000 Du        
  29422 ****        15.0000   5.5000   5.7500 Du        
  29423 ****        15.0000   5.5000   6.0000 Du        
  29424 ****        15.0000   5.5000   6.2500 Du        
  29425 ****        15.0000   5.5000   6.5000 Du        
  29426 ****        15.0000   5.7500   5.2500 Du        
  29427 ****        15.0000   5.7500   5.5000 Du        
  29428 ****        15.0000   5.7500   5.7500 Du        
  29429 ****        15.0000   5.7500   6.0000 Du        
  29430 ****        15.0000   5.7500   6.2500 Du        
  29431 ****        15.0000   5.7500   6.5000 Du        
  29432 ****        15.0000   6.0000   5.0000 Du        
  29433 ****        15.0000   6.0000   5.2500 Du        
  29434 ****        15.0000   6.0000   5.5000 Du        
  29435 ****        15.0000   6.0000   5.7500 Du        
  29436 ****        15.0000   6.0000   6.0000 Du        
  29437 ****        15.0000   6.0000   6.2500 Du        
  29438 ****        15.0000   6.0000   6.5000 Du        
  29439 ****        15.0000   6.2500   4.7500 Du        
  29440 ****        15.0000   6.2500   5.0000 Du        
  29441 ****        15.0000   6.2500   5.2500 Du        
  29442 ****        15.0000   6.2500   5.5000 Du        
  29443 ****        15.0000   6.2500   5.7500 Du        
  29444 ****        15.0000   6.2500   6.0000 Du        
  29445 ****        15.0000   6.2500   6.2500 Du        
  29446 ****        15.0000   6.2500   6.5000 Du        
  29447 ****        15.0000   6.5000   4.7500 Du        
  29448 ****        15.0000   6.5000   5.0000 Du        
  29449 ****        15.0000   6.5000   5.2500 Du        
  29450 ****        15.0000   6.5000   5.5000 Du        
  29451 ****        15.0000   6.5000   5.7500 Du        
  29452 ****        15.0000   6.5000   6.0000 Du        
  29453 ****        15.0000   6.5000   6.2500 Du        
  29454 ****        15.0000   6.7500   4.5000 Du        
  29455 ****        15.0000   6.7500   4.7500 Du        
  29456 ****        15.0000   6.7500   5.0000 Du        
  29457 ****        15.0000   6.7500   5.2500 Du        
  29458 ****        15.0000   6.7500   5.5000 Du        
  29459 ****        15.0000   6.7500   5.7500 Du        
  29460 ****        15.0000   9.2500  36.5000 Du        
  29461 ****        15.0000   9.2500  36.7500 Du        
  29462 ****        15.0000   9.2500  37.0000 Du        
  29463 ****        15.0000   9.2500  37.2500 Du        
  29464 ****        15.0000   9.2500  37.5000 Du        
  29465 ****        15.0000   9.5000  36.0000 Du        
  29466 ****        15.0000   9.5000  36.2500 Du        
  29467 ****        15.0000   9.5000  36.5000 Du        
  29468 ****        15.0000   9.5000  36.7500 Du        
  29469 ****        15.0000   9.5000  37.0000 Du        
  29470 ****        15.0000   9.5000  37.2500 Du        
  29471 ****        15.0000   9.5000  37.5000 Du        
  29472 ****        15.0000   9.5000  37.7500 Du        
  29473 ****        15.0000   9.7500  20.5000 Du        
  29474 ****        15.0000   9.7500  20.7500 Du        
  29475 ****        15.0000   9.7500  21.0000 Du        
  29476 ****        15.0000   9.7500  21.2500 Du        
  29477 ****        15.0000   9.7500  35.7500 Du        
  29478 ****        15.0000   9.7500  36.0000 Du        
  29479 ****        15.0000   9.7500  36.2500 Du        
  29480 ****        15.0000   9.7500  36.5000 Du        
  29481 ****        15.0000   9.7500  36.7500 Du        
  29482 ****        15.0000   9.7500  37.0000 Du        
  29483 ****        15.0000   9.7500  37.2500 Du        
  29484 ****        15.0000   9.7500  37.5000 Du        
  29485 ****        15.0000   9.7500  37.7500 Du        
  29486 ****        15.0000  10.0000  20.7500 Du        
  29487 ****        15.0000  10.0000  21.0000 Du        
  29488 ****        15.0000  10.0000  21.2500 Du        
  29489 ****        15.0000  10.0000  35.7500 Du        
  29490 ****        15.0000  10.0000  36.0000 Du        
  29491 ****        15.0000  10.0000  36.2500 Du        
  29492 ****        15.0000  10.0000  36.5000 Du        
  29493 ****        15.0000  10.0000  36.7500 Du        
  29494 ****        15.0000  10.0000  37.0000 Du        
  29495 ****        15.0000  10.0000  37.2500 Du        
  29496 ****        15.0000  10.0000  37.5000 Du        
  29497 ****        15.0000  10.2500  21.2500 Du        
  29498 ****        15.0000  10.2500  35.7500 Du        
  29499 ****        15.0000  10.2500  36.0000 Du        
  29500 ****        15.0000  10.2500  36.2500 Du        
  29501 ****        15.0000  10.2500  36.5000 Du        
  29502 ****        15.0000  10.2500  36.7500 Du        
  29503 ****        15.0000  10.2500  37.0000 Du        
  29504 ****        15.0000  10.5000  35.7500 Du        
  29505 ****        15.0000  10.5000  36.0000 Du        
  29506 ****        15.0000  10.5000  36.2500 Du        
  29507 ****        15.0000  10.5000  36.5000 Du        
  29508 ****        15.0000  10.5000  36.7500 Du        
  29509 ****        15.0000  10.7500  35.7500 Du        
  29510 ****        15.0000  10.7500  36.0000 Du        
  29511 ****        15.0000  10.7500  36.2500 Du        
  29512 ****        15.0000  10.7500  36.5000 Du        
  29513 ****        15.0000  11.7500   9.7500 Du        
  29514 ****        15.0000  11.7500  10.0000 Du        
  29515 ****        15.0000  11.7500  10.2500 Du        
  29516 ****        15.0000  11.7500  10.5000 Du        
  29517 ****        15.0000  11.7500  10.7500 Du        
  29518 ****        15.0000  11.7500  11.0000 Du        
  29519 ****        15.0000  11.7500  11.2500 Du        
  29520 ****        15.0000  11.7500  11.5000 Du        
  29521 ****        15.0000  11.7500  11.7500 Du        
  29522 ****        15.0000  11.7500  12.0000 Du        
  29523 ****        15.0000  11.7500  12.2500 Du        
  29524 ****        15.0000  12.0000   9.2500 Du        
  29525 ****        15.0000  12.0000   9.5000 Du        
  29526 ****        15.0000  12.0000   9.7500 Du        
  29527 ****        15.0000  12.0000  10.0000 Du        
  29528 ****        15.0000  12.0000  10.2500 Du        
  29529 ****        15.0000  12.0000  10.5000 Du        
  29530 ****        15.0000  12.0000  10.7500 Du        
  29531 ****        15.0000  12.0000  11.0000 Du        
  29532 ****        15.0000  12.0000  11.2500 Du        
  29533 ****        15.0000  12.0000  11.5000 Du        
  29534 ****        15.0000  12.0000  11.7500 Du        
  29535 ****        15.0000  12.0000  12.0000 Du        
  29536 ****        15.0000  12.0000  12.2500 Du        
  29537 ****        15.0000  12.0000  12.5000 Du        
  29538 ****        15.0000  12.0000  12.7500 Du        
  29539 ****        15.0000  12.0000  13.0000 Du        
  29540 ****        15.0000  12.2500   9.2500 Du        
  29541 ****        15.0000  12.2500   9.5000 Du        
  29542 ****        15.0000  12.2500   9.7500 Du        
  29543 ****        15.0000  12.2500  10.0000 Du        
  29544 ****        15.0000  12.2500  10.2500 Du        
  29545 ****        15.0000  12.2500  10.5000 Du        
  29546 ****        15.0000  12.2500  10.7500 Du        
  29547 ****        15.0000  12.2500  11.0000 Du        
  29548 ****        15.0000  12.2500  11.2500 Du        
  29549 ****        15.0000  12.2500  11.5000 Du        
  29550 ****        15.0000  12.2500  11.7500 Du        
  29551 ****        15.0000  12.2500  12.0000 Du        
  29552 ****        15.0000  12.2500  12.2500 Du        
  29553 ****        15.0000  12.2500  12.5000 Du        
  29554 ****        15.0000  12.2500  12.7500 Du        
  29555 ****        15.0000  12.2500  13.0000 Du        
  29556 ****        15.0000  12.2500  13.2500 Du        
  29557 ****        15.0000  12.2500  13.5000 Du        
  29558 ****        15.0000  12.5000   9.2500 Du        
  29559 ****        15.0000  12.5000   9.5000 Du        
  29560 ****        15.0000  12.5000   9.7500 Du        
  29561 ****        15.0000  12.5000  10.0000 Du        
  29562 ****        15.0000  12.5000  10.2500 Du        
  29563 ****        15.0000  12.5000  10.5000 Du        
  29564 ****        15.0000  12.5000  10.7500 Du        
  29565 ****        15.0000  12.5000  11.0000 Du        
  29566 ****        15.0000  12.5000  11.2500 Du        
  29567 ****        15.0000  12.5000  11.5000 Du        
  29568 ****        15.0000  12.5000  11.7500 Du        
  29569 ****        15.0000  12.5000  12.0000 Du        
  29570 ****        15.0000  12.5000  12.2500 Du        
  29571 ****        15.0000  12.5000  12.5000 Du        
  29572 ****        15.0000  12.5000  12.7500 Du        
  29573 ****        15.0000  12.5000  13.0000 Du        
  29574 ****        15.0000  12.5000  13.2500 Du        
  29575 ****        15.0000  12.5000  13.5000 Du        
  29576 ****        15.0000  12.5000  13.7500 Du        
  29577 ****        15.0000  12.5000  14.0000 Du        
  29578 ****        15.0000  12.7500   9.5000 Du        
  29579 ****        15.0000  12.7500   9.7500 Du        
  29580 ****        15.0000  12.7500  10.0000 Du        
  29581 ****        15.0000  12.7500  10.2500 Du        
  29582 ****        15.0000  12.7500  10.5000 Du        
  29583 ****        15.0000  12.7500  10.7500 Du        
  29584 ****        15.0000  12.7500  11.0000 Du        
  29585 ****        15.0000  12.7500  11.2500 Du        
  29586 ****        15.0000  12.7500  11.5000 Du        
  29587 ****        15.0000  12.7500  11.7500 Du        
  29588 ****        15.0000  12.7500  12.0000 Du        
  29589 ****        15.0000  12.7500  12.2500 Du        
  29590 ****        15.0000  12.7500  12.5000 Du        
  29591 ****        15.0000  12.7500  12.7500 Du        
  29592 ****        15.0000  12.7500  13.0000 Du        
  29593 ****        15.0000  12.7500  13.2500 Du        
  29594 ****        15.0000  12.7500  13.5000 Du        
  29595 ****        15.0000  12.7500  13.7500 Du        
  29596 ****        15.0000  12.7500  14.0000 Du        
  29597 ****        15.0000  12.7500  14.2500 Du        
  29598 ****        15.0000  13.0000  10.0000 Du        
  29599 ****        15.0000  13.0000  10.2500 Du        
  29600 ****        15.0000  13.0000  10.7500 Du        
  29601 ****        15.0000  13.0000  11.0000 Du        
  29602 ****        15.0000  13.0000  11.2500 Du        
  29603 ****        15.0000  13.0000  11.5000 Du        
  29604 ****        15.0000  13.0000  11.7500 Du        
  29605 ****        15.0000  13.0000  12.0000 Du        
  29606 ****        15.0000  13.0000  12.2500 Du        
  29607 ****        15.0000  13.0000  12.5000 Du        
  29608 ****        15.0000  13.0000  12.7500 Du        
  29609 ****        15.0000  13.0000  13.0000 Du        
  29610 ****        15.0000  13.0000  13.2500 Du        
  29611 ****        15.0000  13.0000  13.5000 Du        
  29612 ****        15.0000  13.0000  13.7500 Du        
  29613 ****        15.0000  13.0000  14.0000 Du        
  29614 ****        15.0000  13.0000  14.2500 Du        
  29615 ****        15.0000  13.0000  14.5000 Du        
  29616 ****        15.0000  13.0000  14.7500 Du        
  29617 ****        15.0000  13.0000  15.0000 Du        
  29618 ****        15.0000  13.2500  11.0000 Du        
  29619 ****        15.0000  13.2500  11.2500 Du        
  29620 ****        15.0000  13.2500  11.5000 Du        
  29621 ****        15.0000  13.2500  11.7500 Du        
  29622 ****        15.0000  13.2500  12.0000 Du        
  29623 ****        15.0000  13.2500  12.2500 Du        
  29624 ****        15.0000  13.2500  12.5000 Du        
  29625 ****        15.0000  13.2500  12.7500 Du        
  29626 ****        15.0000  13.2500  13.0000 Du        
  29627 ****        15.0000  13.2500  13.2500 Du        
  29628 ****        15.0000  13.2500  13.5000 Du        
  29629 ****        15.0000  13.2500  13.7500 Du        
  29630 ****        15.0000  13.2500  14.0000 Du        
  29631 ****        15.0000  13.2500  14.2500 Du        
  29632 ****        15.0000  13.2500  14.5000 Du        
  29633 ****        15.0000  13.2500  14.7500 Du        
  29634 ****        15.0000  13.2500  15.0000 Du        
  29635 ****        15.0000  13.5000  11.2500 Du        
  29636 ****        15.0000  13.5000  11.5000 Du        
  29637 ****        15.0000  13.5000  11.7500 Du        
  29638 ****        15.0000  13.5000  12.0000 Du        
  29639 ****        15.0000  13.5000  12.2500 Du        
  29640 ****        15.0000  13.5000  12.5000 Du        
  29641 ****        15.0000  13.5000  12.7500 Du        
  29642 ****        15.0000  13.5000  13.0000 Du        
  29643 ****        15.0000  13.5000  13.2500 Du        
  29644 ****        15.0000  13.5000  13.5000 Du        
  29645 ****        15.0000  13.5000  13.7500 Du        
  29646 ****        15.0000  13.5000  14.0000 Du        
  29647 ****        15.0000  13.5000  14.2500 Du        
  29648 ****        15.0000  13.5000  14.5000 Du        
  29649 ****        15.0000  13.5000  14.7500 Du        
  29650 ****        15.0000  13.5000  15.0000 Du        
  29651 ****        15.0000  13.5000  15.2500 Du        
  29652 ****        15.0000  13.7500  11.2500 Du        
  29653 ****        15.0000  13.7500  11.5000 Du        
  29654 ****        15.0000  13.7500  11.7500 Du        
  29655 ****        15.0000  13.7500  12.0000 Du        
  29656 ****        15.0000  13.7500  12.2500 Du        
  29657 ****        15.0000  13.7500  12.5000 Du        
  29658 ****        15.0000  13.7500  12.7500 Du        
  29659 ****        15.0000  13.7500  13.0000 Du        
  29660 ****        15.0000  13.7500  13.2500 Du        
  29661 ****        15.0000  13.7500  13.5000 Du        
  29662 ****        15.0000  13.7500  13.7500 Du        
  29663 ****        15.0000  13.7500  14.0000 Du        
  29664 ****        15.0000  13.7500  14.2500 Du        
  29665 ****        15.0000  13.7500  14.5000 Du        
  29666 ****        15.0000  13.7500  14.7500 Du        
  29667 ****        15.0000  13.7500  15.0000 Du        
  29668 ****        15.0000  13.7500  15.2500 Du        
  29669 ****        15.0000  14.0000  11.0000 Du        
  29670 ****        15.0000  14.0000  11.2500 Du        
  29671 ****        15.0000  14.0000  11.5000 Du        
  29672 ****        15.0000  14.0000  11.7500 Du        
  29673 ****        15.0000  14.0000  12.0000 Du        
  29674 ****        15.0000  14.0000  12.2500 Du        
  29675 ****        15.0000  14.0000  12.5000 Du        
  29676 ****        15.0000  14.0000  12.7500 Du        
  29677 ****        15.0000  14.0000  13.0000 Du        
  29678 ****        15.0000  14.0000  13.2500 Du        
  29679 ****        15.0000  14.0000  13.5000 Du        
  29680 ****        15.0000  14.0000  13.7500 Du        
  29681 ****        15.0000  14.0000  14.0000 Du        
  29682 ****        15.0000  14.0000  14.2500 Du        
  29683 ****        15.0000  14.0000  14.5000 Du        
  29684 ****        15.0000  14.0000  14.7500 Du        
  29685 ****        15.0000  14.0000  15.0000 Du        
  29686 ****        15.0000  14.0000  15.2500 Du        
  29687 ****        15.0000  14.0000  15.5000 Du        
  29688 ****        15.0000  14.2500  11.0000 Du        
  29689 ****        15.0000  14.2500  11.2500 Du        
  29690 ****        15.0000  14.2500  11.5000 Du        
  29691 ****        15.0000  14.2500  11.7500 Du        
  29692 ****        15.0000  14.2500  12.0000 Du        
  29693 ****        15.0000  14.2500  12.2500 Du        
  29694 ****        15.0000  14.2500  12.5000 Du        
  29695 ****        15.0000  14.2500  12.7500 Du        
  29696 ****        15.0000  14.2500  13.0000 Du        
  29697 ****        15.0000  14.2500  13.2500 Du        
  29698 ****        15.0000  14.2500  13.5000 Du        
  29699 ****        15.0000  14.2500  13.7500 Du        
  29700 ****        15.0000  14.2500  14.0000 Du        
  29701 ****        15.0000  14.2500  14.2500 Du        
  29702 ****        15.0000  14.2500  14.5000 Du        
  29703 ****        15.0000  14.2500  14.7500 Du        
  29704 ****        15.0000  14.2500  15.0000 Du        
  29705 ****        15.0000  14.2500  15.2500 Du        
  29706 ****        15.0000  14.2500  15.5000 Du        
  29707 ****        15.0000  14.5000  12.2500 Du        
  29708 ****        15.0000  14.5000  12.7500 Du        
  29709 ****        15.0000  14.5000  13.0000 Du        
  29710 ****        15.0000  14.5000  13.2500 Du        
  29711 ****        15.0000  14.5000  13.5000 Du        
  29712 ****        15.0000  14.5000  13.7500 Du        
  29713 ****        15.0000  14.5000  14.0000 Du        
  29714 ****        15.0000  14.5000  14.2500 Du        
  29715 ****        15.0000  14.5000  14.5000 Du        
  29716 ****        15.0000  14.5000  14.7500 Du        
  29717 ****        15.0000  14.5000  15.0000 Du        
  29718 ****        15.0000  14.5000  15.2500 Du        
  29719 ****        15.0000  14.5000  15.5000 Du        
  29720 ****        15.0000  14.7500  12.0000 Du        
  29721 ****        15.0000  14.7500  12.2500 Du        
  29722 ****        15.0000  14.7500  12.5000 Du        
  29723 ****        15.0000  14.7500  12.7500 Du        
  29724 ****        15.0000  14.7500  13.0000 Du        
  29725 ****        15.0000  14.7500  13.2500 Du        
  29726 ****        15.0000  14.7500  13.5000 Du        
  29727 ****        15.0000  14.7500  13.7500 Du        
  29728 ****        15.0000  14.7500  14.0000 Du        
  29729 ****        15.0000  14.7500  14.2500 Du        
  29730 ****        15.0000  14.7500  14.5000 Du        
  29731 ****        15.0000  14.7500  14.7500 Du        
  29732 ****        15.0000  14.7500  15.0000 Du        
  29733 ****        15.0000  14.7500  15.2500 Du        
  29734 ****        15.0000  14.7500  15.5000 Du        
  29735 ****        15.0000  14.7500  15.7500 Du        
  29736 ****        15.0000  15.0000  11.7500 Du        
  29737 ****        15.0000  15.0000  12.0000 Du        
  29738 ****        15.0000  15.0000  12.2500 Du        
  29739 ****        15.0000  15.0000  12.5000 Du        
  29740 ****        15.0000  15.0000  12.7500 Du        
  29741 ****        15.0000  15.0000  13.0000 Du        
  29742 ****        15.0000  15.0000  13.2500 Du        
  29743 ****        15.0000  15.0000  13.5000 Du        
  29744 ****        15.0000  15.0000  13.7500 Du        
  29745 ****        15.0000  15.0000  14.0000 Du        
  29746 ****        15.0000  15.0000  14.2500 Du        
  29747 ****        15.0000  15.0000  14.5000 Du        
  29748 ****        15.0000  15.0000  14.7500 Du        
  29749 ****        15.0000  15.0000  15.0000 Du        
  29750 ****        15.0000  15.0000  15.2500 Du        
  29751 ****        15.0000  15.0000  15.5000 Du        
  29752 ****        15.0000  15.0000  15.7500 Du        
  29753 ****        15.0000  15.2500  11.7500 Du        
  29754 ****        15.0000  15.2500  12.0000 Du        
  29755 ****        15.0000  15.2500  12.2500 Du        
  29756 ****        15.0000  15.2500  12.5000 Du        
  29757 ****        15.0000  15.2500  12.7500 Du        
  29758 ****        15.0000  15.2500  13.0000 Du        
  29759 ****        15.0000  15.2500  13.2500 Du        
  29760 ****        15.0000  15.2500  13.5000 Du        
  29761 ****        15.0000  15.2500  13.7500 Du        
  29762 ****        15.0000  15.2500  14.0000 Du        
  29763 ****        15.0000  15.2500  14.2500 Du        
  29764 ****        15.0000  15.2500  14.5000 Du        
  29765 ****        15.0000  15.2500  14.7500 Du        
  29766 ****        15.0000  15.2500  15.0000 Du        
  29767 ****        15.0000  15.2500  15.2500 Du        
  29768 ****        15.0000  15.2500  15.5000 Du        
  29769 ****        15.0000  15.2500  15.7500 Du        
  29770 ****        15.0000  15.5000  12.0000 Du        
  29771 ****        15.0000  15.5000  12.2500 Du        
  29772 ****        15.0000  15.5000  12.5000 Du        
  29773 ****        15.0000  15.5000  12.7500 Du        
  29774 ****        15.0000  15.5000  13.0000 Du        
  29775 ****        15.0000  15.5000  13.2500 Du        
  29776 ****        15.0000  15.5000  13.5000 Du        
  29777 ****        15.0000  15.5000  13.7500 Du        
  29778 ****        15.0000  15.5000  14.0000 Du        
  29779 ****        15.0000  15.5000  14.2500 Du        
  29780 ****        15.0000  15.5000  14.5000 Du        
  29781 ****        15.0000  15.5000  14.7500 Du        
  29782 ****        15.0000  15.5000  15.0000 Du        
  29783 ****        15.0000  15.5000  15.2500 Du        
  29784 ****        15.0000  15.5000  15.5000 Du        
  29785 ****        15.0000  15.5000  15.7500 Du        
  29786 ****        15.0000  15.7500  12.2500 Du        
  29787 ****        15.0000  15.7500  12.5000 Du        
  29788 ****        15.0000  15.7500  12.7500 Du        
  29789 ****        15.0000  15.7500  13.0000 Du        
  29790 ****        15.0000  15.7500  13.2500 Du        
  29791 ****        15.0000  15.7500  13.5000 Du        
  29792 ****        15.0000  15.7500  13.7500 Du        
  29793 ****        15.0000  15.7500  14.0000 Du        
  29794 ****        15.0000  15.7500  14.2500 Du        
  29795 ****        15.0000  15.7500  14.5000 Du        
  29796 ****        15.0000  15.7500  14.7500 Du        
  29797 ****        15.0000  15.7500  15.0000 Du        
  29798 ****        15.0000  15.7500  15.2500 Du        
  29799 ****        15.0000  15.7500  15.5000 Du        
  29800 ****        15.0000  15.7500  15.7500 Du        
  29801 ****        15.0000  15.7500  38.0000 Du        
  29802 ****        15.0000  16.0000  13.0000 Du        
  29803 ****        15.0000  16.0000  13.2500 Du        
  29804 ****        15.0000  16.0000  14.7500 Du        
  29805 ****        15.0000  16.0000  15.0000 Du        
  29806 ****        15.0000  16.0000  15.2500 Du        
  29807 ****        15.0000  16.0000  15.5000 Du        
  29808 ****        15.0000  16.0000  15.7500 Du        
  29809 ****        15.0000  16.0000  38.0000 Du        
  29810 ****        15.0000  19.2500  31.7500 Du        
  29811 ****        15.0000  19.2500  32.0000 Du        
  29812 ****        15.0000  19.2500  32.2500 Du        
  29813 ****        15.0000  19.2500  32.5000 Du        
  29814 ****        15.0000  19.2500  32.7500 Du        
  29815 ****        15.0000  19.2500  33.0000 Du        
  29816 ****        15.0000  19.5000  31.5000 Du        
  29817 ****        15.0000  19.5000  31.7500 Du        
  29818 ****        15.0000  19.5000  32.0000 Du        
  29819 ****        15.0000  19.5000  32.2500 Du        
  29820 ****        15.0000  19.5000  32.5000 Du        
  29821 ****        15.0000  19.5000  32.7500 Du        
  29822 ****        15.0000  19.5000  33.0000 Du        
  29823 ****        15.0000  19.5000  33.2500 Du        
  29824 ****        15.0000  19.5000  33.5000 Du        
  29825 ****        15.0000  19.5000  33.7500 Du        
  29826 ****        15.0000  19.5000  34.0000 Du        
  29827 ****        15.0000  19.5000  34.2500 Du        
  29828 ****        15.0000  19.5000  34.5000 Du        
  29829 ****        15.0000  19.5000  34.7500 Du        
  29830 ****        15.0000  19.5000  35.0000 Du        
  29831 ****        15.0000  19.7500  31.5000 Du        
  29832 ****        15.0000  19.7500  31.7500 Du        
  29833 ****        15.0000  19.7500  32.0000 Du        
  29834 ****        15.0000  19.7500  32.2500 Du        
  29835 ****        15.0000  19.7500  32.5000 Du        
  29836 ****        15.0000  19.7500  32.7500 Du        
  29837 ****        15.0000  19.7500  33.0000 Du        
  29838 ****        15.0000  19.7500  33.2500 Du        
  29839 ****        15.0000  19.7500  33.5000 Du        
  29840 ****        15.0000  19.7500  33.7500 Du        
  29841 ****        15.0000  19.7500  34.0000 Du        
  29842 ****        15.0000  19.7500  34.2500 Du        
  29843 ****        15.0000  19.7500  34.5000 Du        
  29844 ****        15.0000  19.7500  34.7500 Du        
  29845 ****        15.0000  19.7500  35.0000 Du        
  29846 ****        15.0000  19.7500  35.2500 Du        
  29847 ****        15.0000  20.0000  31.5000 Du        
  29848 ****        15.0000  20.0000  31.7500 Du        
  29849 ****        15.0000  20.0000  32.0000 Du        
  29850 ****        15.0000  20.0000  32.2500 Du        
  29851 ****        15.0000  20.0000  32.5000 Du        
  29852 ****        15.0000  20.0000  32.7500 Du        
  29853 ****        15.0000  20.0000  33.0000 Du        
  29854 ****        15.0000  20.0000  33.2500 Du        
  29855 ****        15.0000  20.0000  33.5000 Du        
  29856 ****        15.0000  20.0000  33.7500 Du        
  29857 ****        15.0000  20.0000  34.0000 Du        
  29858 ****        15.0000  20.0000  34.2500 Du        
  29859 ****        15.0000  20.0000  34.5000 Du        
  29860 ****        15.0000  20.0000  34.7500 Du        
  29861 ****        15.0000  20.0000  35.0000 Du        
  29862 ****        15.0000  20.0000  35.2500 Du        
  29863 ****        15.0000  20.2500  31.7500 Du        
  29864 ****        15.0000  20.2500  32.0000 Du        
  29865 ****        15.0000  20.2500  32.2500 Du        
  29866 ****        15.0000  20.2500  32.5000 Du        
  29867 ****        15.0000  20.2500  32.7500 Du        
  29868 ****        15.0000  20.2500  33.0000 Du        
  29869 ****        15.0000  20.2500  33.2500 Du        
  29870 ****        15.0000  20.2500  33.5000 Du        
  29871 ****        15.0000  20.2500  33.7500 Du        
  29872 ****        15.0000  20.2500  34.0000 Du        
  29873 ****        15.0000  20.2500  34.2500 Du        
  29874 ****        15.0000  20.5000  31.7500 Du        
  29875 ****        15.0000  20.5000  32.0000 Du        
  29876 ****        15.0000  20.5000  32.2500 Du        
  29877 ****        15.0000  20.5000  32.5000 Du        
  29878 ****        15.0000  20.5000  32.7500 Du        
  29879 ****        15.0000  20.5000  33.0000 Du        
  29880 ****        15.0000  20.5000  33.2500 Du        
  29881 ****        15.0000  20.7500  32.0000 Du        
  29882 ****        15.0000  20.7500  32.2500 Du        
  29883 ****        15.0000  20.7500  32.5000 Du        
  29884 ****        15.0000  20.7500  32.7500 Du        
  29885 ****        15.2500   1.5000  11.2500 Du        
  29886 ****        15.2500   1.5000  11.5000 Du        
  29887 ****        15.2500   1.5000  11.7500 Du        
  29888 ****        15.2500   1.5000  12.0000 Du        
  29889 ****        15.2500   1.5000  12.2500 Du        
  29890 ****        15.2500   1.7500  11.0000 Du        
  29891 ****        15.2500   1.7500  11.2500 Du        
  29892 ****        15.2500   1.7500  11.5000 Du        
  29893 ****        15.2500   1.7500  11.7500 Du        
  29894 ****        15.2500   1.7500  12.0000 Du        
  29895 ****        15.2500   1.7500  12.2500 Du        
  29896 ****        15.2500   1.7500  12.5000 Du        
  29897 ****        15.2500   1.7500  12.7500 Du        
  29898 ****        15.2500   1.7500  13.0000 Du        
  29899 ****        15.2500   1.7500  13.2500 Du        
  29900 ****        15.2500   2.0000  11.0000 Du        
  29901 ****        15.2500   2.0000  11.2500 Du        
  29902 ****        15.2500   2.0000  11.5000 Du        
  29903 ****        15.2500   2.0000  11.7500 Du        
  29904 ****        15.2500   2.0000  12.0000 Du        
  29905 ****        15.2500   2.0000  12.2500 Du        
  29906 ****        15.2500   2.0000  12.5000 Du        
  29907 ****        15.2500   2.0000  12.7500 Du        
  29908 ****        15.2500   2.0000  13.0000 Du        
  29909 ****        15.2500   2.0000  13.2500 Du        
  29910 ****        15.2500   2.2500  11.2500 Du        
  29911 ****        15.2500   2.2500  11.5000 Du        
  29912 ****        15.2500   2.2500  11.7500 Du        
  29913 ****        15.2500   2.2500  12.0000 Du        
  29914 ****        15.2500   2.2500  12.2500 Du        
  29915 ****        15.2500   2.2500  12.5000 Du        
  29916 ****        15.2500   2.2500  12.7500 Du        
  29917 ****        15.2500   2.2500  13.0000 Du        
  29918 ****        15.2500   2.2500  13.2500 Du        
  29919 ****        15.2500   2.5000  11.7500 Du        
  29920 ****        15.2500   2.5000  12.0000 Du        
  29921 ****        15.2500   2.5000  12.2500 Du        
  29922 ****        15.2500   2.5000  12.5000 Du        
  29923 ****        15.2500   2.7500  20.0000 Du        
  29924 ****        15.2500   3.0000  19.2500 Du        
  29925 ****        15.2500   3.0000  19.5000 Du        
  29926 ****        15.2500   3.0000  19.7500 Du        
  29927 ****        15.2500   3.0000  20.0000 Du        
  29928 ****        15.2500   3.2500  19.0000 Du        
  29929 ****        15.2500   3.2500  19.2500 Du        
  29930 ****        15.2500   3.2500  19.5000 Du        
  29931 ****        15.2500   3.2500  19.7500 Du        
  29932 ****        15.2500   3.2500  20.0000 Du        
  29933 ****        15.2500   3.5000  18.7500 Du        
  29934 ****        15.2500   3.5000  19.0000 Du        
  29935 ****        15.2500   3.5000  19.2500 Du        
  29936 ****        15.2500   3.5000  19.5000 Du        
  29937 ****        15.2500   3.5000  19.7500 Du        
  29938 ****        15.2500   3.5000  20.0000 Du        
  29939 ****        15.2500   3.7500   5.7500 Du        
  29940 ****        15.2500   3.7500   6.0000 Du        
  29941 ****        15.2500   3.7500  18.7500 Du        
  29942 ****        15.2500   3.7500  19.0000 Du        
  29943 ****        15.2500   3.7500  19.2500 Du        
  29944 ****        15.2500   3.7500  19.5000 Du        
  29945 ****        15.2500   3.7500  19.7500 Du        
  29946 ****        15.2500   3.7500  20.0000 Du        
  29947 ****        15.2500   4.0000   5.5000 Du        
  29948 ****        15.2500   4.0000   5.7500 Du        
  29949 ****        15.2500   4.0000   6.0000 Du        
  29950 ****        15.2500   4.0000   6.2500 Du        
  29951 ****        15.2500   4.0000  19.0000 Du        
  29952 ****        15.2500   4.0000  19.2500 Du        
  29953 ****        15.2500   4.0000  19.5000 Du        
  29954 ****        15.2500   4.0000  19.7500 Du        
  29955 ****        15.2500   4.0000  20.0000 Du        
  29956 ****        15.2500   4.2500   5.5000 Du        
  29957 ****        15.2500   4.2500   5.7500 Du        
  29958 ****        15.2500   4.2500   6.0000 Du        
  29959 ****        15.2500   4.2500  19.0000 Du        
  29960 ****        15.2500   4.2500  19.2500 Du        
  29961 ****        15.2500   4.2500  19.5000 Du        
  29962 ****        15.2500   4.2500  19.7500 Du        
  29963 ****        15.2500   4.2500  20.0000 Du        
  29964 ****        15.2500   4.5000   5.5000 Du        
  29965 ****        15.2500   4.5000   5.7500 Du        
  29966 ****        15.2500   4.5000   6.0000 Du        
  29967 ****        15.2500   4.5000  19.2500 Du        
  29968 ****        15.2500   4.5000  19.5000 Du        
  29969 ****        15.2500   4.5000  19.7500 Du        
  29970 ****        15.2500   4.5000  20.0000 Du        
  29971 ****        15.2500   4.7500   5.5000 Du        
  29972 ****        15.2500   4.7500   5.7500 Du        
  29973 ****        15.2500   4.7500   6.0000 Du        
  29974 ****        15.2500   4.7500  19.5000 Du        
  29975 ****        15.2500   4.7500  19.7500 Du        
  29976 ****        15.2500   4.7500  20.0000 Du        
  29977 ****        15.2500   5.0000   5.5000 Du        
  29978 ****        15.2500   5.0000   5.7500 Du        
  29979 ****        15.2500   5.0000   6.0000 Du        
  29980 ****        15.2500   5.0000  19.5000 Du        
  29981 ****        15.2500   5.0000  19.7500 Du        
  29982 ****        15.2500   5.2500   5.5000 Du        
  29983 ****        15.2500   5.2500   5.7500 Du        
  29984 ****        15.2500   5.2500   6.0000 Du        
  29985 ****        15.2500   5.5000   5.2500 Du        
  29986 ****        15.2500   5.5000   5.5000 Du        
  29987 ****        15.2500   5.5000   5.7500 Du        
  29988 ****        15.2500   5.5000   6.0000 Du        
  29989 ****        15.2500   5.7500   5.0000 Du        
  29990 ****        15.2500   5.7500   5.2500 Du        
  29991 ****        15.2500   5.7500   5.5000 Du        
  29992 ****        15.2500   5.7500   5.7500 Du        
  29993 ****        15.2500   5.7500   6.0000 Du        
  29994 ****        15.2500   6.0000   4.7500 Du        
  29995 ****        15.2500   6.0000   5.0000 Du        
  29996 ****        15.2500   6.0000   5.2500 Du        
  29997 ****        15.2500   6.0000   5.5000 Du        
  29998 ****        15.2500   6.0000   5.7500 Du        
  29999 ****        15.2500   6.0000   6.0000 Du        
  30000 ****        15.2500   6.2500   4.5000 Du        
  30001 ****        15.2500   6.2500   4.7500 Du        
  30002 ****        15.2500   6.2500   5.0000 Du        
  30003 ****        15.2500   6.2500   5.2500 Du        
  30004 ****        15.2500   6.2500   5.5000 Du        
  30005 ****        15.2500   6.2500   5.7500 Du        
  30006 ****        15.2500   6.2500   6.0000 Du        
  30007 ****        15.2500   6.5000   4.0000 Du        
  30008 ****        15.2500   6.5000   4.2500 Du        
  30009 ****        15.2500   6.5000   4.5000 Du        
  30010 ****        15.2500   6.5000   4.7500 Du        
  30011 ****        15.2500   6.5000   5.0000 Du        
  30012 ****        15.2500   6.5000   5.2500 Du        
  30013 ****        15.2500   6.5000   5.5000 Du        
  30014 ****        15.2500   6.5000   5.7500 Du        
  30015 ****        15.2500   6.7500   3.7500 Du        
  30016 ****        15.2500   6.7500   4.0000 Du        
  30017 ****        15.2500   6.7500   4.2500 Du        
  30018 ****        15.2500   6.7500   4.5000 Du        
  30019 ****        15.2500   6.7500   4.7500 Du        
  30020 ****        15.2500   6.7500   5.0000 Du        
  30021 ****        15.2500   6.7500   5.2500 Du        
  30022 ****        15.2500   6.7500   5.5000 Du        
  30023 ****        15.2500   7.0000   3.5000 Du        
  30024 ****        15.2500   7.0000   3.7500 Du        
  30025 ****        15.2500   7.0000   4.0000 Du        
  30026 ****        15.2500   7.0000   4.2500 Du        
  30027 ****        15.2500   7.0000   4.5000 Du        
  30028 ****        15.2500   9.2500  36.7500 Du        
  30029 ****        15.2500   9.2500  37.0000 Du        
  30030 ****        15.2500   9.2500  37.2500 Du        
  30031 ****        15.2500   9.5000  36.0000 Du        
  30032 ****        15.2500   9.5000  36.2500 Du        
  30033 ****        15.2500   9.5000  36.5000 Du        
  30034 ****        15.2500   9.5000  36.7500 Du        
  30035 ****        15.2500   9.5000  37.0000 Du        
  30036 ****        15.2500   9.5000  37.2500 Du        
  30037 ****        15.2500   9.5000  37.5000 Du        
  30038 ****        15.2500   9.7500  20.5000 Du        
  30039 ****        15.2500   9.7500  20.7500 Du        
  30040 ****        15.2500   9.7500  21.0000 Du        
  30041 ****        15.2500   9.7500  35.7500 Du        
  30042 ****        15.2500   9.7500  36.0000 Du        
  30043 ****        15.2500   9.7500  36.2500 Du        
  30044 ****        15.2500   9.7500  36.5000 Du        
  30045 ****        15.2500   9.7500  36.7500 Du        
  30046 ****        15.2500   9.7500  37.0000 Du        
  30047 ****        15.2500   9.7500  37.2500 Du        
  30048 ****        15.2500   9.7500  37.5000 Du        
  30049 ****        15.2500   9.7500  37.7500 Du        
  30050 ****        15.2500  10.0000  20.5000 Du        
  30051 ****        15.2500  10.0000  20.7500 Du        
  30052 ****        15.2500  10.0000  21.0000 Du        
  30053 ****        15.2500  10.0000  21.2500 Du        
  30054 ****        15.2500  10.0000  35.7500 Du        
  30055 ****        15.2500  10.0000  36.0000 Du        
  30056 ****        15.2500  10.0000  36.2500 Du        
  30057 ****        15.2500  10.0000  36.5000 Du        
  30058 ****        15.2500  10.0000  36.7500 Du        
  30059 ****        15.2500  10.0000  37.0000 Du        
  30060 ****        15.2500  10.0000  37.2500 Du        
  30061 ****        15.2500  10.0000  37.5000 Du        
  30062 ****        15.2500  10.0000  37.7500 Du        
  30063 ****        15.2500  10.2500  21.0000 Du        
  30064 ****        15.2500  10.2500  21.2500 Du        
  30065 ****        15.2500  10.2500  35.7500 Du        
  30066 ****        15.2500  10.2500  36.0000 Du        
  30067 ****        15.2500  10.2500  36.2500 Du        
  30068 ****        15.2500  10.2500  36.5000 Du        
  30069 ****        15.2500  10.2500  36.7500 Du        
  30070 ****        15.2500  10.2500  37.0000 Du        
  30071 ****        15.2500  10.2500  37.2500 Du        
  30072 ****        15.2500  10.2500  37.5000 Du        
  30073 ****        15.2500  10.5000  35.7500 Du        
  30074 ****        15.2500  10.5000  36.0000 Du        
  30075 ****        15.2500  10.5000  36.2500 Du        
  30076 ****        15.2500  10.5000  36.5000 Du        
  30077 ****        15.2500  10.5000  36.7500 Du        
  30078 ****        15.2500  10.5000  37.0000 Du        
  30079 ****        15.2500  10.5000  37.2500 Du        
  30080 ****        15.2500  10.7500  35.7500 Du        
  30081 ****        15.2500  10.7500  36.0000 Du        
  30082 ****        15.2500  10.7500  36.2500 Du        
  30083 ****        15.2500  10.7500  36.5000 Du        
  30084 ****        15.2500  10.7500  36.7500 Du        
  30085 ****        15.2500  10.7500  37.0000 Du        
  30086 ****        15.2500  11.0000  36.0000 Du        
  30087 ****        15.2500  11.0000  36.2500 Du        
  30088 ****        15.2500  11.0000  36.5000 Du        
  30089 ****        15.2500  11.0000  36.7500 Du        
  30090 ****        15.2500  11.7500  10.7500 Du        
  30091 ****        15.2500  11.7500  11.0000 Du        
  30092 ****        15.2500  11.7500  11.2500 Du        
  30093 ****        15.2500  11.7500  11.5000 Du        
  30094 ****        15.2500  11.7500  11.7500 Du        
  30095 ****        15.2500  11.7500  12.0000 Du        
  30096 ****        15.2500  12.0000   9.7500 Du        
  30097 ****        15.2500  12.0000  10.0000 Du        
  30098 ****        15.2500  12.0000  10.2500 Du        
  30099 ****        15.2500  12.0000  10.7500 Du        
  30100 ****        15.2500  12.0000  11.0000 Du        
  30101 ****        15.2500  12.0000  11.2500 Du        
  30102 ****        15.2500  12.0000  11.5000 Du        
  30103 ****        15.2500  12.0000  11.7500 Du        
  30104 ****        15.2500  12.0000  12.0000 Du        
  30105 ****        15.2500  12.0000  12.2500 Du        
  30106 ****        15.2500  12.0000  12.5000 Du        
  30107 ****        15.2500  12.0000  12.7500 Du        
  30108 ****        15.2500  12.2500   9.5000 Du        
  30109 ****        15.2500  12.2500  11.2500 Du        
  30110 ****        15.2500  12.2500  11.5000 Du        
  30111 ****        15.2500  12.2500  11.7500 Du        
  30112 ****        15.2500  12.2500  12.0000 Du        
  30113 ****        15.2500  12.2500  12.2500 Du        
  30114 ****        15.2500  12.2500  12.5000 Du        
  30115 ****        15.2500  12.2500  12.7500 Du        
  30116 ****        15.2500  12.2500  13.0000 Du        
  30117 ****        15.2500  12.5000  11.5000 Du        
  30118 ****        15.2500  12.5000  11.7500 Du        
  30119 ****        15.2500  12.5000  12.0000 Du        
  30120 ****        15.2500  12.5000  12.2500 Du        
  30121 ****        15.2500  12.5000  12.5000 Du        
  30122 ****        15.2500  12.5000  12.7500 Du        
  30123 ****        15.2500  12.5000  13.0000 Du        
  30124 ****        15.2500  12.5000  13.2500 Du        
  30125 ****        15.2500  12.7500  11.7500 Du        
  30126 ****        15.2500  12.7500  12.0000 Du        
  30127 ****        15.2500  12.7500  12.2500 Du        
  30128 ****        15.2500  12.7500  12.5000 Du        
  30129 ****        15.2500  12.7500  12.7500 Du        
  30130 ****        15.2500  12.7500  13.0000 Du        
  30131 ****        15.2500  12.7500  13.2500 Du        
  30132 ****        15.2500  12.7500  13.5000 Du        
  30133 ****        15.2500  12.7500  13.7500 Du        
  30134 ****        15.2500  12.7500  14.0000 Du        
  30135 ****        15.2500  13.0000  12.0000 Du        
  30136 ****        15.2500  13.0000  12.2500 Du        
  30137 ****        15.2500  13.0000  12.5000 Du        
  30138 ****        15.2500  13.0000  12.7500 Du        
  30139 ****        15.2500  13.0000  13.0000 Du        
  30140 ****        15.2500  13.0000  13.2500 Du        
  30141 ****        15.2500  13.0000  13.5000 Du        
  30142 ****        15.2500  13.0000  13.7500 Du        
  30143 ****        15.2500  13.0000  14.0000 Du        
  30144 ****        15.2500  13.0000  14.2500 Du        
  30145 ****        15.2500  13.0000  14.5000 Du        
  30146 ****        15.2500  13.0000  14.7500 Du        
  30147 ****        15.2500  13.0000  15.0000 Du        
  30148 ****        15.2500  13.2500  12.0000 Du        
  30149 ****        15.2500  13.2500  12.2500 Du        
  30150 ****        15.2500  13.2500  12.5000 Du        
  30151 ****        15.2500  13.2500  12.7500 Du        
  30152 ****        15.2500  13.2500  13.0000 Du        
  30153 ****        15.2500  13.2500  13.2500 Du        
  30154 ****        15.2500  13.2500  13.5000 Du        
  30155 ****        15.2500  13.2500  13.7500 Du        
  30156 ****        15.2500  13.2500  14.0000 Du        
  30157 ****        15.2500  13.2500  14.2500 Du        
  30158 ****        15.2500  13.2500  14.5000 Du        
  30159 ****        15.2500  13.2500  14.7500 Du        
  30160 ****        15.2500  13.2500  15.0000 Du        
  30161 ****        15.2500  13.5000  12.2500 Du        
  30162 ****        15.2500  13.5000  12.5000 Du        
  30163 ****        15.2500  13.5000  12.7500 Du        
  30164 ****        15.2500  13.5000  13.0000 Du        
  30165 ****        15.2500  13.5000  13.2500 Du        
  30166 ****        15.2500  13.5000  13.5000 Du        
  30167 ****        15.2500  13.5000  13.7500 Du        
  30168 ****        15.2500  13.5000  14.0000 Du        
  30169 ****        15.2500  13.5000  14.2500 Du        
  30170 ****        15.2500  13.5000  14.5000 Du        
  30171 ****        15.2500  13.5000  14.7500 Du        
  30172 ****        15.2500  13.5000  15.0000 Du        
  30173 ****        15.2500  13.5000  15.2500 Du        
  30174 ****        15.2500  13.7500  12.5000 Du        
  30175 ****        15.2500  13.7500  12.7500 Du        
  30176 ****        15.2500  13.7500  13.0000 Du        
  30177 ****        15.2500  13.7500  13.2500 Du        
  30178 ****        15.2500  13.7500  13.5000 Du        
  30179 ****        15.2500  13.7500  13.7500 Du        
  30180 ****        15.2500  13.7500  14.0000 Du        
  30181 ****        15.2500  13.7500  14.2500 Du        
  30182 ****        15.2500  13.7500  14.5000 Du        
  30183 ****        15.2500  13.7500  14.7500 Du        
  30184 ****        15.2500  13.7500  15.0000 Du        
  30185 ****        15.2500  13.7500  15.2500 Du        
  30186 ****        15.2500  14.0000  12.2500 Du        
  30187 ****        15.2500  14.0000  12.5000 Du        
  30188 ****        15.2500  14.0000  12.7500 Du        
  30189 ****        15.2500  14.0000  13.0000 Du        
  30190 ****        15.2500  14.0000  13.2500 Du        
  30191 ****        15.2500  14.0000  13.5000 Du        
  30192 ****        15.2500  14.0000  13.7500 Du        
  30193 ****        15.2500  14.0000  14.0000 Du        
  30194 ****        15.2500  14.0000  14.2500 Du        
  30195 ****        15.2500  14.0000  14.5000 Du        
  30196 ****        15.2500  14.0000  14.7500 Du        
  30197 ****        15.2500  14.0000  15.0000 Du        
  30198 ****        15.2500  14.0000  15.2500 Du        
  30199 ****        15.2500  14.0000  15.5000 Du        
  30200 ****        15.2500  14.2500  12.2500 Du        
  30201 ****        15.2500  14.2500  12.7500 Du        
  30202 ****        15.2500  14.2500  13.0000 Du        
  30203 ****        15.2500  14.2500  13.2500 Du        
  30204 ****        15.2500  14.2500  13.5000 Du        
  30205 ****        15.2500  14.2500  13.7500 Du        
  30206 ****        15.2500  14.2500  14.0000 Du        
  30207 ****        15.2500  14.2500  14.2500 Du        
  30208 ****        15.2500  14.2500  14.5000 Du        
  30209 ****        15.2500  14.2500  14.7500 Du        
  30210 ****        15.2500  14.2500  15.0000 Du        
  30211 ****        15.2500  14.2500  15.2500 Du        
  30212 ****        15.2500  14.2500  15.5000 Du        
  30213 ****        15.2500  14.5000  13.2500 Du        
  30214 ****        15.2500  14.5000  13.5000 Du        
  30215 ****        15.2500  14.5000  13.7500 Du        
  30216 ****        15.2500  14.5000  14.0000 Du        
  30217 ****        15.2500  14.5000  14.2500 Du        
  30218 ****        15.2500  14.5000  14.5000 Du        
  30219 ****        15.2500  14.5000  14.7500 Du        
  30220 ****        15.2500  14.5000  15.0000 Du        
  30221 ****        15.2500  14.5000  15.2500 Du        
  30222 ****        15.2500  14.5000  15.5000 Du        
  30223 ****        15.2500  14.5000  15.7500 Du        
  30224 ****        15.2500  14.7500  12.7500 Du        
  30225 ****        15.2500  14.7500  13.0000 Du        
  30226 ****        15.2500  14.7500  13.2500 Du        
  30227 ****        15.2500  14.7500  13.5000 Du        
  30228 ****        15.2500  14.7500  13.7500 Du        
  30229 ****        15.2500  14.7500  14.0000 Du        
  30230 ****        15.2500  14.7500  14.2500 Du        
  30231 ****        15.2500  14.7500  14.5000 Du        
  30232 ****        15.2500  14.7500  14.7500 Du        
  30233 ****        15.2500  14.7500  15.0000 Du        
  30234 ****        15.2500  14.7500  15.2500 Du        
  30235 ****        15.2500  14.7500  15.5000 Du        
  30236 ****        15.2500  14.7500  15.7500 Du        
  30237 ****        15.2500  15.0000  12.2500 Du        
  30238 ****        15.2500  15.0000  12.5000 Du        
  30239 ****        15.2500  15.0000  12.7500 Du        
  30240 ****        15.2500  15.0000  13.0000 Du        
  30241 ****        15.2500  15.0000  13.2500 Du        
  30242 ****        15.2500  15.0000  13.5000 Du        
  30243 ****        15.2500  15.0000  13.7500 Du        
  30244 ****        15.2500  15.0000  14.0000 Du        
  30245 ****        15.2500  15.0000  14.2500 Du        
  30246 ****        15.2500  15.0000  14.5000 Du        
  30247 ****        15.2500  15.0000  14.7500 Du        
  30248 ****        15.2500  15.0000  15.0000 Du        
  30249 ****        15.2500  15.0000  15.2500 Du        
  30250 ****        15.2500  15.0000  15.5000 Du        
  30251 ****        15.2500  15.0000  15.7500 Du        
  30252 ****        15.2500  15.2500  12.0000 Du        
  30253 ****        15.2500  15.2500  12.2500 Du        
  30254 ****        15.2500  15.2500  12.5000 Du        
  30255 ****        15.2500  15.2500  12.7500 Du        
  30256 ****        15.2500  15.2500  13.0000 Du        
  30257 ****        15.2500  15.2500  13.2500 Du        
  30258 ****        15.2500  15.2500  13.5000 Du        
  30259 ****        15.2500  15.2500  13.7500 Du        
  30260 ****        15.2500  15.2500  14.0000 Du        
  30261 ****        15.2500  15.2500  14.2500 Du        
  30262 ****        15.2500  15.2500  14.5000 Du        
  30263 ****        15.2500  15.2500  14.7500 Du        
  30264 ****        15.2500  15.2500  15.0000 Du        
  30265 ****        15.2500  15.2500  15.2500 Du        
  30266 ****        15.2500  15.2500  15.5000 Du        
  30267 ****        15.2500  15.2500  15.7500 Du        
  30268 ****        15.2500  15.2500  38.0000 Du        
  30269 ****        15.2500  15.5000  11.7500 Du        
  30270 ****        15.2500  15.5000  12.0000 Du        
  30271 ****        15.2500  15.5000  12.2500 Du        
  30272 ****        15.2500  15.5000  12.5000 Du        
  30273 ****        15.2500  15.5000  12.7500 Du        
  30274 ****        15.2500  15.5000  13.0000 Du        
  30275 ****        15.2500  15.5000  13.2500 Du        
  30276 ****        15.2500  15.5000  13.5000 Du        
  30277 ****        15.2500  15.5000  13.7500 Du        
  30278 ****        15.2500  15.5000  14.0000 Du        
  30279 ****        15.2500  15.5000  14.2500 Du        
  30280 ****        15.2500  15.5000  14.5000 Du        
  30281 ****        15.2500  15.5000  14.7500 Du        
  30282 ****        15.2500  15.5000  15.0000 Du        
  30283 ****        15.2500  15.5000  15.2500 Du        
  30284 ****        15.2500  15.5000  15.5000 Du        
  30285 ****        15.2500  15.5000  15.7500 Du        
  30286 ****        15.2500  15.7500  11.2500 Du        
  30287 ****        15.2500  15.7500  11.5000 Du        
  30288 ****        15.2500  15.7500  11.7500 Du        
  30289 ****        15.2500  15.7500  12.0000 Du        
  30290 ****        15.2500  15.7500  12.2500 Du        
  30291 ****        15.2500  15.7500  12.5000 Du        
  30292 ****        15.2500  15.7500  12.7500 Du        
  30293 ****        15.2500  15.7500  13.0000 Du        
  30294 ****        15.2500  15.7500  13.2500 Du        
  30295 ****        15.2500  15.7500  13.5000 Du        
  30296 ****        15.2500  15.7500  13.7500 Du        
  30297 ****        15.2500  15.7500  14.0000 Du        
  30298 ****        15.2500  15.7500  14.2500 Du        
  30299 ****        15.2500  15.7500  14.5000 Du        
  30300 ****        15.2500  15.7500  14.7500 Du        
  30301 ****        15.2500  15.7500  15.0000 Du        
  30302 ****        15.2500  15.7500  15.2500 Du        
  30303 ****        15.2500  15.7500  15.5000 Du        
  30304 ****        15.2500  15.7500  15.7500 Du        
  30305 ****        15.2500  16.0000  11.2500 Du        
  30306 ****        15.2500  16.0000  11.5000 Du        
  30307 ****        15.2500  16.0000  11.7500 Du        
  30308 ****        15.2500  16.0000  12.0000 Du        
  30309 ****        15.2500  16.0000  12.2500 Du        
  30310 ****        15.2500  16.0000  12.5000 Du        
  30311 ****        15.2500  16.0000  12.7500 Du        
  30312 ****        15.2500  16.0000  13.0000 Du        
  30313 ****        15.2500  16.0000  13.2500 Du        
  30314 ****        15.2500  16.0000  13.5000 Du        
  30315 ****        15.2500  16.0000  13.7500 Du        
  30316 ****        15.2500  16.0000  14.0000 Du        
  30317 ****        15.2500  16.0000  14.2500 Du        
  30318 ****        15.2500  16.0000  14.5000 Du        
  30319 ****        15.2500  16.0000  14.7500 Du        
  30320 ****        15.2500  16.0000  15.0000 Du        
  30321 ****        15.2500  16.0000  15.2500 Du        
  30322 ****        15.2500  16.0000  15.5000 Du        
  30323 ****        15.2500  16.0000  15.7500 Du        
  30324 ****        15.2500  16.2500  11.2500 Du        
  30325 ****        15.2500  16.2500  11.5000 Du        
  30326 ****        15.2500  16.2500  11.7500 Du        
  30327 ****        15.2500  16.2500  12.0000 Du        
  30328 ****        15.2500  16.2500  15.5000 Du        
  30329 ****        15.2500  18.7500  31.7500 Du        
  30330 ****        15.2500  18.7500  32.0000 Du        
  30331 ****        15.2500  19.0000  31.5000 Du        
  30332 ****        15.2500  19.0000  31.7500 Du        
  30333 ****        15.2500  19.0000  32.0000 Du        
  30334 ****        15.2500  19.0000  32.2500 Du        
  30335 ****        15.2500  19.0000  32.5000 Du        
  30336 ****        15.2500  19.0000  32.7500 Du        
  30337 ****        15.2500  19.2500  31.5000 Du        
  30338 ****        15.2500  19.2500  31.7500 Du        
  30339 ****        15.2500  19.2500  32.0000 Du        
  30340 ****        15.2500  19.2500  32.2500 Du        
  30341 ****        15.2500  19.2500  32.5000 Du        
  30342 ****        15.2500  19.2500  32.7500 Du        
  30343 ****        15.2500  19.2500  33.0000 Du        
  30344 ****        15.2500  19.2500  33.2500 Du        
  30345 ****        15.2500  19.2500  33.5000 Du        
  30346 ****        15.2500  19.5000  31.7500 Du        
  30347 ****        15.2500  19.5000  32.0000 Du        
  30348 ****        15.2500  19.5000  32.2500 Du        
  30349 ****        15.2500  19.5000  32.5000 Du        
  30350 ****        15.2500  19.5000  32.7500 Du        
  30351 ****        15.2500  19.5000  33.0000 Du        
  30352 ****        15.2500  19.5000  33.2500 Du        
  30353 ****        15.2500  19.5000  33.5000 Du        
  30354 ****        15.2500  19.5000  33.7500 Du        
  30355 ****        15.2500  19.5000  34.0000 Du        
  30356 ****        15.2500  19.5000  34.2500 Du        
  30357 ****        15.2500  19.5000  34.5000 Du        
  30358 ****        15.2500  19.5000  34.7500 Du        
  30359 ****        15.2500  19.5000  35.0000 Du        
  30360 ****        15.2500  19.7500  31.7500 Du        
  30361 ****        15.2500  19.7500  32.0000 Du        
  30362 ****        15.2500  19.7500  32.2500 Du        
  30363 ****        15.2500  19.7500  32.5000 Du        
  30364 ****        15.2500  19.7500  32.7500 Du        
  30365 ****        15.2500  19.7500  33.0000 Du        
  30366 ****        15.2500  19.7500  33.2500 Du        
  30367 ****        15.2500  19.7500  33.5000 Du        
  30368 ****        15.2500  19.7500  33.7500 Du        
  30369 ****        15.2500  19.7500  34.0000 Du        
  30370 ****        15.2500  19.7500  34.2500 Du        
  30371 ****        15.2500  19.7500  34.5000 Du        
  30372 ****        15.2500  19.7500  34.7500 Du        
  30373 ****        15.2500  19.7500  35.0000 Du        
  30374 ****        15.2500  19.7500  35.2500 Du        
  30375 ****        15.2500  20.0000  32.0000 Du        
  30376 ****        15.2500  20.0000  32.2500 Du        
  30377 ****        15.2500  20.0000  32.5000 Du        
  30378 ****        15.2500  20.0000  32.7500 Du        
  30379 ****        15.2500  20.0000  33.0000 Du        
  30380 ****        15.2500  20.0000  33.2500 Du        
  30381 ****        15.2500  20.0000  33.5000 Du        
  30382 ****        15.2500  20.0000  33.7500 Du        
  30383 ****        15.2500  20.0000  34.0000 Du        
  30384 ****        15.2500  20.0000  34.2500 Du        
  30385 ****        15.2500  20.0000  34.5000 Du        
  30386 ****        15.2500  20.0000  34.7500 Du        
  30387 ****        15.2500  20.0000  35.0000 Du        
  30388 ****        15.2500  20.0000  35.2500 Du        
  30389 ****        15.2500  20.2500  32.2500 Du        
  30390 ****        15.2500  20.2500  32.5000 Du        
  30391 ****        15.2500  20.2500  32.7500 Du        
  30392 ****        15.2500  20.2500  33.0000 Du        
  30393 ****        15.2500  20.2500  33.2500 Du        
  30394 ****        15.2500  20.2500  33.5000 Du        
  30395 ****        15.2500  20.2500  33.7500 Du        
  30396 ****        15.2500  20.2500  34.0000 Du        
  30397 ****        15.2500  20.2500  34.2500 Du        
  30398 ****        15.2500  20.2500  34.5000 Du        
  30399 ****        15.2500  20.2500  34.7500 Du        
  30400 ****        15.2500  20.5000  32.2500 Du        
  30401 ****        15.2500  20.5000  32.5000 Du        
  30402 ****        15.2500  20.5000  32.7500 Du        
  30403 ****        15.2500  20.5000  33.0000 Du        
  30404 ****        15.2500  20.5000  33.2500 Du        
  30405 ****        15.2500  20.5000  33.5000 Du        
  30406 ****        15.2500  20.5000  33.7500 Du        
  30407 ****        15.2500  20.7500  32.5000 Du        
  30408 ****        15.2500  20.7500  32.7500 Du        
  30409 ****        15.2500  20.7500  33.0000 Du        
  30410 ****        15.5000   1.2500  10.7500 Du        
  30411 ****        15.5000   1.2500  11.0000 Du        
  30412 ****        15.5000   1.2500  11.5000 Du        
  30413 ****        15.5000   1.5000  10.7500 Du        
  30414 ****        15.5000   1.5000  11.0000 Du        
  30415 ****        15.5000   1.5000  11.2500 Du        
  30416 ****        15.5000   1.5000  11.5000 Du        
  30417 ****        15.5000   1.5000  11.7500 Du        
  30418 ****        15.5000   1.5000  12.0000 Du        
  30419 ****        15.5000   1.5000  12.2500 Du        
  30420 ****        15.5000   1.7500  10.7500 Du        
  30421 ****        15.5000   1.7500  11.0000 Du        
  30422 ****        15.5000   1.7500  11.2500 Du        
  30423 ****        15.5000   1.7500  11.5000 Du        
  30424 ****        15.5000   1.7500  11.7500 Du        
  30425 ****        15.5000   1.7500  12.0000 Du        
  30426 ****        15.5000   1.7500  12.2500 Du        
  30427 ****        15.5000   1.7500  12.5000 Du        
  30428 ****        15.5000   1.7500  12.7500 Du        
  30429 ****        15.5000   1.7500  13.0000 Du        
  30430 ****        15.5000   1.7500  13.2500 Du        
  30431 ****        15.5000   2.0000  10.7500 Du        
  30432 ****        15.5000   2.0000  11.0000 Du        
  30433 ****        15.5000   2.0000  11.2500 Du        
  30434 ****        15.5000   2.0000  11.5000 Du        
  30435 ****        15.5000   2.0000  11.7500 Du        
  30436 ****        15.5000   2.0000  12.0000 Du        
  30437 ****        15.5000   2.0000  12.2500 Du        
  30438 ****        15.5000   2.0000  12.5000 Du        
  30439 ****        15.5000   2.0000  12.7500 Du        
  30440 ****        15.5000   2.0000  13.0000 Du        
  30441 ****        15.5000   2.0000  13.2500 Du        
  30442 ****        15.5000   2.0000  13.5000 Du        
  30443 ****        15.5000   2.0000  13.7500 Du        
  30444 ****        15.5000   2.2500  11.2500 Du        
  30445 ****        15.5000   2.2500  11.5000 Du        
  30446 ****        15.5000   2.2500  11.7500 Du        
  30447 ****        15.5000   2.2500  12.0000 Du        
  30448 ****        15.5000   2.2500  12.2500 Du        
  30449 ****        15.5000   2.2500  12.5000 Du        
  30450 ****        15.5000   2.2500  12.7500 Du        
  30451 ****        15.5000   2.2500  13.0000 Du        
  30452 ****        15.5000   2.2500  13.2500 Du        
  30453 ****        15.5000   2.2500  13.5000 Du        
  30454 ****        15.5000   2.5000  11.5000 Du        
  30455 ****        15.5000   2.5000  11.7500 Du        
  30456 ****        15.5000   2.5000  12.0000 Du        
  30457 ****        15.5000   2.5000  12.2500 Du        
  30458 ****        15.5000   2.5000  12.5000 Du        
  30459 ****        15.5000   2.5000  12.7500 Du        
  30460 ****        15.5000   2.5000  13.0000 Du        
  30461 ****        15.5000   2.5000  13.2500 Du        
  30462 ****        15.5000   2.5000  19.5000 Du        
  30463 ****        15.5000   2.5000  19.7500 Du        
  30464 ****        15.5000   2.5000  20.0000 Du        
  30465 ****        15.5000   2.7500  11.7500 Du        
  30466 ****        15.5000   2.7500  12.0000 Du        
  30467 ****        15.5000   2.7500  12.2500 Du        
  30468 ****        15.5000   2.7500  12.5000 Du        
  30469 ****        15.5000   2.7500  18.7500 Du        
  30470 ****        15.5000   2.7500  19.0000 Du        
  30471 ****        15.5000   2.7500  19.2500 Du        
  30472 ****        15.5000   2.7500  19.5000 Du        
  30473 ****        15.5000   2.7500  19.7500 Du        
  30474 ****        15.5000   2.7500  20.0000 Du        
  30475 ****        15.5000   2.7500  20.2500 Du        
  30476 ****        15.5000   2.7500  20.5000 Du        
  30477 ****        15.5000   3.0000  18.2500 Du        
  30478 ****        15.5000   3.0000  18.5000 Du        
  30479 ****        15.5000   3.0000  18.7500 Du        
  30480 ****        15.5000   3.0000  19.0000 Du        
  30481 ****        15.5000   3.0000  19.2500 Du        
  30482 ****        15.5000   3.0000  19.5000 Du        
  30483 ****        15.5000   3.0000  19.7500 Du        
  30484 ****        15.5000   3.0000  20.0000 Du        
  30485 ****        15.5000   3.0000  20.2500 Du        
  30486 ****        15.5000   3.2500  18.5000 Du        
  30487 ****        15.5000   3.2500  18.7500 Du        
  30488 ****        15.5000   3.2500  19.0000 Du        
  30489 ****        15.5000   3.2500  19.2500 Du        
  30490 ****        15.5000   3.2500  19.5000 Du        
  30491 ****        15.5000   3.2500  19.7500 Du        
  30492 ****        15.5000   3.2500  20.0000 Du        
  30493 ****        15.5000   3.2500  20.2500 Du        
  30494 ****        15.5000   3.5000  18.5000 Du        
  30495 ****        15.5000   3.5000  18.7500 Du        
  30496 ****        15.5000   3.5000  19.0000 Du        
  30497 ****        15.5000   3.5000  19.2500 Du        
  30498 ****        15.5000   3.5000  19.5000 Du        
  30499 ****        15.5000   3.5000  19.7500 Du        
  30500 ****        15.5000   3.5000  20.0000 Du        
  30501 ****        15.5000   3.5000  20.2500 Du        
  30502 ****        15.5000   3.7500  18.7500 Du        
  30503 ****        15.5000   3.7500  19.0000 Du        
  30504 ****        15.5000   3.7500  19.2500 Du        
  30505 ****        15.5000   3.7500  19.5000 Du        
  30506 ****        15.5000   3.7500  19.7500 Du        
  30507 ****        15.5000   3.7500  20.0000 Du        
  30508 ****        15.5000   3.7500  20.2500 Du        
  30509 ****        15.5000   4.0000   5.5000 Du        
  30510 ****        15.5000   4.0000   5.7500 Du        
  30511 ****        15.5000   4.0000  19.0000 Du        
  30512 ****        15.5000   4.0000  19.2500 Du        
  30513 ****        15.5000   4.0000  19.5000 Du        
  30514 ****        15.5000   4.0000  19.7500 Du        
  30515 ****        15.5000   4.0000  20.0000 Du        
  30516 ****        15.5000   4.2500   5.5000 Du        
  30517 ****        15.5000   4.2500   5.7500 Du        
  30518 ****        15.5000   4.2500  19.0000 Du        
  30519 ****        15.5000   4.2500  19.2500 Du        
  30520 ****        15.5000   4.2500  19.5000 Du        
  30521 ****        15.5000   4.2500  19.7500 Du        
  30522 ****        15.5000   4.2500  20.0000 Du        
  30523 ****        15.5000   4.5000   5.2500 Du        
  30524 ****        15.5000   4.5000   5.5000 Du        
  30525 ****        15.5000   4.5000   5.7500 Du        
  30526 ****        15.5000   4.5000  19.2500 Du        
  30527 ****        15.5000   4.5000  19.5000 Du        
  30528 ****        15.5000   4.5000  19.7500 Du        
  30529 ****        15.5000   4.5000  20.0000 Du        
  30530 ****        15.5000   4.7500   5.2500 Du        
  30531 ****        15.5000   4.7500   5.5000 Du        
  30532 ****        15.5000   4.7500   5.7500 Du        
  30533 ****        15.5000   4.7500  19.5000 Du        
  30534 ****        15.5000   4.7500  19.7500 Du        
  30535 ****        15.5000   5.0000   5.0000 Du        
  30536 ****        15.5000   5.0000   5.2500 Du        
  30537 ****        15.5000   5.0000   5.5000 Du        
  30538 ****        15.5000   5.2500   5.0000 Du        
  30539 ****        15.5000   5.2500   5.2500 Du        
  30540 ****        15.5000   5.5000   4.7500 Du        
  30541 ****        15.5000   5.5000   5.0000 Du        
  30542 ****        15.5000   5.5000   5.2500 Du        
  30543 ****        15.5000   5.7500   4.5000 Du        
  30544 ****        15.5000   5.7500   4.7500 Du        
  30545 ****        15.5000   5.7500   5.0000 Du        
  30546 ****        15.5000   5.7500   5.2500 Du        
  30547 ****        15.5000   6.0000   4.2500 Du        
  30548 ****        15.5000   6.0000   4.5000 Du        
  30549 ****        15.5000   6.0000   4.7500 Du        
  30550 ****        15.5000   6.0000   5.0000 Du        
  30551 ****        15.5000   6.0000   5.2500 Du        
  30552 ****        15.5000   6.0000   5.5000 Du        
  30553 ****        15.5000   6.2500   3.7500 Du        
  30554 ****        15.5000   6.2500   4.0000 Du        
  30555 ****        15.5000   6.2500   4.2500 Du        
  30556 ****        15.5000   6.2500   4.5000 Du        
  30557 ****        15.5000   6.2500   4.7500 Du        
  30558 ****        15.5000   6.2500   5.0000 Du        
  30559 ****        15.5000   6.2500   5.2500 Du        
  30560 ****        15.5000   6.2500   5.5000 Du        
  30561 ****        15.5000   6.5000   3.5000 Du        
  30562 ****        15.5000   6.5000   3.7500 Du        
  30563 ****        15.5000   6.5000   4.0000 Du        
  30564 ****        15.5000   6.5000   4.2500 Du        
  30565 ****        15.5000   6.5000   4.5000 Du        
  30566 ****        15.5000   6.5000   4.7500 Du        
  30567 ****        15.5000   6.5000   5.0000 Du        
  30568 ****        15.5000   6.5000   5.2500 Du        
  30569 ****        15.5000   6.5000   5.5000 Du        
  30570 ****        15.5000   6.7500   3.5000 Du        
  30571 ****        15.5000   6.7500   3.7500 Du        
  30572 ****        15.5000   6.7500   4.0000 Du        
  30573 ****        15.5000   6.7500   4.2500 Du        
  30574 ****        15.5000   6.7500   4.5000 Du        
  30575 ****        15.5000   6.7500   4.7500 Du        
  30576 ****        15.5000   6.7500   5.0000 Du        
  30577 ****        15.5000   6.7500   5.2500 Du        
  30578 ****        15.5000   7.0000   3.5000 Du        
  30579 ****        15.5000   7.0000   3.7500 Du        
  30580 ****        15.5000   7.0000   4.0000 Du        
  30581 ****        15.5000   7.0000   4.2500 Du        
  30582 ****        15.5000   7.0000   4.5000 Du        
  30583 ****        15.5000   7.0000   4.7500 Du        
  30584 ****        15.5000   7.0000   5.0000 Du        
  30585 ****        15.5000   7.2500   3.7500 Du        
  30586 ****        15.5000   7.2500   4.0000 Du        
  30587 ****        15.5000   7.2500   4.2500 Du        
  30588 ****        15.5000   9.5000  36.2500 Du        
  30589 ****        15.5000   9.5000  36.5000 Du        
  30590 ****        15.5000   9.5000  36.7500 Du        
  30591 ****        15.5000   9.5000  37.0000 Du        
  30592 ****        15.5000   9.5000  37.2500 Du        
  30593 ****        15.5000   9.7500  20.5000 Du        
  30594 ****        15.5000   9.7500  20.7500 Du        
  30595 ****        15.5000   9.7500  35.7500 Du        
  30596 ****        15.5000   9.7500  36.0000 Du        
  30597 ****        15.5000   9.7500  36.2500 Du        
  30598 ****        15.5000   9.7500  36.5000 Du        
  30599 ****        15.5000   9.7500  36.7500 Du        
  30600 ****        15.5000   9.7500  37.0000 Du        
  30601 ****        15.5000   9.7500  37.2500 Du        
  30602 ****        15.5000   9.7500  37.5000 Du        
  30603 ****        15.5000  10.0000  20.5000 Du        
  30604 ****        15.5000  10.0000  20.7500 Du        
  30605 ****        15.5000  10.0000  21.0000 Du        
  30606 ****        15.5000  10.0000  21.2500 Du        
  30607 ****        15.5000  10.0000  35.7500 Du        
  30608 ****        15.5000  10.0000  36.0000 Du        
  30609 ****        15.5000  10.0000  36.2500 Du        
  30610 ****        15.5000  10.0000  36.5000 Du        
  30611 ****        15.5000  10.0000  36.7500 Du        
  30612 ****        15.5000  10.0000  37.0000 Du        
  30613 ****        15.5000  10.0000  37.2500 Du        
  30614 ****        15.5000  10.0000  37.5000 Du        
  30615 ****        15.5000  10.2500  20.5000 Du        
  30616 ****        15.5000  10.2500  20.7500 Du        
  30617 ****        15.5000  10.2500  21.0000 Du        
  30618 ****        15.5000  10.2500  21.2500 Du        
  30619 ****        15.5000  10.2500  21.5000 Du        
  30620 ****        15.5000  10.2500  35.7500 Du        
  30621 ****        15.5000  10.2500  36.0000 Du        
  30622 ****        15.5000  10.2500  36.2500 Du        
  30623 ****        15.5000  10.2500  36.5000 Du        
  30624 ****        15.5000  10.2500  36.7500 Du        
  30625 ****        15.5000  10.2500  37.0000 Du        
  30626 ****        15.5000  10.2500  37.2500 Du        
  30627 ****        15.5000  10.2500  37.5000 Du        
  30628 ****        15.5000  10.2500  37.7500 Du        
  30629 ****        15.5000  10.5000  21.0000 Du        
  30630 ****        15.5000  10.5000  21.2500 Du        
  30631 ****        15.5000  10.5000  35.7500 Du        
  30632 ****        15.5000  10.5000  36.0000 Du        
  30633 ****        15.5000  10.5000  36.2500 Du        
  30634 ****        15.5000  10.5000  36.5000 Du        
  30635 ****        15.5000  10.5000  36.7500 Du        
  30636 ****        15.5000  10.5000  37.0000 Du        
  30637 ****        15.5000  10.5000  37.2500 Du        
  30638 ****        15.5000  10.5000  37.5000 Du        
  30639 ****        15.5000  10.7500  35.7500 Du        
  30640 ****        15.5000  10.7500  36.0000 Du        
  30641 ****        15.5000  10.7500  36.2500 Du        
  30642 ****        15.5000  10.7500  36.5000 Du        
  30643 ****        15.5000  10.7500  36.7500 Du        
  30644 ****        15.5000  10.7500  37.0000 Du        
  30645 ****        15.5000  10.7500  37.2500 Du        
  30646 ****        15.5000  10.7500  37.5000 Du        
  30647 ****        15.5000  11.0000  36.0000 Du        
  30648 ****        15.5000  11.0000  36.2500 Du        
  30649 ****        15.5000  11.0000  36.5000 Du        
  30650 ****        15.5000  11.0000  36.7500 Du        
  30651 ****        15.5000  11.0000  37.0000 Du        
  30652 ****        15.5000  11.0000  37.2500 Du        
  30653 ****        15.5000  11.2500  36.2500 Du        
  30654 ****        15.5000  11.2500  36.5000 Du        
  30655 ****        15.5000  11.2500  36.7500 Du        
  30656 ****        15.5000  11.2500  37.0000 Du        
  30657 ****        15.5000  11.7500  11.7500 Du        
  30658 ****        15.5000  12.0000  11.7500 Du        
  30659 ****        15.5000  12.0000  12.0000 Du        
  30660 ****        15.5000  12.0000  12.2500 Du        
  30661 ****        15.5000  12.0000  12.5000 Du        
  30662 ****        15.5000  12.2500  11.7500 Du        
  30663 ****        15.5000  12.2500  12.0000 Du        
  30664 ****        15.5000  12.2500  12.2500 Du        
  30665 ****        15.5000  12.2500  12.5000 Du        
  30666 ****        15.5000  12.2500  12.7500 Du        
  30667 ****        15.5000  12.5000  12.0000 Du        
  30668 ****        15.5000  12.5000  12.2500 Du        
  30669 ****        15.5000  12.5000  12.5000 Du        
  30670 ****        15.5000  12.5000  12.7500 Du        
  30671 ****        15.5000  12.5000  13.0000 Du        
  30672 ****        15.5000  12.7500  12.2500 Du        
  30673 ****        15.5000  12.7500  12.5000 Du        
  30674 ****        15.5000  12.7500  12.7500 Du        
  30675 ****        15.5000  12.7500  13.0000 Du        
  30676 ****        15.5000  12.7500  13.2500 Du        
  30677 ****        15.5000  13.0000  12.2500 Du        
  30678 ****        15.5000  13.0000  12.5000 Du        
  30679 ****        15.5000  13.0000  12.7500 Du        
  30680 ****        15.5000  13.0000  13.0000 Du        
  30681 ****        15.5000  13.0000  13.2500 Du        
  30682 ****        15.5000  13.0000  13.5000 Du        
  30683 ****        15.5000  13.0000  13.7500 Du        
  30684 ****        15.5000  13.0000  14.0000 Du        
  30685 ****        15.5000  13.2500  12.7500 Du        
  30686 ****        15.5000  13.2500  13.0000 Du        
  30687 ****        15.5000  13.2500  13.2500 Du        
  30688 ****        15.5000  13.2500  13.5000 Du        
  30689 ****        15.5000  13.2500  13.7500 Du        
  30690 ****        15.5000  13.2500  14.0000 Du        
  30691 ****        15.5000  13.2500  14.2500 Du        
  30692 ****        15.5000  13.2500  14.5000 Du        
  30693 ****        15.5000  13.2500  14.7500 Du        
  30694 ****        15.5000  13.2500  15.0000 Du        
  30695 ****        15.5000  13.5000  12.7500 Du        
  30696 ****        15.5000  13.5000  13.0000 Du        
  30697 ****        15.5000  13.5000  13.2500 Du        
  30698 ****        15.5000  13.5000  13.5000 Du        
  30699 ****        15.5000  13.5000  13.7500 Du        
  30700 ****        15.5000  13.5000  14.0000 Du        
  30701 ****        15.5000  13.5000  14.2500 Du        
  30702 ****        15.5000  13.5000  14.5000 Du        
  30703 ****        15.5000  13.5000  14.7500 Du        
  30704 ****        15.5000  13.5000  15.0000 Du        
  30705 ****        15.5000  13.5000  15.2500 Du        
  30706 ****        15.5000  13.7500  13.0000 Du        
  30707 ****        15.5000  13.7500  13.2500 Du        
  30708 ****        15.5000  13.7500  13.5000 Du        
  30709 ****        15.5000  13.7500  13.7500 Du        
  30710 ****        15.5000  13.7500  14.0000 Du        
  30711 ****        15.5000  13.7500  14.2500 Du        
  30712 ****        15.5000  13.7500  14.5000 Du        
  30713 ****        15.5000  13.7500  14.7500 Du        
  30714 ****        15.5000  13.7500  15.0000 Du        
  30715 ****        15.5000  13.7500  15.2500 Du        
  30716 ****        15.5000  14.0000  13.0000 Du        
  30717 ****        15.5000  14.0000  13.2500 Du        
  30718 ****        15.5000  14.0000  13.5000 Du        
  30719 ****        15.5000  14.0000  13.7500 Du        
  30720 ****        15.5000  14.0000  14.0000 Du        
  30721 ****        15.5000  14.0000  14.2500 Du        
  30722 ****        15.5000  14.0000  14.5000 Du        
  30723 ****        15.5000  14.0000  14.7500 Du        
  30724 ****        15.5000  14.0000  15.0000 Du        
  30725 ****        15.5000  14.0000  15.2500 Du        
  30726 ****        15.5000  14.0000  15.5000 Du        
  30727 ****        15.5000  14.2500  13.5000 Du        
  30728 ****        15.5000  14.2500  13.7500 Du        
  30729 ****        15.5000  14.2500  14.0000 Du        
  30730 ****        15.5000  14.2500  14.2500 Du        
  30731 ****        15.5000  14.2500  14.5000 Du        
  30732 ****        15.5000  14.2500  14.7500 Du        
  30733 ****        15.5000  14.2500  15.0000 Du        
  30734 ****        15.5000  14.2500  15.2500 Du        
  30735 ****        15.5000  14.2500  15.5000 Du        
  30736 ****        15.5000  14.2500  15.7500 Du        
  30737 ****        15.5000  14.5000  13.0000 Du        
  30738 ****        15.5000  14.5000  13.2500 Du        
  30739 ****        15.5000  14.5000  13.5000 Du        
  30740 ****        15.5000  14.5000  13.7500 Du        
  30741 ****        15.5000  14.5000  14.0000 Du        
  30742 ****        15.5000  14.5000  14.2500 Du        
  30743 ****        15.5000  14.5000  14.5000 Du        
  30744 ****        15.5000  14.5000  14.7500 Du        
  30745 ****        15.5000  14.5000  15.0000 Du        
  30746 ****        15.5000  14.5000  15.2500 Du        
  30747 ****        15.5000  14.5000  15.5000 Du        
  30748 ****        15.5000  14.5000  15.7500 Du        
  30749 ****        15.5000  14.7500  12.7500 Du        
  30750 ****        15.5000  14.7500  13.0000 Du        
  30751 ****        15.5000  14.7500  13.2500 Du        
  30752 ****        15.5000  14.7500  13.5000 Du        
  30753 ****        15.5000  14.7500  13.7500 Du        
  30754 ****        15.5000  14.7500  14.0000 Du        
  30755 ****        15.5000  14.7500  14.2500 Du        
  30756 ****        15.5000  14.7500  14.5000 Du        
  30757 ****        15.5000  14.7500  14.7500 Du        
  30758 ****        15.5000  14.7500  15.0000 Du        
  30759 ****        15.5000  14.7500  15.2500 Du        
  30760 ****        15.5000  14.7500  15.5000 Du        
  30761 ****        15.5000  14.7500  15.7500 Du        
  30762 ****        15.5000  15.0000  12.7500 Du        
  30763 ****        15.5000  15.0000  13.0000 Du        
  30764 ****        15.5000  15.0000  13.2500 Du        
  30765 ****        15.5000  15.0000  13.5000 Du        
  30766 ****        15.5000  15.0000  13.7500 Du        
  30767 ****        15.5000  15.0000  14.0000 Du        
  30768 ****        15.5000  15.0000  14.2500 Du        
  30769 ****        15.5000  15.0000  14.5000 Du        
  30770 ****        15.5000  15.0000  14.7500 Du        
  30771 ****        15.5000  15.0000  15.0000 Du        
  30772 ****        15.5000  15.0000  15.2500 Du        
  30773 ****        15.5000  15.0000  15.5000 Du        
  30774 ****        15.5000  15.0000  15.7500 Du        
  30775 ****        15.5000  15.2500  12.5000 Du        
  30776 ****        15.5000  15.2500  12.7500 Du        
  30777 ****        15.5000  15.2500  13.0000 Du        
  30778 ****        15.5000  15.2500  13.2500 Du        
  30779 ****        15.5000  15.2500  13.5000 Du        
  30780 ****        15.5000  15.2500  13.7500 Du        
  30781 ****        15.5000  15.2500  14.0000 Du        
  30782 ****        15.5000  15.2500  14.2500 Du        
  30783 ****        15.5000  15.2500  14.5000 Du        
  30784 ****        15.5000  15.2500  14.7500 Du        
  30785 ****        15.5000  15.2500  15.0000 Du        
  30786 ****        15.5000  15.2500  15.2500 Du        
  30787 ****        15.5000  15.2500  15.5000 Du        
  30788 ****        15.5000  15.2500  15.7500 Du        
  30789 ****        15.5000  15.2500  38.2500 Du        
  30790 ****        15.5000  15.5000  12.2500 Du        
  30791 ****        15.5000  15.5000  12.5000 Du        
  30792 ****        15.5000  15.5000  12.7500 Du        
  30793 ****        15.5000  15.5000  13.0000 Du        
  30794 ****        15.5000  15.5000  13.2500 Du        
  30795 ****        15.5000  15.5000  13.5000 Du        
  30796 ****        15.5000  15.5000  13.7500 Du        
  30797 ****        15.5000  15.5000  14.0000 Du        
  30798 ****        15.5000  15.5000  14.2500 Du        
  30799 ****        15.5000  15.5000  14.5000 Du        
  30800 ****        15.5000  15.5000  14.7500 Du        
  30801 ****        15.5000  15.5000  15.0000 Du        
  30802 ****        15.5000  15.5000  15.2500 Du        
  30803 ****        15.5000  15.5000  15.5000 Du        
  30804 ****        15.5000  15.5000  15.7500 Du        
  30805 ****        15.5000  15.7500  11.2500 Du        
  30806 ****        15.5000  15.7500  11.5000 Du        
  30807 ****        15.5000  15.7500  11.7500 Du        
  30808 ****        15.5000  15.7500  12.0000 Du        
  30809 ****        15.5000  15.7500  12.2500 Du        
  30810 ****        15.5000  15.7500  12.5000 Du        
  30811 ****        15.5000  15.7500  12.7500 Du        
  30812 ****        15.5000  15.7500  13.0000 Du        
  30813 ****        15.5000  15.7500  13.2500 Du        
  30814 ****        15.5000  15.7500  13.5000 Du        
  30815 ****        15.5000  15.7500  13.7500 Du        
  30816 ****        15.5000  15.7500  14.0000 Du        
  30817 ****        15.5000  15.7500  14.2500 Du        
  30818 ****        15.5000  15.7500  14.5000 Du        
  30819 ****        15.5000  15.7500  14.7500 Du        
  30820 ****        15.5000  15.7500  15.0000 Du        
  30821 ****        15.5000  15.7500  15.2500 Du        
  30822 ****        15.5000  15.7500  15.5000 Du        
  30823 ****        15.5000  15.7500  15.7500 Du        
  30824 ****        15.5000  16.0000  11.0000 Du        
  30825 ****        15.5000  16.0000  11.2500 Du        
  30826 ****        15.5000  16.0000  11.5000 Du        
  30827 ****        15.5000  16.0000  11.7500 Du        
  30828 ****        15.5000  16.0000  12.0000 Du        
  30829 ****        15.5000  16.0000  12.2500 Du        
  30830 ****        15.5000  16.0000  12.5000 Du        
  30831 ****        15.5000  16.0000  12.7500 Du        
  30832 ****        15.5000  16.0000  13.0000 Du        
  30833 ****        15.5000  16.0000  13.2500 Du        
  30834 ****        15.5000  16.0000  13.5000 Du        
  30835 ****        15.5000  16.0000  13.7500 Du        
  30836 ****        15.5000  16.0000  14.0000 Du        
  30837 ****        15.5000  16.0000  14.2500 Du        
  30838 ****        15.5000  16.0000  14.5000 Du        
  30839 ****        15.5000  16.0000  14.7500 Du        
  30840 ****        15.5000  16.0000  15.0000 Du        
  30841 ****        15.5000  16.0000  15.2500 Du        
  30842 ****        15.5000  16.0000  15.5000 Du        
  30843 ****        15.5000  16.2500  11.0000 Du        
  30844 ****        15.5000  16.2500  11.2500 Du        
  30845 ****        15.5000  16.2500  11.5000 Du        
  30846 ****        15.5000  16.2500  11.7500 Du        
  30847 ****        15.5000  16.2500  12.0000 Du        
  30848 ****        15.5000  16.2500  12.2500 Du        
  30849 ****        15.5000  16.2500  12.5000 Du        
  30850 ****        15.5000  16.2500  12.7500 Du        
  30851 ****        15.5000  16.5000  11.0000 Du        
  30852 ****        15.5000  16.5000  11.2500 Du        
  30853 ****        15.5000  16.5000  11.5000 Du        
  30854 ****        15.5000  16.5000  11.7500 Du        
  30855 ****        15.5000  16.5000  12.0000 Du        
  30856 ****        15.5000  16.5000  12.2500 Du        
  30857 ****        15.5000  16.7500  11.0000 Du        
  30858 ****        15.5000  16.7500  11.2500 Du        
  30859 ****        15.5000  16.7500  11.5000 Du        
  30860 ****        15.5000  16.7500  11.7500 Du        
  30861 ****        15.5000  18.5000  31.5000 Du        
  30862 ****        15.5000  18.5000  31.7500 Du        
  30863 ****        15.5000  18.5000  32.0000 Du        
  30864 ****        15.5000  18.7500  31.5000 Du        
  30865 ****        15.5000  18.7500  31.7500 Du        
  30866 ****        15.5000  18.7500  32.0000 Du        
  30867 ****        15.5000  18.7500  32.2500 Du        
  30868 ****        15.5000  18.7500  32.5000 Du        
  30869 ****        15.5000  19.0000  31.7500 Du        
  30870 ****        15.5000  19.0000  32.0000 Du        
  30871 ****        15.5000  19.0000  32.2500 Du        
  30872 ****        15.5000  19.0000  32.5000 Du        
  30873 ****        15.5000  19.0000  32.7500 Du        
  30874 ****        15.5000  19.0000  33.0000 Du        
  30875 ****        15.5000  19.2500  31.7500 Du        
  30876 ****        15.5000  19.2500  32.0000 Du        
  30877 ****        15.5000  19.2500  32.2500 Du        
  30878 ****        15.5000  19.2500  32.5000 Du        
  30879 ****        15.5000  19.2500  32.7500 Du        
  30880 ****        15.5000  19.2500  33.0000 Du        
  30881 ****        15.5000  19.2500  33.2500 Du        
  30882 ****        15.5000  19.2500  33.5000 Du        
  30883 ****        15.5000  19.2500  33.7500 Du        
  30884 ****        15.5000  19.2500  34.0000 Du        
  30885 ****        15.5000  19.2500  34.2500 Du        
  30886 ****        15.5000  19.5000  32.0000 Du        
  30887 ****        15.5000  19.5000  32.2500 Du        
  30888 ****        15.5000  19.5000  32.5000 Du        
  30889 ****        15.5000  19.5000  32.7500 Du        
  30890 ****        15.5000  19.5000  33.0000 Du        
  30891 ****        15.5000  19.5000  33.2500 Du        
  30892 ****        15.5000  19.5000  33.5000 Du        
  30893 ****        15.5000  19.5000  33.7500 Du        
  30894 ****        15.5000  19.5000  34.0000 Du        
  30895 ****        15.5000  19.5000  34.2500 Du        
  30896 ****        15.5000  19.5000  34.5000 Du        
  30897 ****        15.5000  19.5000  34.7500 Du        
  30898 ****        15.5000  19.5000  35.0000 Du        
  30899 ****        15.5000  19.7500  32.2500 Du        
  30900 ****        15.5000  19.7500  32.5000 Du        
  30901 ****        15.5000  19.7500  32.7500 Du        
  30902 ****        15.5000  19.7500  33.0000 Du        
  30903 ****        15.5000  19.7500  33.2500 Du        
  30904 ****        15.5000  19.7500  33.5000 Du        
  30905 ****        15.5000  19.7500  33.7500 Du        
  30906 ****        15.5000  19.7500  34.0000 Du        
  30907 ****        15.5000  19.7500  34.2500 Du        
  30908 ****        15.5000  19.7500  34.5000 Du        
  30909 ****        15.5000  19.7500  34.7500 Du        
  30910 ****        15.5000  19.7500  35.0000 Du        
  30911 ****        15.5000  20.0000  32.5000 Du        
  30912 ****        15.5000  20.0000  32.7500 Du        
  30913 ****        15.5000  20.0000  33.0000 Du        
  30914 ****        15.5000  20.0000  33.2500 Du        
  30915 ****        15.5000  20.0000  33.5000 Du        
  30916 ****        15.5000  20.0000  33.7500 Du        
  30917 ****        15.5000  20.0000  34.0000 Du        
  30918 ****        15.5000  20.0000  34.2500 Du        
  30919 ****        15.5000  20.0000  34.5000 Du        
  30920 ****        15.5000  20.0000  34.7500 Du        
  30921 ****        15.5000  20.0000  35.0000 Du        
  30922 ****        15.5000  20.2500  32.7500 Du        
  30923 ****        15.5000  20.2500  33.0000 Du        
  30924 ****        15.5000  20.2500  33.2500 Du        
  30925 ****        15.5000  20.2500  33.5000 Du        
  30926 ****        15.5000  20.2500  33.7500 Du        
  30927 ****        15.5000  20.2500  34.0000 Du        
  30928 ****        15.5000  20.2500  34.2500 Du        
  30929 ****        15.5000  20.2500  34.5000 Du        
  30930 ****        15.5000  20.5000  33.0000 Du        
  30931 ****        15.5000  20.5000  33.2500 Du        
  30932 ****        15.5000  20.5000  33.5000 Du        
  30933 ****        15.5000  20.5000  33.7500 Du        
  30934 ****        15.5000  20.5000  34.0000 Du        
  30935 ****        15.7500   1.0000  10.7500 Du        
  30936 ****        15.7500   1.0000  11.0000 Du        
  30937 ****        15.7500   1.2500  10.5000 Du        
  30938 ****        15.7500   1.2500  10.7500 Du        
  30939 ****        15.7500   1.2500  11.0000 Du        
  30940 ****        15.7500   1.2500  11.2500 Du        
  30941 ****        15.7500   1.2500  11.5000 Du        
  30942 ****        15.7500   1.5000  10.5000 Du        
  30943 ****        15.7500   1.5000  10.7500 Du        
  30944 ****        15.7500   1.5000  11.0000 Du        
  30945 ****        15.7500   1.5000  11.2500 Du        
  30946 ****        15.7500   1.5000  11.5000 Du        
  30947 ****        15.7500   1.5000  11.7500 Du        
  30948 ****        15.7500   1.5000  12.0000 Du        
  30949 ****        15.7500   1.7500  10.7500 Du        
  30950 ****        15.7500   1.7500  11.0000 Du        
  30951 ****        15.7500   1.7500  11.2500 Du        
  30952 ****        15.7500   1.7500  11.5000 Du        
  30953 ****        15.7500   1.7500  11.7500 Du        
  30954 ****        15.7500   1.7500  12.0000 Du        
  30955 ****        15.7500   1.7500  12.2500 Du        
  30956 ****        15.7500   1.7500  12.5000 Du        
  30957 ****        15.7500   2.0000  11.0000 Du        
  30958 ****        15.7500   2.0000  11.2500 Du        
  30959 ****        15.7500   2.0000  11.5000 Du        
  30960 ****        15.7500   2.0000  11.7500 Du        
  30961 ****        15.7500   2.0000  12.0000 Du        
  30962 ****        15.7500   2.0000  12.2500 Du        
  30963 ****        15.7500   2.0000  12.5000 Du        
  30964 ****        15.7500   2.0000  12.7500 Du        
  30965 ****        15.7500   2.0000  13.0000 Du        
  30966 ****        15.7500   2.0000  13.2500 Du        
  30967 ****        15.7500   2.0000  13.5000 Du        
  30968 ****        15.7500   2.0000  13.7500 Du        
  30969 ****        15.7500   2.2500  11.2500 Du        
  30970 ****        15.7500   2.2500  11.5000 Du        
  30971 ****        15.7500   2.2500  11.7500 Du        
  30972 ****        15.7500   2.2500  12.0000 Du        
  30973 ****        15.7500   2.2500  12.2500 Du        
  30974 ****        15.7500   2.2500  12.5000 Du        
  30975 ****        15.7500   2.2500  12.7500 Du        
  30976 ****        15.7500   2.2500  13.0000 Du        
  30977 ****        15.7500   2.2500  13.2500 Du        
  30978 ****        15.7500   2.2500  13.5000 Du        
  30979 ****        15.7500   2.2500  13.7500 Du        
  30980 ****        15.7500   2.2500  19.5000 Du        
  30981 ****        15.7500   2.2500  19.7500 Du        
  30982 ****        15.7500   2.2500  20.0000 Du        
  30983 ****        15.7500   2.2500  20.2500 Du        
  30984 ****        15.7500   2.5000  11.5000 Du        
  30985 ****        15.7500   2.5000  11.7500 Du        
  30986 ****        15.7500   2.5000  12.0000 Du        
  30987 ****        15.7500   2.5000  12.2500 Du        
  30988 ****        15.7500   2.5000  12.5000 Du        
  30989 ****        15.7500   2.5000  12.7500 Du        
  30990 ****        15.7500   2.5000  13.0000 Du        
  30991 ****        15.7500   2.5000  13.2500 Du        
  30992 ****        15.7500   2.5000  18.7500 Du        
  30993 ****        15.7500   2.5000  19.0000 Du        
  30994 ****        15.7500   2.5000  19.2500 Du        
  30995 ****        15.7500   2.5000  19.5000 Du        
  30996 ****        15.7500   2.5000  19.7500 Du        
  30997 ****        15.7500   2.5000  20.0000 Du        
  30998 ****        15.7500   2.5000  20.2500 Du        
  30999 ****        15.7500   2.5000  20.5000 Du        
  31000 ****        15.7500   2.5000  20.7500 Du        
  31001 ****        15.7500   2.7500  11.7500 Du        
  31002 ****        15.7500   2.7500  12.0000 Du        
  31003 ****        15.7500   2.7500  12.2500 Du        
  31004 ****        15.7500   2.7500  12.5000 Du        
  31005 ****        15.7500   2.7500  12.7500 Du        
  31006 ****        15.7500   2.7500  13.0000 Du        
  31007 ****        15.7500   2.7500  18.5000 Du        
  31008 ****        15.7500   2.7500  18.7500 Du        
  31009 ****        15.7500   2.7500  19.0000 Du        
  31010 ****        15.7500   2.7500  19.2500 Du        
  31011 ****        15.7500   2.7500  19.5000 Du        
  31012 ****        15.7500   2.7500  19.7500 Du        
  31013 ****        15.7500   2.7500  20.0000 Du        
  31014 ****        15.7500   2.7500  20.2500 Du        
  31015 ****        15.7500   2.7500  20.5000 Du        
  31016 ****        15.7500   3.0000  18.2500 Du        
  31017 ****        15.7500   3.0000  18.5000 Du        
  31018 ****        15.7500   3.0000  18.7500 Du        
  31019 ****        15.7500   3.0000  19.0000 Du        
  31020 ****        15.7500   3.0000  19.2500 Du        
  31021 ****        15.7500   3.0000  19.5000 Du        
  31022 ****        15.7500   3.0000  19.7500 Du        
  31023 ****        15.7500   3.0000  20.0000 Du        
  31024 ****        15.7500   3.0000  20.2500 Du        
  31025 ****        15.7500   3.0000  20.5000 Du        
  31026 ****        15.7500   3.2500  18.5000 Du        
  31027 ****        15.7500   3.2500  18.7500 Du        
  31028 ****        15.7500   3.2500  19.0000 Du        
  31029 ****        15.7500   3.2500  19.2500 Du        
  31030 ****        15.7500   3.2500  19.5000 Du        
  31031 ****        15.7500   3.2500  19.7500 Du        
  31032 ****        15.7500   3.2500  20.0000 Du        
  31033 ****        15.7500   3.2500  20.2500 Du        
  31034 ****        15.7500   3.2500  20.5000 Du        
  31035 ****        15.7500   3.5000  18.5000 Du        
  31036 ****        15.7500   3.5000  18.7500 Du        
  31037 ****        15.7500   3.5000  19.0000 Du        
  31038 ****        15.7500   3.5000  19.2500 Du        
  31039 ****        15.7500   3.5000  19.5000 Du        
  31040 ****        15.7500   3.5000  19.7500 Du        
  31041 ****        15.7500   3.5000  20.0000 Du        
  31042 ****        15.7500   3.5000  20.2500 Du        
  31043 ****        15.7500   3.7500  18.7500 Du        
  31044 ****        15.7500   3.7500  19.0000 Du        
  31045 ****        15.7500   3.7500  19.2500 Du        
  31046 ****        15.7500   3.7500  19.5000 Du        
  31047 ****        15.7500   3.7500  19.7500 Du        
  31048 ****        15.7500   3.7500  20.0000 Du        
  31049 ****        15.7500   3.7500  20.2500 Du        
  31050 ****        15.7500   4.0000   5.2500 Du        
  31051 ****        15.7500   4.0000   5.5000 Du        
  31052 ****        15.7500   4.0000  19.0000 Du        
  31053 ****        15.7500   4.0000  19.2500 Du        
  31054 ****        15.7500   4.0000  19.5000 Du        
  31055 ****        15.7500   4.0000  19.7500 Du        
  31056 ****        15.7500   4.0000  20.0000 Du        
  31057 ****        15.7500   4.0000  20.2500 Du        
  31058 ****        15.7500   4.2500   5.0000 Du        
  31059 ****        15.7500   4.2500   5.2500 Du        
  31060 ****        15.7500   4.2500   5.5000 Du        
  31061 ****        15.7500   4.2500  19.0000 Du        
  31062 ****        15.7500   4.2500  19.2500 Du        
  31063 ****        15.7500   4.2500  19.5000 Du        
  31064 ****        15.7500   4.2500  19.7500 Du        
  31065 ****        15.7500   4.2500  20.0000 Du        
  31066 ****        15.7500   4.5000   4.7500 Du        
  31067 ****        15.7500   4.5000   5.0000 Du        
  31068 ****        15.7500   4.5000   5.2500 Du        
  31069 ****        15.7500   4.5000   5.5000 Du        
  31070 ****        15.7500   4.5000  19.2500 Du        
  31071 ****        15.7500   4.5000  19.5000 Du        
  31072 ****        15.7500   4.5000  19.7500 Du        
  31073 ****        15.7500   4.7500   4.7500 Du        
  31074 ****        15.7500   4.7500   5.0000 Du        
  31075 ****        15.7500   4.7500   5.2500 Du        
  31076 ****        15.7500   4.7500  19.5000 Du        
  31077 ****        15.7500   5.0000   4.5000 Du        
  31078 ****        15.7500   5.0000   4.7500 Du        
  31079 ****        15.7500   5.0000   5.0000 Du        
  31080 ****        15.7500   5.0000   5.2500 Du        
  31081 ****        15.7500   5.2500   4.5000 Du        
  31082 ****        15.7500   5.2500   4.7500 Du        
  31083 ****        15.7500   5.2500   5.0000 Du        
  31084 ****        15.7500   5.5000   4.2500 Du        
  31085 ****        15.7500   5.5000   4.5000 Du        
  31086 ****        15.7500   5.5000   4.7500 Du        
  31087 ****        15.7500   5.5000   5.0000 Du        
  31088 ****        15.7500   5.7500   3.7500 Du        
  31089 ****        15.7500   5.7500   4.0000 Du        
  31090 ****        15.7500   5.7500   4.2500 Du        
  31091 ****        15.7500   5.7500   4.5000 Du        
  31092 ****        15.7500   5.7500   4.7500 Du        
  31093 ****        15.7500   5.7500   5.0000 Du        
  31094 ****        15.7500   6.0000   3.5000 Du        
  31095 ****        15.7500   6.0000   3.7500 Du        
  31096 ****        15.7500   6.0000   4.0000 Du        
  31097 ****        15.7500   6.0000   4.2500 Du        
  31098 ****        15.7500   6.0000   4.5000 Du        
  31099 ****        15.7500   6.0000   4.7500 Du        
  31100 ****        15.7500   6.0000   5.0000 Du        
  31101 ****        15.7500   6.0000   5.2500 Du        
  31102 ****        15.7500   6.2500   3.5000 Du        
  31103 ****        15.7500   6.2500   3.7500 Du        
  31104 ****        15.7500   6.2500   4.0000 Du        
  31105 ****        15.7500   6.2500   4.2500 Du        
  31106 ****        15.7500   6.2500   4.5000 Du        
  31107 ****        15.7500   6.2500   4.7500 Du        
  31108 ****        15.7500   6.2500   5.0000 Du        
  31109 ****        15.7500   6.2500   5.2500 Du        
  31110 ****        15.7500   6.5000   3.5000 Du        
  31111 ****        15.7500   6.5000   3.7500 Du        
  31112 ****        15.7500   6.5000   4.0000 Du        
  31113 ****        15.7500   6.5000   4.2500 Du        
  31114 ****        15.7500   6.5000   4.5000 Du        
  31115 ****        15.7500   6.5000   4.7500 Du        
  31116 ****        15.7500   6.5000   5.0000 Du        
  31117 ****        15.7500   6.5000   5.2500 Du        
  31118 ****        15.7500   6.7500   3.5000 Du        
  31119 ****        15.7500   6.7500   3.7500 Du        
  31120 ****        15.7500   6.7500   4.0000 Du        
  31121 ****        15.7500   6.7500   4.2500 Du        
  31122 ****        15.7500   6.7500   4.5000 Du        
  31123 ****        15.7500   6.7500   4.7500 Du        
  31124 ****        15.7500   6.7500   5.0000 Du        
  31125 ****        15.7500   6.7500   5.2500 Du        
  31126 ****        15.7500   7.0000   3.5000 Du        
  31127 ****        15.7500   7.0000   3.7500 Du        
  31128 ****        15.7500   7.0000   4.0000 Du        
  31129 ****        15.7500   7.0000   4.2500 Du        
  31130 ****        15.7500   7.0000   4.5000 Du        
  31131 ****        15.7500   7.0000   4.7500 Du        
  31132 ****        15.7500   7.0000   5.0000 Du        
  31133 ****        15.7500   7.2500   3.5000 Du        
  31134 ****        15.7500   7.2500   3.7500 Du        
  31135 ****        15.7500   7.2500   4.0000 Du        
  31136 ****        15.7500   7.2500   4.2500 Du        
  31137 ****        15.7500   7.2500   4.5000 Du        
  31138 ****        15.7500   7.5000   3.7500 Du        
  31139 ****        15.7500   7.5000   4.0000 Du        
  31140 ****        15.7500   9.7500  20.5000 Du        
  31141 ****        15.7500   9.7500  20.7500 Du        
  31142 ****        15.7500   9.7500  35.7500 Du        
  31143 ****        15.7500   9.7500  36.0000 Du        
  31144 ****        15.7500   9.7500  36.2500 Du        
  31145 ****        15.7500   9.7500  36.5000 Du        
  31146 ****        15.7500   9.7500  36.7500 Du        
  31147 ****        15.7500   9.7500  37.0000 Du        
  31148 ****        15.7500  10.0000  20.5000 Du        
  31149 ****        15.7500  10.0000  20.7500 Du        
  31150 ****        15.7500  10.0000  21.0000 Du        
  31151 ****        15.7500  10.0000  21.2500 Du        
  31152 ****        15.7500  10.0000  35.7500 Du        
  31153 ****        15.7500  10.0000  36.0000 Du        
  31154 ****        15.7500  10.0000  36.2500 Du        
  31155 ****        15.7500  10.0000  36.5000 Du        
  31156 ****        15.7500  10.0000  36.7500 Du        
  31157 ****        15.7500  10.0000  37.0000 Du        
  31158 ****        15.7500  10.0000  37.2500 Du        
  31159 ****        15.7500  10.2500  20.5000 Du        
  31160 ****        15.7500  10.2500  20.7500 Du        
  31161 ****        15.7500  10.2500  21.0000 Du        
  31162 ****        15.7500  10.2500  21.2500 Du        
  31163 ****        15.7500  10.2500  21.5000 Du        
  31164 ****        15.7500  10.2500  35.7500 Du        
  31165 ****        15.7500  10.2500  36.0000 Du        
  31166 ****        15.7500  10.2500  36.2500 Du        
  31167 ****        15.7500  10.2500  36.5000 Du        
  31168 ****        15.7500  10.2500  36.7500 Du        
  31169 ****        15.7500  10.2500  37.0000 Du        
  31170 ****        15.7500  10.2500  37.2500 Du        
  31171 ****        15.7500  10.2500  37.5000 Du        
  31172 ****        15.7500  10.5000  20.7500 Du        
  31173 ****        15.7500  10.5000  21.0000 Du        
  31174 ****        15.7500  10.5000  21.2500 Du        
  31175 ****        15.7500  10.5000  21.5000 Du        
  31176 ****        15.7500  10.5000  35.7500 Du        
  31177 ****        15.7500  10.5000  36.0000 Du        
  31178 ****        15.7500  10.5000  36.2500 Du        
  31179 ****        15.7500  10.5000  36.5000 Du        
  31180 ****        15.7500  10.5000  36.7500 Du        
  31181 ****        15.7500  10.5000  37.0000 Du        
  31182 ****        15.7500  10.5000  37.2500 Du        
  31183 ****        15.7500  10.5000  37.5000 Du        
  31184 ****        15.7500  10.7500  21.0000 Du        
  31185 ****        15.7500  10.7500  21.2500 Du        
  31186 ****        15.7500  10.7500  21.5000 Du        
  31187 ****        15.7500  10.7500  35.7500 Du        
  31188 ****        15.7500  10.7500  36.0000 Du        
  31189 ****        15.7500  10.7500  36.2500 Du        
  31190 ****        15.7500  10.7500  36.5000 Du        
  31191 ****        15.7500  10.7500  36.7500 Du        
  31192 ****        15.7500  10.7500  37.0000 Du        
  31193 ****        15.7500  10.7500  37.2500 Du        
  31194 ****        15.7500  10.7500  37.5000 Du        
  31195 ****        15.7500  10.7500  37.7500 Du        
  31196 ****        15.7500  11.0000  35.7500 Du        
  31197 ****        15.7500  11.0000  36.0000 Du        
  31198 ****        15.7500  11.0000  36.2500 Du        
  31199 ****        15.7500  11.0000  36.5000 Du        
  31200 ****        15.7500  11.0000  36.7500 Du        
  31201 ****        15.7500  11.0000  37.0000 Du        
  31202 ****        15.7500  11.0000  37.2500 Du        
  31203 ****        15.7500  11.0000  37.5000 Du        
  31204 ****        15.7500  11.2500  36.0000 Du        
  31205 ****        15.7500  11.2500  36.2500 Du        
  31206 ****        15.7500  11.2500  36.5000 Du        
  31207 ****        15.7500  11.2500  36.7500 Du        
  31208 ****        15.7500  11.2500  37.0000 Du        
  31209 ****        15.7500  11.2500  37.2500 Du        
  31210 ****        15.7500  11.2500  37.5000 Du        
  31211 ****        15.7500  11.5000  36.5000 Du        
  31212 ****        15.7500  11.5000  36.7500 Du        
  31213 ****        15.7500  11.5000  37.0000 Du        
  31214 ****        15.7500  11.5000  37.2500 Du        
  31215 ****        15.7500  11.7500  36.7500 Du        
  31216 ****        15.7500  11.7500  37.0000 Du        
  31217 ****        15.7500  12.2500  12.5000 Du        
  31218 ****        15.7500  12.5000  12.7500 Du        
  31219 ****        15.7500  12.7500  12.7500 Du        
  31220 ****        15.7500  12.7500  13.0000 Du        
  31221 ****        15.7500  12.7500  13.2500 Du        
  31222 ****        15.7500  13.0000  13.0000 Du        
  31223 ****        15.7500  13.0000  13.2500 Du        
  31224 ****        15.7500  13.0000  13.5000 Du        
  31225 ****        15.7500  13.0000  13.7500 Du        
  31226 ****        15.7500  13.2500  13.0000 Du        
  31227 ****        15.7500  13.2500  13.2500 Du        
  31228 ****        15.7500  13.2500  13.5000 Du        
  31229 ****        15.7500  13.2500  13.7500 Du        
  31230 ****        15.7500  13.2500  14.0000 Du        
  31231 ****        15.7500  13.2500  14.2500 Du        
  31232 ****        15.7500  13.2500  14.5000 Du        
  31233 ****        15.7500  13.2500  14.7500 Du        
  31234 ****        15.7500  13.2500  15.0000 Du        
  31235 ****        15.7500  13.2500  15.2500 Du        
  31236 ****        15.7500  13.5000  13.0000 Du        
  31237 ****        15.7500  13.5000  13.2500 Du        
  31238 ****        15.7500  13.5000  13.5000 Du        
  31239 ****        15.7500  13.5000  13.7500 Du        
  31240 ****        15.7500  13.5000  14.0000 Du        
  31241 ****        15.7500  13.5000  14.2500 Du        
  31242 ****        15.7500  13.5000  14.5000 Du        
  31243 ****        15.7500  13.5000  14.7500 Du        
  31244 ****        15.7500  13.5000  15.0000 Du        
  31245 ****        15.7500  13.5000  15.2500 Du        
  31246 ****        15.7500  13.7500  13.2500 Du        
  31247 ****        15.7500  13.7500  13.5000 Du        
  31248 ****        15.7500  13.7500  13.7500 Du        
  31249 ****        15.7500  13.7500  14.0000 Du        
  31250 ****        15.7500  13.7500  14.2500 Du        
  31251 ****        15.7500  13.7500  14.5000 Du        
  31252 ****        15.7500  13.7500  14.7500 Du        
  31253 ****        15.7500  13.7500  15.0000 Du        
  31254 ****        15.7500  13.7500  15.2500 Du        
  31255 ****        15.7500  13.7500  15.5000 Du        
  31256 ****        15.7500  14.0000  13.5000 Du        
  31257 ****        15.7500  14.0000  13.7500 Du        
  31258 ****        15.7500  14.0000  14.0000 Du        
  31259 ****        15.7500  14.0000  14.2500 Du        
  31260 ****        15.7500  14.0000  14.5000 Du        
  31261 ****        15.7500  14.0000  14.7500 Du        
  31262 ****        15.7500  14.0000  15.0000 Du        
  31263 ****        15.7500  14.0000  15.2500 Du        
  31264 ****        15.7500  14.0000  15.5000 Du        
  31265 ****        15.7500  14.2500  13.5000 Du        
  31266 ****        15.7500  14.2500  13.7500 Du        
  31267 ****        15.7500  14.2500  14.0000 Du        
  31268 ****        15.7500  14.2500  14.2500 Du        
  31269 ****        15.7500  14.2500  14.5000 Du        
  31270 ****        15.7500  14.2500  14.7500 Du        
  31271 ****        15.7500  14.2500  15.0000 Du        
  31272 ****        15.7500  14.2500  15.2500 Du        
  31273 ****        15.7500  14.2500  15.5000 Du        
  31274 ****        15.7500  14.2500  15.7500 Du        
  31275 ****        15.7500  14.5000  13.5000 Du        
  31276 ****        15.7500  14.5000  13.7500 Du        
  31277 ****        15.7500  14.5000  14.0000 Du        
  31278 ****        15.7500  14.5000  14.2500 Du        
  31279 ****        15.7500  14.5000  14.5000 Du        
  31280 ****        15.7500  14.5000  14.7500 Du        
  31281 ****        15.7500  14.5000  15.0000 Du        
  31282 ****        15.7500  14.5000  15.2500 Du        
  31283 ****        15.7500  14.5000  15.5000 Du        
  31284 ****        15.7500  14.5000  15.7500 Du        
  31285 ****        15.7500  14.5000  38.0000 Du        
  31286 ****        15.7500  14.7500  13.2500 Du        
  31287 ****        15.7500  14.7500  13.5000 Du        
  31288 ****        15.7500  14.7500  13.7500 Du        
  31289 ****        15.7500  14.7500  14.0000 Du        
  31290 ****        15.7500  14.7500  14.2500 Du        
  31291 ****        15.7500  14.7500  14.5000 Du        
  31292 ****        15.7500  14.7500  14.7500 Du        
  31293 ****        15.7500  14.7500  15.0000 Du        
  31294 ****        15.7500  14.7500  15.2500 Du        
  31295 ****        15.7500  14.7500  15.5000 Du        
  31296 ****        15.7500  14.7500  15.7500 Du        
  31297 ****        15.7500  14.7500  38.0000 Du        
  31298 ****        15.7500  14.7500  38.2500 Du        
  31299 ****        15.7500  15.0000  13.0000 Du        
  31300 ****        15.7500  15.0000  13.2500 Du        
  31301 ****        15.7500  15.0000  13.5000 Du        
  31302 ****        15.7500  15.0000  13.7500 Du        
  31303 ****        15.7500  15.0000  14.0000 Du        
  31304 ****        15.7500  15.0000  14.2500 Du        
  31305 ****        15.7500  15.0000  14.5000 Du        
  31306 ****        15.7500  15.0000  14.7500 Du        
  31307 ****        15.7500  15.0000  15.0000 Du        
  31308 ****        15.7500  15.0000  15.2500 Du        
  31309 ****        15.7500  15.0000  15.5000 Du        
  31310 ****        15.7500  15.0000  15.7500 Du        
  31311 ****        15.7500  15.0000  38.0000 Du        
  31312 ****        15.7500  15.0000  38.2500 Du        
  31313 ****        15.7500  15.2500  13.0000 Du        
  31314 ****        15.7500  15.2500  13.2500 Du        
  31315 ****        15.7500  15.2500  13.5000 Du        
  31316 ****        15.7500  15.2500  13.7500 Du        
  31317 ****        15.7500  15.2500  14.0000 Du        
  31318 ****        15.7500  15.2500  14.2500 Du        
  31319 ****        15.7500  15.2500  14.5000 Du        
  31320 ****        15.7500  15.2500  14.7500 Du        
  31321 ****        15.7500  15.2500  15.0000 Du        
  31322 ****        15.7500  15.2500  15.2500 Du        
  31323 ****        15.7500  15.2500  15.5000 Du        
  31324 ****        15.7500  15.2500  15.7500 Du        
  31325 ****        15.7500  15.2500  38.2500 Du        
  31326 ****        15.7500  15.5000  12.7500 Du        
  31327 ****        15.7500  15.5000  13.0000 Du        
  31328 ****        15.7500  15.5000  13.2500 Du        
  31329 ****        15.7500  15.5000  13.5000 Du        
  31330 ****        15.7500  15.5000  13.7500 Du        
  31331 ****        15.7500  15.5000  14.0000 Du        
  31332 ****        15.7500  15.5000  14.2500 Du        
  31333 ****        15.7500  15.5000  14.5000 Du        
  31334 ****        15.7500  15.5000  14.7500 Du        
  31335 ****        15.7500  15.5000  15.0000 Du        
  31336 ****        15.7500  15.5000  15.2500 Du        
  31337 ****        15.7500  15.5000  15.5000 Du        
  31338 ****        15.7500  15.7500  12.5000 Du        
  31339 ****        15.7500  15.7500  12.7500 Du        
  31340 ****        15.7500  15.7500  13.0000 Du        
  31341 ****        15.7500  15.7500  13.2500 Du        
  31342 ****        15.7500  15.7500  13.5000 Du        
  31343 ****        15.7500  15.7500  13.7500 Du        
  31344 ****        15.7500  15.7500  14.0000 Du        
  31345 ****        15.7500  15.7500  14.2500 Du        
  31346 ****        15.7500  15.7500  14.5000 Du        
  31347 ****        15.7500  15.7500  14.7500 Du        
  31348 ****        15.7500  15.7500  15.0000 Du        
  31349 ****        15.7500  15.7500  15.2500 Du        
  31350 ****        15.7500  15.7500  15.5000 Du        
  31351 ****        15.7500  16.0000  11.7500 Du        
  31352 ****        15.7500  16.0000  12.0000 Du        
  31353 ****        15.7500  16.0000  12.2500 Du        
  31354 ****        15.7500  16.0000  12.5000 Du        
  31355 ****        15.7500  16.0000  12.7500 Du        
  31356 ****        15.7500  16.0000  13.0000 Du        
  31357 ****        15.7500  16.0000  13.2500 Du        
  31358 ****        15.7500  16.0000  13.5000 Du        
  31359 ****        15.7500  16.0000  13.7500 Du        
  31360 ****        15.7500  16.0000  14.0000 Du        
  31361 ****        15.7500  16.0000  14.2500 Du        
  31362 ****        15.7500  16.0000  14.5000 Du        
  31363 ****        15.7500  16.0000  14.7500 Du        
  31364 ****        15.7500  16.0000  15.0000 Du        
  31365 ****        15.7500  16.0000  15.2500 Du        
  31366 ****        15.7500  16.0000  15.5000 Du        
  31367 ****        15.7500  16.2500  11.0000 Du        
  31368 ****        15.7500  16.2500  11.2500 Du        
  31369 ****        15.7500  16.2500  11.5000 Du        
  31370 ****        15.7500  16.2500  11.7500 Du        
  31371 ****        15.7500  16.2500  12.0000 Du        
  31372 ****        15.7500  16.2500  12.2500 Du        
  31373 ****        15.7500  16.2500  12.5000 Du        
  31374 ****        15.7500  16.2500  12.7500 Du        
  31375 ****        15.7500  16.2500  13.0000 Du        
  31376 ****        15.7500  16.2500  15.0000 Du        
  31377 ****        15.7500  16.5000  10.7500 Du        
  31378 ****        15.7500  16.5000  11.0000 Du        
  31379 ****        15.7500  16.5000  11.2500 Du        
  31380 ****        15.7500  16.5000  11.5000 Du        
  31381 ****        15.7500  16.5000  11.7500 Du        
  31382 ****        15.7500  16.5000  12.0000 Du        
  31383 ****        15.7500  16.5000  12.2500 Du        
  31384 ****        15.7500  16.5000  12.5000 Du        
  31385 ****        15.7500  16.7500  10.7500 Du        
  31386 ****        15.7500  16.7500  11.0000 Du        
  31387 ****        15.7500  16.7500  11.2500 Du        
  31388 ****        15.7500  16.7500  11.5000 Du        
  31389 ****        15.7500  16.7500  11.7500 Du        
  31390 ****        15.7500  16.7500  12.0000 Du        
  31391 ****        15.7500  17.0000  10.7500 Du        
  31392 ****        15.7500  17.0000  11.0000 Du        
  31393 ****        15.7500  17.0000  11.2500 Du        
  31394 ****        15.7500  17.0000  11.5000 Du        
  31395 ****        15.7500  17.2500  10.7500 Du        
  31396 ****        15.7500  17.2500  11.0000 Du        
  31397 ****        15.7500  18.0000  31.5000 Du        
  31398 ****        15.7500  18.0000  31.7500 Du        
  31399 ****        15.7500  18.0000  32.0000 Du        
  31400 ****        15.7500  18.2500  31.5000 Du        
  31401 ****        15.7500  18.2500  31.7500 Du        
  31402 ****        15.7500  18.2500  32.0000 Du        
  31403 ****        15.7500  18.2500  32.2500 Du        
  31404 ****        15.7500  18.5000  31.5000 Du        
  31405 ****        15.7500  18.5000  31.7500 Du        
  31406 ****        15.7500  18.5000  32.0000 Du        
  31407 ****        15.7500  18.5000  32.2500 Du        
  31408 ****        15.7500  18.5000  32.5000 Du        
  31409 ****        15.7500  18.7500  31.7500 Du        
  31410 ****        15.7500  18.7500  32.0000 Du        
  31411 ****        15.7500  18.7500  32.2500 Du        
  31412 ****        15.7500  18.7500  32.5000 Du        
  31413 ****        15.7500  18.7500  32.7500 Du        
  31414 ****        15.7500  18.7500  33.0000 Du        
  31415 ****        15.7500  19.0000  32.0000 Du        
  31416 ****        15.7500  19.0000  32.2500 Du        
  31417 ****        15.7500  19.0000  32.5000 Du        
  31418 ****        15.7500  19.0000  32.7500 Du        
  31419 ****        15.7500  19.0000  33.0000 Du        
  31420 ****        15.7500  19.0000  33.2500 Du        
  31421 ****        15.7500  19.0000  33.5000 Du        
  31422 ****        15.7500  19.0000  33.7500 Du        
  31423 ****        15.7500  19.0000  34.0000 Du        
  31424 ****        15.7500  19.2500  32.2500 Du        
  31425 ****        15.7500  19.2500  32.5000 Du        
  31426 ****        15.7500  19.2500  32.7500 Du        
  31427 ****        15.7500  19.2500  33.0000 Du        
  31428 ****        15.7500  19.2500  33.2500 Du        
  31429 ****        15.7500  19.2500  33.5000 Du        
  31430 ****        15.7500  19.2500  33.7500 Du        
  31431 ****        15.7500  19.2500  34.0000 Du        
  31432 ****        15.7500  19.2500  34.2500 Du        
  31433 ****        15.7500  19.2500  34.5000 Du        
  31434 ****        15.7500  19.5000  32.5000 Du        
  31435 ****        15.7500  19.5000  32.7500 Du        
  31436 ****        15.7500  19.5000  33.0000 Du        
  31437 ****        15.7500  19.5000  33.2500 Du        
  31438 ****        15.7500  19.5000  33.5000 Du        
  31439 ****        15.7500  19.5000  33.7500 Du        
  31440 ****        15.7500  19.5000  34.0000 Du        
  31441 ****        15.7500  19.5000  34.2500 Du        
  31442 ****        15.7500  19.5000  34.5000 Du        
  31443 ****        15.7500  19.5000  34.7500 Du        
  31444 ****        15.7500  19.5000  35.0000 Du        
  31445 ****        15.7500  19.7500  32.7500 Du        
  31446 ****        15.7500  19.7500  33.0000 Du        
  31447 ****        15.7500  19.7500  33.2500 Du        
  31448 ****        15.7500  19.7500  33.5000 Du        
  31449 ****        15.7500  19.7500  33.7500 Du        
  31450 ****        15.7500  19.7500  34.0000 Du        
  31451 ****        15.7500  19.7500  34.2500 Du        
  31452 ****        15.7500  19.7500  34.5000 Du        
  31453 ****        15.7500  19.7500  34.7500 Du        
  31454 ****        15.7500  19.7500  35.0000 Du        
  31455 ****        15.7500  19.7500  35.2500 Du        
  31456 ****        15.7500  20.0000  33.0000 Du        
  31457 ****        15.7500  20.0000  33.2500 Du        
  31458 ****        15.7500  20.0000  33.5000 Du        
  31459 ****        15.7500  20.0000  33.7500 Du        
  31460 ****        15.7500  20.0000  34.0000 Du        
  31461 ****        15.7500  20.0000  34.2500 Du        
  31462 ****        15.7500  20.0000  34.5000 Du        
  31463 ****        15.7500  20.0000  34.7500 Du        
  31464 ****        15.7500  20.0000  35.0000 Du        
  31465 ****        15.7500  20.0000  35.2500 Du        
  31466 ****        15.7500  20.2500  33.5000 Du        
  31467 ****        15.7500  20.2500  33.7500 Du        
  31468 ****        15.7500  20.2500  34.0000 Du        
  31469 ****        15.7500  20.2500  34.2500 Du        
  31470 ****        15.7500  20.2500  34.5000 Du        
  31471 ****        15.7500  20.2500  34.7500 Du        
  31472 ****        16.0000  -4.0000  26.0000 Du        
  31473 ****        16.0000   1.0000  10.5000 Du        
  31474 ****        16.0000   1.0000  10.7500 Du        
  31475 ****        16.0000   1.0000  11.0000 Du        
  31476 ****        16.0000   1.2500  10.5000 Du        
  31477 ****        16.0000   1.2500  10.7500 Du        
  31478 ****        16.0000   1.2500  11.0000 Du        
  31479 ****        16.0000   1.2500  11.2500 Du        
  31480 ****        16.0000   1.5000  10.5000 Du        
  31481 ****        16.0000   1.5000  10.7500 Du        
  31482 ****        16.0000   1.5000  11.0000 Du        
  31483 ****        16.0000   1.5000  11.2500 Du        
  31484 ****        16.0000   1.5000  11.5000 Du        
  31485 ****        16.0000   1.7500  10.7500 Du        
  31486 ****        16.0000   1.7500  11.0000 Du        
  31487 ****        16.0000   1.7500  11.2500 Du        
  31488 ****        16.0000   1.7500  11.5000 Du        
  31489 ****        16.0000   1.7500  11.7500 Du        
  31490 ****        16.0000   1.7500  12.0000 Du        
  31491 ****        16.0000   2.0000  11.0000 Du        
  31492 ****        16.0000   2.0000  11.2500 Du        
  31493 ****        16.0000   2.0000  11.5000 Du        
  31494 ****        16.0000   2.0000  11.7500 Du        
  31495 ****        16.0000   2.0000  12.0000 Du        
  31496 ****        16.0000   2.0000  12.2500 Du        
  31497 ****        16.0000   2.0000  12.5000 Du        
  31498 ****        16.0000   2.0000  12.7500 Du        
  31499 ****        16.0000   2.0000  13.0000 Du        
  31500 ****        16.0000   2.0000  19.7500 Du        
  31501 ****        16.0000   2.0000  20.0000 Du        
  31502 ****        16.0000   2.0000  20.2500 Du        
  31503 ****        16.0000   2.0000  20.5000 Du        
  31504 ****        16.0000   2.2500  11.2500 Du        
  31505 ****        16.0000   2.2500  11.5000 Du        
  31506 ****        16.0000   2.2500  11.7500 Du        
  31507 ****        16.0000   2.2500  12.0000 Du        
  31508 ****        16.0000   2.2500  12.2500 Du        
  31509 ****        16.0000   2.2500  12.5000 Du        
  31510 ****        16.0000   2.2500  12.7500 Du        
  31511 ****        16.0000   2.2500  13.0000 Du        
  31512 ****        16.0000   2.2500  13.2500 Du        
  31513 ****        16.0000   2.2500  19.5000 Du        
  31514 ****        16.0000   2.2500  19.7500 Du        
  31515 ****        16.0000   2.2500  20.0000 Du        
  31516 ****        16.0000   2.2500  20.2500 Du        
  31517 ****        16.0000   2.2500  20.5000 Du        
  31518 ****        16.0000   2.2500  20.7500 Du        
  31519 ****        16.0000   2.5000  11.5000 Du        
  31520 ****        16.0000   2.5000  11.7500 Du        
  31521 ****        16.0000   2.5000  12.0000 Du        
  31522 ****        16.0000   2.5000  12.2500 Du        
  31523 ****        16.0000   2.5000  12.5000 Du        
  31524 ****        16.0000   2.5000  12.7500 Du        
  31525 ****        16.0000   2.5000  13.0000 Du        
  31526 ****        16.0000   2.5000  13.2500 Du        
  31527 ****        16.0000   2.5000  18.7500 Du        
  31528 ****        16.0000   2.5000  19.0000 Du        
  31529 ****        16.0000   2.5000  19.2500 Du        
  31530 ****        16.0000   2.5000  19.5000 Du        
  31531 ****        16.0000   2.5000  19.7500 Du        
  31532 ****        16.0000   2.5000  20.0000 Du        
  31533 ****        16.0000   2.5000  20.2500 Du        
  31534 ****        16.0000   2.5000  20.5000 Du        
  31535 ****        16.0000   2.5000  20.7500 Du        
  31536 ****        16.0000   2.7500  11.7500 Du        
  31537 ****        16.0000   2.7500  12.0000 Du        
  31538 ****        16.0000   2.7500  12.2500 Du        
  31539 ****        16.0000   2.7500  12.5000 Du        
  31540 ****        16.0000   2.7500  12.7500 Du        
  31541 ****        16.0000   2.7500  13.0000 Du        
  31542 ****        16.0000   2.7500  18.7500 Du        
  31543 ****        16.0000   2.7500  19.0000 Du        
  31544 ****        16.0000   2.7500  19.2500 Du        
  31545 ****        16.0000   2.7500  19.5000 Du        
  31546 ****        16.0000   2.7500  19.7500 Du        
  31547 ****        16.0000   2.7500  20.0000 Du        
  31548 ****        16.0000   2.7500  20.2500 Du        
  31549 ****        16.0000   2.7500  20.5000 Du        
  31550 ****        16.0000   2.7500  20.7500 Du        
  31551 ****        16.0000   3.0000  12.0000 Du        
  31552 ****        16.0000   3.0000  12.2500 Du        
  31553 ****        16.0000   3.0000  12.5000 Du        
  31554 ****        16.0000   3.0000  12.7500 Du        
  31555 ****        16.0000   3.0000  18.7500 Du        
  31556 ****        16.0000   3.0000  19.0000 Du        
  31557 ****        16.0000   3.0000  19.2500 Du        
  31558 ****        16.0000   3.0000  19.5000 Du        
  31559 ****        16.0000   3.0000  19.7500 Du        
  31560 ****        16.0000   3.0000  20.0000 Du        
  31561 ****        16.0000   3.0000  20.2500 Du        
  31562 ****        16.0000   3.0000  20.5000 Du        
  31563 ****        16.0000   3.0000  20.7500 Du        
  31564 ****        16.0000   3.2500  18.7500 Du        
  31565 ****        16.0000   3.2500  19.0000 Du        
  31566 ****        16.0000   3.2500  19.2500 Du        
  31567 ****        16.0000   3.2500  19.5000 Du        
  31568 ****        16.0000   3.2500  19.7500 Du        
  31569 ****        16.0000   3.2500  20.0000 Du        
  31570 ****        16.0000   3.2500  20.2500 Du        
  31571 ****        16.0000   3.2500  20.5000 Du        
  31572 ****        16.0000   3.5000  18.7500 Du        
  31573 ****        16.0000   3.5000  19.0000 Du        
  31574 ****        16.0000   3.5000  19.2500 Du        
  31575 ****        16.0000   3.5000  19.5000 Du        
  31576 ****        16.0000   3.5000  19.7500 Du        
  31577 ****        16.0000   3.5000  20.0000 Du        
  31578 ****        16.0000   3.5000  20.2500 Du        
  31579 ****        16.0000   3.5000  20.5000 Du        
  31580 ****        16.0000   3.7500  19.0000 Du        
  31581 ****        16.0000   3.7500  19.2500 Du        
  31582 ****        16.0000   3.7500  19.5000 Du        
  31583 ****        16.0000   3.7500  19.7500 Du        
  31584 ****        16.0000   3.7500  20.0000 Du        
  31585 ****        16.0000   3.7500  20.2500 Du        
  31586 ****        16.0000   4.0000   5.0000 Du        
  31587 ****        16.0000   4.0000  19.0000 Du        
  31588 ****        16.0000   4.0000  19.2500 Du        
  31589 ****        16.0000   4.0000  19.5000 Du        
  31590 ****        16.0000   4.0000  19.7500 Du        
  31591 ****        16.0000   4.0000  20.0000 Du        
  31592 ****        16.0000   4.2500   4.5000 Du        
  31593 ****        16.0000   4.2500   4.7500 Du        
  31594 ****        16.0000   4.2500   5.0000 Du        
  31595 ****        16.0000   4.2500   5.2500 Du        
  31596 ****        16.0000   4.2500  19.2500 Du        
  31597 ****        16.0000   4.2500  19.5000 Du        
  31598 ****        16.0000   4.2500  19.7500 Du        
  31599 ****        16.0000   4.5000   4.0000 Du        
  31600 ****        16.0000   4.5000   4.2500 Du        
  31601 ****        16.0000   4.5000   4.5000 Du        
  31602 ****        16.0000   4.5000   4.7500 Du        
  31603 ****        16.0000   4.5000   5.0000 Du        
  31604 ****        16.0000   4.5000   5.2500 Du        
  31605 ****        16.0000   4.5000  19.2500 Du        
  31606 ****        16.0000   4.5000  19.5000 Du        
  31607 ****        16.0000   4.7500   4.0000 Du        
  31608 ****        16.0000   4.7500   4.2500 Du        
  31609 ****        16.0000   4.7500   4.5000 Du        
  31610 ****        16.0000   4.7500   4.7500 Du        
  31611 ****        16.0000   4.7500   5.0000 Du        
  31612 ****        16.0000   5.0000   4.0000 Du        
  31613 ****        16.0000   5.0000   4.2500 Du        
  31614 ****        16.0000   5.0000   4.5000 Du        
  31615 ****        16.0000   5.0000   4.7500 Du        
  31616 ****        16.0000   5.0000   5.0000 Du        
  31617 ****        16.0000   5.2500   3.7500 Du        
  31618 ****        16.0000   5.2500   4.0000 Du        
  31619 ****        16.0000   5.2500   4.2500 Du        
  31620 ****        16.0000   5.2500   4.5000 Du        
  31621 ****        16.0000   5.2500   4.7500 Du        
  31622 ****        16.0000   5.2500   5.0000 Du        
  31623 ****        16.0000   5.5000   3.5000 Du        
  31624 ****        16.0000   5.5000   3.7500 Du        
  31625 ****        16.0000   5.5000   4.0000 Du        
  31626 ****        16.0000   5.5000   4.2500 Du        
  31627 ****        16.0000   5.5000   4.5000 Du        
  31628 ****        16.0000   5.5000   4.7500 Du        
  31629 ****        16.0000   5.7500   3.5000 Du        
  31630 ****        16.0000   5.7500   3.7500 Du        
  31631 ****        16.0000   5.7500   4.0000 Du        
  31632 ****        16.0000   5.7500   4.2500 Du        
  31633 ****        16.0000   5.7500   4.5000 Du        
  31634 ****        16.0000   5.7500   4.7500 Du        
  31635 ****        16.0000   6.0000   3.5000 Du        
  31636 ****        16.0000   6.0000   3.7500 Du        
  31637 ****        16.0000   6.0000   4.0000 Du        
  31638 ****        16.0000   6.0000   4.2500 Du        
  31639 ****        16.0000   6.0000   4.5000 Du        
  31640 ****        16.0000   6.0000   4.7500 Du        
  31641 ****        16.0000   6.0000   5.0000 Du        
  31642 ****        16.0000   6.2500   3.5000 Du        
  31643 ****        16.0000   6.2500   3.7500 Du        
  31644 ****        16.0000   6.2500   4.0000 Du        
  31645 ****        16.0000   6.2500   4.2500 Du        
  31646 ****        16.0000   6.2500   4.5000 Du        
  31647 ****        16.0000   6.2500   4.7500 Du        
  31648 ****        16.0000   6.2500   5.0000 Du        
  31649 ****        16.0000   6.5000   3.5000 Du        
  31650 ****        16.0000   6.5000   3.7500 Du        
  31651 ****        16.0000   6.5000   4.0000 Du        
  31652 ****        16.0000   6.5000   4.2500 Du        
  31653 ****        16.0000   6.5000   4.5000 Du        
  31654 ****        16.0000   6.5000   4.7500 Du        
  31655 ****        16.0000   6.5000   5.0000 Du        
  31656 ****        16.0000   6.7500   3.5000 Du        
  31657 ****        16.0000   6.7500   3.7500 Du        
  31658 ****        16.0000   6.7500   4.0000 Du        
  31659 ****        16.0000   6.7500   4.2500 Du        
  31660 ****        16.0000   6.7500   4.5000 Du        
  31661 ****        16.0000   6.7500   4.7500 Du        
  31662 ****        16.0000   6.7500   5.0000 Du        
  31663 ****        16.0000   7.0000   3.5000 Du        
  31664 ****        16.0000   7.0000   3.7500 Du        
  31665 ****        16.0000   7.0000   4.0000 Du        
  31666 ****        16.0000   7.0000   4.2500 Du        
  31667 ****        16.0000   7.0000   4.5000 Du        
  31668 ****        16.0000   7.0000   4.7500 Du        
  31669 ****        16.0000   7.0000   5.0000 Du        
  31670 ****        16.0000   7.2500   3.5000 Du        
  31671 ****        16.0000   7.2500   3.7500 Du        
  31672 ****        16.0000   7.2500   4.0000 Du        
  31673 ****        16.0000   7.2500   4.2500 Du        
  31674 ****        16.0000   7.2500   4.5000 Du        
  31675 ****        16.0000   7.2500   4.7500 Du        
  31676 ****        16.0000   7.5000   3.7500 Du        
  31677 ****        16.0000   7.5000   4.0000 Du        
  31678 ****        16.0000   7.5000   4.2500 Du        
  31679 ****        16.0000   9.7500  35.7500 Du        
  31680 ****        16.0000   9.7500  36.0000 Du        
  31681 ****        16.0000   9.7500  36.2500 Du        
  31682 ****        16.0000   9.7500  36.5000 Du        
  31683 ****        16.0000   9.7500  36.7500 Du        
  31684 ****        16.0000  10.0000  20.2500 Du        
  31685 ****        16.0000  10.0000  20.5000 Du        
  31686 ****        16.0000  10.0000  20.7500 Du        
  31687 ****        16.0000  10.0000  21.0000 Du        
  31688 ****        16.0000  10.0000  35.7500 Du        
  31689 ****        16.0000  10.0000  36.0000 Du        
  31690 ****        16.0000  10.0000  36.2500 Du        
  31691 ****        16.0000  10.0000  36.5000 Du        
  31692 ****        16.0000  10.0000  36.7500 Du        
  31693 ****        16.0000  10.0000  37.0000 Du        
  31694 ****        16.0000  10.2500  20.2500 Du        
  31695 ****        16.0000  10.2500  20.5000 Du        
  31696 ****        16.0000  10.2500  20.7500 Du        
  31697 ****        16.0000  10.2500  21.0000 Du        
  31698 ****        16.0000  10.2500  21.2500 Du        
  31699 ****        16.0000  10.2500  21.5000 Du        
  31700 ****        16.0000  10.2500  35.7500 Du        
  31701 ****        16.0000  10.2500  36.0000 Du        
  31702 ****        16.0000  10.2500  36.2500 Du        
  31703 ****        16.0000  10.2500  36.5000 Du        
  31704 ****        16.0000  10.2500  36.7500 Du        
  31705 ****        16.0000  10.2500  37.0000 Du        
  31706 ****        16.0000  10.2500  37.2500 Du        
  31707 ****        16.0000  10.5000  20.5000 Du        
  31708 ****        16.0000  10.5000  20.7500 Du        
  31709 ****        16.0000  10.5000  21.0000 Du        
  31710 ****        16.0000  10.5000  21.2500 Du        
  31711 ****        16.0000  10.5000  21.5000 Du        
  31712 ****        16.0000  10.5000  35.7500 Du        
  31713 ****        16.0000  10.5000  36.0000 Du        
  31714 ****        16.0000  10.5000  36.2500 Du        
  31715 ****        16.0000  10.5000  36.5000 Du        
  31716 ****        16.0000  10.5000  36.7500 Du        
  31717 ****        16.0000  10.5000  37.0000 Du        
  31718 ****        16.0000  10.5000  37.2500 Du        
  31719 ****        16.0000  10.5000  37.5000 Du        
  31720 ****        16.0000  10.7500  20.7500 Du        
  31721 ****        16.0000  10.7500  21.0000 Du        
  31722 ****        16.0000  10.7500  21.2500 Du        
  31723 ****        16.0000  10.7500  21.5000 Du        
  31724 ****        16.0000  10.7500  35.7500 Du        
  31725 ****        16.0000  10.7500  36.0000 Du        
  31726 ****        16.0000  10.7500  36.2500 Du        
  31727 ****        16.0000  10.7500  36.5000 Du        
  31728 ****        16.0000  10.7500  36.7500 Du        
  31729 ****        16.0000  10.7500  37.0000 Du        
  31730 ****        16.0000  10.7500  37.2500 Du        
  31731 ****        16.0000  10.7500  37.5000 Du        
  31732 ****        16.0000  11.0000  21.0000 Du        
  31733 ****        16.0000  11.0000  21.2500 Du        
  31734 ****        16.0000  11.0000  21.5000 Du        
  31735 ****        16.0000  11.0000  35.7500 Du        
  31736 ****        16.0000  11.0000  36.0000 Du        
  31737 ****        16.0000  11.0000  36.2500 Du        
  31738 ****        16.0000  11.0000  36.5000 Du        
  31739 ****        16.0000  11.0000  36.7500 Du        
  31740 ****        16.0000  11.0000  37.0000 Du        
  31741 ****        16.0000  11.0000  37.2500 Du        
  31742 ****        16.0000  11.0000  37.5000 Du        
  31743 ****        16.0000  11.0000  37.7500 Du        
  31744 ****        16.0000  11.2500  36.0000 Du        
  31745 ****        16.0000  11.2500  36.2500 Du        
  31746 ****        16.0000  11.2500  36.5000 Du        
  31747 ****        16.0000  11.2500  36.7500 Du        
  31748 ****        16.0000  11.2500  37.0000 Du        
  31749 ****        16.0000  11.2500  37.2500 Du        
  31750 ****        16.0000  11.2500  37.5000 Du        
  31751 ****        16.0000  11.2500  37.7500 Du        
  31752 ****        16.0000  11.5000  36.2500 Du        
  31753 ****        16.0000  11.5000  36.5000 Du        
  31754 ****        16.0000  11.5000  36.7500 Du        
  31755 ****        16.0000  11.5000  37.0000 Du        
  31756 ****        16.0000  11.5000  37.2500 Du        
  31757 ****        16.0000  11.5000  37.5000 Du        
  31758 ****        16.0000  11.7500  36.5000 Du        
  31759 ****        16.0000  11.7500  36.7500 Du        
  31760 ****        16.0000  11.7500  37.0000 Du        
  31761 ****        16.0000  11.7500  37.2500 Du        
  31762 ****        16.0000  11.7500  37.5000 Du        
  31763 ****        16.0000  12.0000  36.7500 Du        
  31764 ****        16.0000  12.0000  37.0000 Du        
  31765 ****        16.0000  12.0000  37.2500 Du        
  31766 ****        16.0000  12.2500  37.2500 Du        
  31767 ****        16.0000  13.0000  13.2500 Du        
  31768 ****        16.0000  13.2500  13.2500 Du        
  31769 ****        16.0000  13.2500  13.5000 Du        
  31770 ****        16.0000  13.2500  13.7500 Du        
  31771 ****        16.0000  13.2500  14.0000 Du        
  31772 ****        16.0000  13.2500  14.2500 Du        
  31773 ****        16.0000  13.2500  14.5000 Du        
  31774 ****        16.0000  13.2500  14.7500 Du        
  31775 ****        16.0000  13.2500  15.0000 Du        
  31776 ****        16.0000  13.2500  15.2500 Du        
  31777 ****        16.0000  13.5000  13.2500 Du        
  31778 ****        16.0000  13.5000  13.5000 Du        
  31779 ****        16.0000  13.5000  13.7500 Du        
  31780 ****        16.0000  13.5000  14.0000 Du        
  31781 ****        16.0000  13.5000  14.2500 Du        
  31782 ****        16.0000  13.5000  14.5000 Du        
  31783 ****        16.0000  13.5000  14.7500 Du        
  31784 ****        16.0000  13.5000  15.0000 Du        
  31785 ****        16.0000  13.5000  15.2500 Du        
  31786 ****        16.0000  13.5000  15.5000 Du        
  31787 ****        16.0000  13.7500  13.5000 Du        
  31788 ****        16.0000  13.7500  13.7500 Du        
  31789 ****        16.0000  13.7500  14.0000 Du        
  31790 ****        16.0000  13.7500  14.2500 Du        
  31791 ****        16.0000  13.7500  14.5000 Du        
  31792 ****        16.0000  13.7500  14.7500 Du        
  31793 ****        16.0000  13.7500  15.0000 Du        
  31794 ****        16.0000  13.7500  15.2500 Du        
  31795 ****        16.0000  13.7500  15.5000 Du        
  31796 ****        16.0000  13.7500  37.7500 Du        
  31797 ****        16.0000  13.7500  38.0000 Du        
  31798 ****        16.0000  14.0000  13.5000 Du        
  31799 ****        16.0000  14.0000  13.7500 Du        
  31800 ****        16.0000  14.0000  14.0000 Du        
  31801 ****        16.0000  14.0000  14.2500 Du        
  31802 ****        16.0000  14.0000  14.5000 Du        
  31803 ****        16.0000  14.0000  14.7500 Du        
  31804 ****        16.0000  14.0000  15.0000 Du        
  31805 ****        16.0000  14.0000  15.2500 Du        
  31806 ****        16.0000  14.0000  15.5000 Du        
  31807 ****        16.0000  14.0000  15.7500 Du        
  31808 ****        16.0000  14.0000  37.7500 Du        
  31809 ****        16.0000  14.0000  38.0000 Du        
  31810 ****        16.0000  14.2500  13.5000 Du        
  31811 ****        16.0000  14.2500  13.7500 Du        
  31812 ****        16.0000  14.2500  14.0000 Du        
  31813 ****        16.0000  14.2500  14.2500 Du        
  31814 ****        16.0000  14.2500  14.5000 Du        
  31815 ****        16.0000  14.2500  14.7500 Du        
  31816 ****        16.0000  14.2500  15.0000 Du        
  31817 ****        16.0000  14.2500  15.2500 Du        
  31818 ****        16.0000  14.2500  15.5000 Du        
  31819 ****        16.0000  14.2500  15.7500 Du        
  31820 ****        16.0000  14.2500  38.0000 Du        
  31821 ****        16.0000  14.2500  38.2500 Du        
  31822 ****        16.0000  14.5000  13.7500 Du        
  31823 ****        16.0000  14.5000  14.0000 Du        
  31824 ****        16.0000  14.5000  14.2500 Du        
  31825 ****        16.0000  14.5000  14.5000 Du        
  31826 ****        16.0000  14.5000  14.7500 Du        
  31827 ****        16.0000  14.5000  15.0000 Du        
  31828 ****        16.0000  14.5000  15.2500 Du        
  31829 ****        16.0000  14.5000  15.5000 Du        
  31830 ****        16.0000  14.5000  15.7500 Du        
  31831 ****        16.0000  14.5000  38.0000 Du        
  31832 ****        16.0000  14.5000  38.2500 Du        
  31833 ****        16.0000  14.7500  13.5000 Du        
  31834 ****        16.0000  14.7500  13.7500 Du        
  31835 ****        16.0000  14.7500  14.0000 Du        
  31836 ****        16.0000  14.7500  14.2500 Du        
  31837 ****        16.0000  14.7500  14.5000 Du        
  31838 ****        16.0000  14.7500  14.7500 Du        
  31839 ****        16.0000  14.7500  15.0000 Du        
  31840 ****        16.0000  14.7500  15.2500 Du        
  31841 ****        16.0000  14.7500  15.5000 Du        
  31842 ****        16.0000  14.7500  15.7500 Du        
  31843 ****        16.0000  14.7500  38.0000 Du        
  31844 ****        16.0000  14.7500  38.2500 Du        
  31845 ****        16.0000  15.0000  13.5000 Du        
  31846 ****        16.0000  15.0000  13.7500 Du        
  31847 ****        16.0000  15.0000  14.0000 Du        
  31848 ****        16.0000  15.0000  14.2500 Du        
  31849 ****        16.0000  15.0000  14.5000 Du        
  31850 ****        16.0000  15.0000  14.7500 Du        
  31851 ****        16.0000  15.0000  15.0000 Du        
  31852 ****        16.0000  15.0000  15.2500 Du        
  31853 ****        16.0000  15.0000  15.5000 Du        
  31854 ****        16.0000  15.0000  15.7500 Du        
  31855 ****        16.0000  15.0000  38.0000 Du        
  31856 ****        16.0000  15.0000  38.2500 Du        
  31857 ****        16.0000  15.0000  38.5000 Du        
  31858 ****        16.0000  15.2500  13.2500 Du        
  31859 ****        16.0000  15.2500  13.5000 Du        
  31860 ****        16.0000  15.2500  13.7500 Du        
  31861 ****        16.0000  15.2500  14.0000 Du        
  31862 ****        16.0000  15.2500  14.2500 Du        
  31863 ****        16.0000  15.2500  14.5000 Du        
  31864 ****        16.0000  15.2500  14.7500 Du        
  31865 ****        16.0000  15.2500  15.0000 Du        
  31866 ****        16.0000  15.2500  15.2500 Du        
  31867 ****        16.0000  15.2500  15.5000 Du        
  31868 ****        16.0000  15.2500  38.2500 Du        
  31869 ****        16.0000  15.2500  38.5000 Du        
  31870 ****        16.0000  15.5000  13.2500 Du        
  31871 ****        16.0000  15.5000  13.5000 Du        
  31872 ****        16.0000  15.5000  13.7500 Du        
  31873 ****        16.0000  15.5000  14.0000 Du        
  31874 ****        16.0000  15.5000  14.2500 Du        
  31875 ****        16.0000  15.5000  14.5000 Du        
  31876 ****        16.0000  15.5000  14.7500 Du        
  31877 ****        16.0000  15.5000  15.0000 Du        
  31878 ****        16.0000  15.5000  15.2500 Du        
  31879 ****        16.0000  15.5000  15.5000 Du        
  31880 ****        16.0000  15.7500  13.0000 Du        
  31881 ****        16.0000  15.7500  13.2500 Du        
  31882 ****        16.0000  15.7500  13.5000 Du        
  31883 ****        16.0000  15.7500  13.7500 Du        
  31884 ****        16.0000  15.7500  14.0000 Du        
  31885 ****        16.0000  15.7500  14.2500 Du        
  31886 ****        16.0000  15.7500  14.5000 Du        
  31887 ****        16.0000  15.7500  14.7500 Du        
  31888 ****        16.0000  15.7500  15.0000 Du        
  31889 ****        16.0000  15.7500  15.2500 Du        
  31890 ****        16.0000  15.7500  15.5000 Du        
  31891 ****        16.0000  16.0000  12.7500 Du        
  31892 ****        16.0000  16.0000  13.0000 Du        
  31893 ****        16.0000  16.0000  13.2500 Du        
  31894 ****        16.0000  16.0000  13.5000 Du        
  31895 ****        16.0000  16.0000  13.7500 Du        
  31896 ****        16.0000  16.0000  14.0000 Du        
  31897 ****        16.0000  16.0000  14.2500 Du        
  31898 ****        16.0000  16.0000  14.5000 Du        
  31899 ****        16.0000  16.0000  14.7500 Du        
  31900 ****        16.0000  16.0000  15.0000 Du        
  31901 ****        16.0000  16.0000  15.2500 Du        
  31902 ****        16.0000  16.2500  11.7500 Du        
  31903 ****        16.0000  16.2500  12.0000 Du        
  31904 ****        16.0000  16.2500  12.2500 Du        
  31905 ****        16.0000  16.2500  12.5000 Du        
  31906 ****        16.0000  16.2500  12.7500 Du        
  31907 ****        16.0000  16.2500  13.0000 Du        
  31908 ****        16.0000  16.2500  13.2500 Du        
  31909 ****        16.0000  16.2500  13.5000 Du        
  31910 ****        16.0000  16.2500  13.7500 Du        
  31911 ****        16.0000  16.2500  14.0000 Du        
  31912 ****        16.0000  16.2500  14.7500 Du        
  31913 ****        16.0000  16.2500  15.0000 Du        
  31914 ****        16.0000  16.5000  11.0000 Du        
  31915 ****        16.0000  16.5000  11.2500 Du        
  31916 ****        16.0000  16.5000  11.5000 Du        
  31917 ****        16.0000  16.5000  11.7500 Du        
  31918 ****        16.0000  16.5000  12.0000 Du        
  31919 ****        16.0000  16.5000  12.2500 Du        
  31920 ****        16.0000  16.5000  12.5000 Du        
  31921 ****        16.0000  16.5000  12.7500 Du        
  31922 ****        16.0000  16.7500  10.7500 Du        
  31923 ****        16.0000  16.7500  11.0000 Du        
  31924 ****        16.0000  16.7500  11.2500 Du        
  31925 ****        16.0000  16.7500  11.5000 Du        
  31926 ****        16.0000  16.7500  11.7500 Du        
  31927 ****        16.0000  16.7500  12.0000 Du        
  31928 ****        16.0000  16.7500  12.2500 Du        
  31929 ****        16.0000  17.0000  10.7500 Du        
  31930 ****        16.0000  17.0000  11.0000 Du        
  31931 ****        16.0000  17.0000  11.2500 Du        
  31932 ****        16.0000  17.0000  11.5000 Du        
  31933 ****        16.0000  17.2500  10.5000 Du        
  31934 ****        16.0000  17.2500  10.7500 Du        
  31935 ****        16.0000  17.2500  11.0000 Du        
  31936 ****        16.0000  17.2500  11.2500 Du        
  31937 ****        16.0000  17.5000  10.5000 Du        
  31938 ****        16.0000  17.5000  10.7500 Du        
  31939 ****        16.0000  17.5000  31.7500 Du        
  31940 ****        16.0000  17.7500  31.5000 Du        
  31941 ****        16.0000  17.7500  31.7500 Du        
  31942 ****        16.0000  17.7500  32.0000 Du        
  31943 ****        16.0000  18.0000  31.5000 Du        
  31944 ****        16.0000  18.0000  31.7500 Du        
  31945 ****        16.0000  18.0000  32.0000 Du        
  31946 ****        16.0000  18.0000  32.2500 Du        
  31947 ****        16.0000  18.2500  31.5000 Du        
  31948 ****        16.0000  18.2500  31.7500 Du        
  31949 ****        16.0000  18.2500  32.0000 Du        
  31950 ****        16.0000  18.2500  32.2500 Du        
  31951 ****        16.0000  18.2500  32.5000 Du        
  31952 ****        16.0000  18.5000  31.7500 Du        
  31953 ****        16.0000  18.5000  32.0000 Du        
  31954 ****        16.0000  18.5000  32.2500 Du        
  31955 ****        16.0000  18.5000  32.5000 Du        
  31956 ****        16.0000  18.5000  32.7500 Du        
  31957 ****        16.0000  18.5000  33.0000 Du        
  31958 ****        16.0000  18.7500   8.7500 Du        
  31959 ****        16.0000  18.7500   9.0000 Du        
  31960 ****        16.0000  18.7500  32.0000 Du        
  31961 ****        16.0000  18.7500  32.2500 Du        
  31962 ****        16.0000  18.7500  32.5000 Du        
  31963 ****        16.0000  18.7500  32.7500 Du        
  31964 ****        16.0000  18.7500  33.0000 Du        
  31965 ****        16.0000  18.7500  33.2500 Du        
  31966 ****        16.0000  19.0000   8.2500 Du        
  31967 ****        16.0000  19.0000   8.5000 Du        
  31968 ****        16.0000  19.0000   8.7500 Du        
  31969 ****        16.0000  19.0000  32.2500 Du        
  31970 ****        16.0000  19.0000  32.5000 Du        
  31971 ****        16.0000  19.0000  32.7500 Du        
  31972 ****        16.0000  19.0000  33.0000 Du        
  31973 ****        16.0000  19.0000  33.2500 Du        
  31974 ****        16.0000  19.0000  33.5000 Du        
  31975 ****        16.0000  19.0000  33.7500 Du        
  31976 ****        16.0000  19.0000  34.0000 Du        
  31977 ****        16.0000  19.0000  34.2500 Du        
  31978 ****        16.0000  19.2500   8.2500 Du        
  31979 ****        16.0000  19.2500   8.5000 Du        
  31980 ****        16.0000  19.2500   8.7500 Du        
  31981 ****        16.0000  19.2500  32.7500 Du        
  31982 ****        16.0000  19.2500  33.0000 Du        
  31983 ****        16.0000  19.2500  33.2500 Du        
  31984 ****        16.0000  19.2500  33.5000 Du        
  31985 ****        16.0000  19.2500  33.7500 Du        
  31986 ****        16.0000  19.2500  34.0000 Du        
  31987 ****        16.0000  19.2500  34.2500 Du        
  31988 ****        16.0000  19.2500  34.5000 Du        
  31989 ****        16.0000  19.2500  34.7500 Du        
  31990 ****        16.0000  19.5000  33.0000 Du        
  31991 ****        16.0000  19.5000  33.2500 Du        
  31992 ****        16.0000  19.5000  33.5000 Du        
  31993 ****        16.0000  19.5000  33.7500 Du        
  31994 ****        16.0000  19.5000  34.0000 Du        
  31995 ****        16.0000  19.5000  34.2500 Du        
  31996 ****        16.0000  19.5000  34.5000 Du        
  31997 ****        16.0000  19.5000  34.7500 Du        
  31998 ****        16.0000  19.5000  35.0000 Du        
  31999 ****        16.0000  19.7500  33.2500 Du        
  32000 ****        16.0000  19.7500  33.5000 Du        
  32001 ****        16.0000  19.7500  33.7500 Du        
  32002 ****        16.0000  19.7500  34.0000 Du        
  32003 ****        16.0000  19.7500  34.2500 Du        
  32004 ****        16.0000  19.7500  34.5000 Du        
  32005 ****        16.0000  19.7500  34.7500 Du        
  32006 ****        16.0000  19.7500  35.0000 Du        
  32007 ****        16.0000  20.0000  34.0000 Du        
  32008 ****        16.0000  20.0000  34.2500 Du        
  32009 ****        16.0000  20.0000  34.5000 Du        
  32010 ****        16.0000  20.0000  34.7500 Du        
  32011 ****        16.0000  20.0000  35.0000 Du        
  32012 ****        16.0000  20.0000  35.2500 Du        
  32013 ****        16.0000  20.2500  34.7500 Du        
  32014 ****        16.2500  -4.0000  26.0000 Du        
  32015 ****        16.2500  -4.0000  26.2500 Du        
  32016 ****        16.2500  -4.0000  26.5000 Du        
  32017 ****        16.2500  -3.7500  26.0000 Du        
  32018 ****        16.2500  -3.7500  26.2500 Du        
  32019 ****        16.2500   1.0000  10.5000 Du        
  32020 ****        16.2500   1.0000  10.7500 Du        
  32021 ****        16.2500   1.2500  10.5000 Du        
  32022 ****        16.2500   1.2500  10.7500 Du        
  32023 ****        16.2500   1.2500  11.0000 Du        
  32024 ****        16.2500   1.5000  10.5000 Du        
  32025 ****        16.2500   1.5000  10.7500 Du        
  32026 ****        16.2500   1.5000  11.0000 Du        
  32027 ****        16.2500   1.5000  11.2500 Du        
  32028 ****        16.2500   1.7500  10.7500 Du        
  32029 ****        16.2500   1.7500  11.0000 Du        
  32030 ****        16.2500   1.7500  11.2500 Du        
  32031 ****        16.2500   1.7500  11.5000 Du        
  32032 ****        16.2500   1.7500  11.7500 Du        
  32033 ****        16.2500   2.0000  11.0000 Du        
  32034 ****        16.2500   2.0000  11.2500 Du        
  32035 ****        16.2500   2.0000  11.5000 Du        
  32036 ****        16.2500   2.0000  11.7500 Du        
  32037 ****        16.2500   2.0000  12.0000 Du        
  32038 ****        16.2500   2.0000  12.2500 Du        
  32039 ****        16.2500   2.0000  19.7500 Du        
  32040 ****        16.2500   2.0000  20.0000 Du        
  32041 ****        16.2500   2.0000  20.2500 Du        
  32042 ****        16.2500   2.0000  20.5000 Du        
  32043 ****        16.2500   2.0000  20.7500 Du        
  32044 ****        16.2500   2.2500  11.5000 Du        
  32045 ****        16.2500   2.2500  11.7500 Du        
  32046 ****        16.2500   2.2500  12.0000 Du        
  32047 ****        16.2500   2.2500  12.2500 Du        
  32048 ****        16.2500   2.2500  12.5000 Du        
  32049 ****        16.2500   2.2500  12.7500 Du        
  32050 ****        16.2500   2.2500  19.7500 Du        
  32051 ****        16.2500   2.2500  20.0000 Du        
  32052 ****        16.2500   2.2500  20.2500 Du        
  32053 ****        16.2500   2.2500  20.5000 Du        
  32054 ****        16.2500   2.2500  20.7500 Du        
  32055 ****        16.2500   2.2500  21.0000 Du        
  32056 ****        16.2500   2.5000  11.7500 Du        
  32057 ****        16.2500   2.5000  12.0000 Du        
  32058 ****        16.2500   2.5000  12.2500 Du        
  32059 ****        16.2500   2.5000  12.5000 Du        
  32060 ****        16.2500   2.5000  12.7500 Du        
  32061 ****        16.2500   2.5000  13.0000 Du        
  32062 ****        16.2500   2.5000  19.7500 Du        
  32063 ****        16.2500   2.5000  20.0000 Du        
  32064 ****        16.2500   2.5000  20.2500 Du        
  32065 ****        16.2500   2.5000  20.5000 Du        
  32066 ****        16.2500   2.5000  20.7500 Du        
  32067 ****        16.2500   2.5000  21.0000 Du        
  32068 ****        16.2500   2.7500  12.0000 Du        
  32069 ****        16.2500   2.7500  12.2500 Du        
  32070 ****        16.2500   2.7500  12.5000 Du        
  32071 ****        16.2500   2.7500  12.7500 Du        
  32072 ****        16.2500   2.7500  13.0000 Du        
  32073 ****        16.2500   2.7500  19.7500 Du        
  32074 ****        16.2500   2.7500  20.0000 Du        
  32075 ****        16.2500   2.7500  20.2500 Du        
  32076 ****        16.2500   2.7500  20.5000 Du        
  32077 ****        16.2500   2.7500  20.7500 Du        
  32078 ****        16.2500   2.7500  21.0000 Du        
  32079 ****        16.2500   3.0000  12.0000 Du        
  32080 ****        16.2500   3.0000  12.2500 Du        
  32081 ****        16.2500   3.0000  12.5000 Du        
  32082 ****        16.2500   3.0000  12.7500 Du        
  32083 ****        16.2500   3.0000  20.0000 Du        
  32084 ****        16.2500   3.0000  20.2500 Du        
  32085 ****        16.2500   3.0000  20.5000 Du        
  32086 ****        16.2500   3.0000  20.7500 Du        
  32087 ****        16.2500   3.2500  20.0000 Du        
  32088 ****        16.2500   3.2500  20.2500 Du        
  32089 ****        16.2500   3.2500  20.5000 Du        
  32090 ****        16.2500   3.2500  20.7500 Du        
  32091 ****        16.2500   3.5000  19.7500 Du        
  32092 ****        16.2500   3.5000  20.0000 Du        
  32093 ****        16.2500   3.5000  20.2500 Du        
  32094 ****        16.2500   3.5000  20.5000 Du        
  32095 ****        16.2500   4.2500   3.5000 Du        
  32096 ****        16.2500   4.2500   3.7500 Du        
  32097 ****        16.2500   4.2500   4.0000 Du        
  32098 ****        16.2500   4.2500   4.2500 Du        
  32099 ****        16.2500   4.2500   4.5000 Du        
  32100 ****        16.2500   4.2500   4.7500 Du        
  32101 ****        16.2500   4.2500   5.0000 Du        
  32102 ****        16.2500   4.5000   3.5000 Du        
  32103 ****        16.2500   4.5000   3.7500 Du        
  32104 ****        16.2500   4.5000   4.0000 Du        
  32105 ****        16.2500   4.5000   4.2500 Du        
  32106 ****        16.2500   4.5000   4.5000 Du        
  32107 ****        16.2500   4.5000   4.7500 Du        
  32108 ****        16.2500   4.5000   5.0000 Du        
  32109 ****        16.2500   4.7500   3.5000 Du        
  32110 ****        16.2500   4.7500   3.7500 Du        
  32111 ****        16.2500   4.7500   4.0000 Du        
  32112 ****        16.2500   4.7500   4.2500 Du        
  32113 ****        16.2500   4.7500   4.5000 Du        
  32114 ****        16.2500   4.7500   4.7500 Du        
  32115 ****        16.2500   5.0000   3.5000 Du        
  32116 ****        16.2500   5.0000   3.7500 Du        
  32117 ****        16.2500   5.0000   4.0000 Du        
  32118 ****        16.2500   5.0000   4.2500 Du        
  32119 ****        16.2500   5.0000   4.5000 Du        
  32120 ****        16.2500   5.0000   4.7500 Du        
  32121 ****        16.2500   5.2500   3.5000 Du        
  32122 ****        16.2500   5.2500   3.7500 Du        
  32123 ****        16.2500   5.2500   4.0000 Du        
  32124 ****        16.2500   5.2500   4.2500 Du        
  32125 ****        16.2500   5.2500   4.5000 Du        
  32126 ****        16.2500   5.2500   4.7500 Du        
  32127 ****        16.2500   5.5000   3.5000 Du        
  32128 ****        16.2500   5.5000   3.7500 Du        
  32129 ****        16.2500   5.5000   4.0000 Du        
  32130 ****        16.2500   5.5000   4.2500 Du        
  32131 ****        16.2500   5.5000   4.5000 Du        
  32132 ****        16.2500   5.5000   4.7500 Du        
  32133 ****        16.2500   5.7500   3.5000 Du        
  32134 ****        16.2500   5.7500   3.7500 Du        
  32135 ****        16.2500   5.7500   4.0000 Du        
  32136 ****        16.2500   5.7500   4.2500 Du        
  32137 ****        16.2500   5.7500   4.5000 Du        
  32138 ****        16.2500   5.7500   4.7500 Du        
  32139 ****        16.2500   6.0000   3.5000 Du        
  32140 ****        16.2500   6.0000   3.7500 Du        
  32141 ****        16.2500   6.0000   4.0000 Du        
  32142 ****        16.2500   6.0000   4.2500 Du        
  32143 ****        16.2500   6.0000   4.5000 Du        
  32144 ****        16.2500   6.0000   4.7500 Du        
  32145 ****        16.2500   6.2500   3.5000 Du        
  32146 ****        16.2500   6.2500   3.7500 Du        
  32147 ****        16.2500   6.2500   4.0000 Du        
  32148 ****        16.2500   6.2500   4.2500 Du        
  32149 ****        16.2500   6.2500   4.5000 Du        
  32150 ****        16.2500   6.2500   4.7500 Du        
  32151 ****        16.2500   6.5000   3.5000 Du        
  32152 ****        16.2500   6.5000   3.7500 Du        
  32153 ****        16.2500   6.5000   4.0000 Du        
  32154 ****        16.2500   6.5000   4.2500 Du        
  32155 ****        16.2500   6.5000   4.5000 Du        
  32156 ****        16.2500   6.5000   4.7500 Du        
  32157 ****        16.2500   6.7500   3.5000 Du        
  32158 ****        16.2500   6.7500   3.7500 Du        
  32159 ****        16.2500   6.7500   4.0000 Du        
  32160 ****        16.2500   6.7500   4.2500 Du        
  32161 ****        16.2500   6.7500   4.5000 Du        
  32162 ****        16.2500   6.7500   4.7500 Du        
  32163 ****        16.2500   7.0000   3.5000 Du        
  32164 ****        16.2500   7.0000   3.7500 Du        
  32165 ****        16.2500   7.0000   4.0000 Du        
  32166 ****        16.2500   7.0000   4.2500 Du        
  32167 ****        16.2500   7.0000   4.5000 Du        
  32168 ****        16.2500   7.0000   4.7500 Du        
  32169 ****        16.2500   7.2500   3.5000 Du        
  32170 ****        16.2500   7.2500   3.7500 Du        
  32171 ****        16.2500   7.2500   4.0000 Du        
  32172 ****        16.2500   7.2500   4.2500 Du        
  32173 ****        16.2500   7.2500   4.5000 Du        
  32174 ****        16.2500   7.2500   4.7500 Du        
  32175 ****        16.2500   7.5000   3.7500 Du        
  32176 ****        16.2500   7.5000   4.0000 Du        
  32177 ****        16.2500   7.5000   4.2500 Du        
  32178 ****        16.2500   7.7500   3.7500 Du        
  32179 ****        16.2500   7.7500   4.0000 Du        
  32180 ****        16.2500  10.0000  20.2500 Du        
  32181 ****        16.2500  10.0000  20.5000 Du        
  32182 ****        16.2500  10.0000  20.7500 Du        
  32183 ****        16.2500  10.0000  21.0000 Du        
  32184 ****        16.2500  10.0000  35.7500 Du        
  32185 ****        16.2500  10.0000  36.0000 Du        
  32186 ****        16.2500  10.0000  36.2500 Du        
  32187 ****        16.2500  10.0000  36.5000 Du        
  32188 ****        16.2500  10.0000  36.7500 Du        
  32189 ****        16.2500  10.2500  20.2500 Du        
  32190 ****        16.2500  10.2500  20.5000 Du        
  32191 ****        16.2500  10.2500  20.7500 Du        
  32192 ****        16.2500  10.2500  21.0000 Du        
  32193 ****        16.2500  10.2500  21.2500 Du        
  32194 ****        16.2500  10.2500  21.5000 Du        
  32195 ****        16.2500  10.2500  35.7500 Du        
  32196 ****        16.2500  10.2500  36.0000 Du        
  32197 ****        16.2500  10.2500  36.2500 Du        
  32198 ****        16.2500  10.2500  36.5000 Du        
  32199 ****        16.2500  10.2500  36.7500 Du        
  32200 ****        16.2500  10.2500  37.0000 Du        
  32201 ****        16.2500  10.5000  20.2500 Du        
  32202 ****        16.2500  10.5000  20.5000 Du        
  32203 ****        16.2500  10.5000  20.7500 Du        
  32204 ****        16.2500  10.5000  21.0000 Du        
  32205 ****        16.2500  10.5000  21.2500 Du        
  32206 ****        16.2500  10.5000  21.5000 Du        
  32207 ****        16.2500  10.5000  35.7500 Du        
  32208 ****        16.2500  10.5000  36.0000 Du        
  32209 ****        16.2500  10.5000  36.2500 Du        
  32210 ****        16.2500  10.5000  36.5000 Du        
  32211 ****        16.2500  10.5000  36.7500 Du        
  32212 ****        16.2500  10.5000  37.0000 Du        
  32213 ****        16.2500  10.5000  37.2500 Du        
  32214 ****        16.2500  10.7500  20.5000 Du        
  32215 ****        16.2500  10.7500  20.7500 Du        
  32216 ****        16.2500  10.7500  21.0000 Du        
  32217 ****        16.2500  10.7500  21.2500 Du        
  32218 ****        16.2500  10.7500  21.5000 Du        
  32219 ****        16.2500  10.7500  21.7500 Du        
  32220 ****        16.2500  10.7500  35.7500 Du        
  32221 ****        16.2500  10.7500  36.0000 Du        
  32222 ****        16.2500  10.7500  36.2500 Du        
  32223 ****        16.2500  10.7500  36.5000 Du        
  32224 ****        16.2500  10.7500  36.7500 Du        
  32225 ****        16.2500  10.7500  37.0000 Du        
  32226 ****        16.2500  10.7500  37.2500 Du        
  32227 ****        16.2500  10.7500  37.5000 Du        
  32228 ****        16.2500  11.0000  20.7500 Du        
  32229 ****        16.2500  11.0000  21.0000 Du        
  32230 ****        16.2500  11.0000  21.2500 Du        
  32231 ****        16.2500  11.0000  21.5000 Du        
  32232 ****        16.2500  11.0000  21.7500 Du        
  32233 ****        16.2500  11.0000  35.7500 Du        
  32234 ****        16.2500  11.0000  36.0000 Du        
  32235 ****        16.2500  11.0000  36.2500 Du        
  32236 ****        16.2500  11.0000  36.5000 Du        
  32237 ****        16.2500  11.0000  36.7500 Du        
  32238 ****        16.2500  11.0000  37.0000 Du        
  32239 ****        16.2500  11.0000  37.2500 Du        
  32240 ****        16.2500  11.0000  37.5000 Du        
  32241 ****        16.2500  11.0000  37.7500 Du        
  32242 ****        16.2500  11.2500  21.2500 Du        
  32243 ****        16.2500  11.2500  21.5000 Du        
  32244 ****        16.2500  11.2500  36.0000 Du        
  32245 ****        16.2500  11.2500  36.2500 Du        
  32246 ****        16.2500  11.2500  36.5000 Du        
  32247 ****        16.2500  11.2500  36.7500 Du        
  32248 ****        16.2500  11.2500  37.0000 Du        
  32249 ****        16.2500  11.2500  37.2500 Du        
  32250 ****        16.2500  11.2500  37.5000 Du        
  32251 ****        16.2500  11.2500  37.7500 Du        
  32252 ****        16.2500  11.5000  36.0000 Du        
  32253 ****        16.2500  11.5000  36.2500 Du        
  32254 ****        16.2500  11.5000  36.5000 Du        
  32255 ****        16.2500  11.5000  36.7500 Du        
  32256 ****        16.2500  11.5000  37.0000 Du        
  32257 ****        16.2500  11.5000  37.2500 Du        
  32258 ****        16.2500  11.5000  37.5000 Du        
  32259 ****        16.2500  11.5000  37.7500 Du        
  32260 ****        16.2500  11.7500  36.2500 Du        
  32261 ****        16.2500  11.7500  36.5000 Du        
  32262 ****        16.2500  11.7500  36.7500 Du        
  32263 ****        16.2500  11.7500  37.0000 Du        
  32264 ****        16.2500  11.7500  37.2500 Du        
  32265 ****        16.2500  11.7500  37.5000 Du        
  32266 ****        16.2500  11.7500  37.7500 Du        
  32267 ****        16.2500  12.0000  36.7500 Du        
  32268 ****        16.2500  12.0000  37.0000 Du        
  32269 ****        16.2500  12.0000  37.2500 Du        
  32270 ****        16.2500  12.0000  37.5000 Du        
  32271 ****        16.2500  12.0000  37.7500 Du        
  32272 ****        16.2500  12.2500  37.0000 Du        
  32273 ****        16.2500  12.2500  37.2500 Du        
  32274 ****        16.2500  12.2500  37.5000 Du        
  32275 ****        16.2500  12.2500  37.7500 Du        
  32276 ****        16.2500  12.5000  37.2500 Du        
  32277 ****        16.2500  12.5000  37.5000 Du        
  32278 ****        16.2500  12.5000  37.7500 Du        
  32279 ****        16.2500  12.7500  37.2500 Du        
  32280 ****        16.2500  12.7500  37.5000 Du        
  32281 ****        16.2500  12.7500  37.7500 Du        
  32282 ****        16.2500  13.0000  37.5000 Du        
  32283 ****        16.2500  13.0000  37.7500 Du        
  32284 ****        16.2500  13.2500  13.7500 Du        
  32285 ****        16.2500  13.2500  14.0000 Du        
  32286 ****        16.2500  13.2500  14.7500 Du        
  32287 ****        16.2500  13.2500  15.0000 Du        
  32288 ****        16.2500  13.2500  15.2500 Du        
  32289 ****        16.2500  13.2500  15.5000 Du        
  32290 ****        16.2500  13.2500  37.7500 Du        
  32291 ****        16.2500  13.5000  13.7500 Du        
  32292 ****        16.2500  13.5000  14.0000 Du        
  32293 ****        16.2500  13.5000  14.2500 Du        
  32294 ****        16.2500  13.5000  14.5000 Du        
  32295 ****        16.2500  13.5000  14.7500 Du        
  32296 ****        16.2500  13.5000  15.0000 Du        
  32297 ****        16.2500  13.5000  15.2500 Du        
  32298 ****        16.2500  13.5000  15.5000 Du        
  32299 ****        16.2500  13.5000  37.7500 Du        
  32300 ****        16.2500  13.7500  13.7500 Du        
  32301 ****        16.2500  13.7500  14.0000 Du        
  32302 ****        16.2500  13.7500  14.2500 Du        
  32303 ****        16.2500  13.7500  14.5000 Du        
  32304 ****        16.2500  13.7500  14.7500 Du        
  32305 ****        16.2500  13.7500  15.0000 Du        
  32306 ****        16.2500  13.7500  15.2500 Du        
  32307 ****        16.2500  13.7500  15.5000 Du        
  32308 ****        16.2500  13.7500  15.7500 Du        
  32309 ****        16.2500  13.7500  37.7500 Du        
  32310 ****        16.2500  13.7500  38.0000 Du        
  32311 ****        16.2500  14.0000  13.7500 Du        
  32312 ****        16.2500  14.0000  14.0000 Du        
  32313 ****        16.2500  14.0000  14.2500 Du        
  32314 ****        16.2500  14.0000  14.5000 Du        
  32315 ****        16.2500  14.0000  14.7500 Du        
  32316 ****        16.2500  14.0000  15.0000 Du        
  32317 ****        16.2500  14.0000  15.2500 Du        
  32318 ****        16.2500  14.0000  15.5000 Du        
  32319 ****        16.2500  14.0000  15.7500 Du        
  32320 ****        16.2500  14.0000  37.7500 Du        
  32321 ****        16.2500  14.0000  38.0000 Du        
  32322 ****        16.2500  14.0000  38.2500 Du        
  32323 ****        16.2500  14.2500  13.7500 Du        
  32324 ****        16.2500  14.2500  14.0000 Du        
  32325 ****        16.2500  14.2500  14.2500 Du        
  32326 ****        16.2500  14.2500  14.5000 Du        
  32327 ****        16.2500  14.2500  14.7500 Du        
  32328 ****        16.2500  14.2500  15.0000 Du        
  32329 ****        16.2500  14.2500  15.2500 Du        
  32330 ****        16.2500  14.2500  15.5000 Du        
  32331 ****        16.2500  14.2500  15.7500 Du        
  32332 ****        16.2500  14.2500  16.0000 Du        
  32333 ****        16.2500  14.2500  37.7500 Du        
  32334 ****        16.2500  14.2500  38.0000 Du        
  32335 ****        16.2500  14.2500  38.2500 Du        
  32336 ****        16.2500  14.5000  14.0000 Du        
  32337 ****        16.2500  14.5000  14.2500 Du        
  32338 ****        16.2500  14.5000  14.5000 Du        
  32339 ****        16.2500  14.5000  14.7500 Du        
  32340 ****        16.2500  14.5000  15.0000 Du        
  32341 ****        16.2500  14.5000  15.2500 Du        
  32342 ****        16.2500  14.5000  15.5000 Du        
  32343 ****        16.2500  14.5000  15.7500 Du        
  32344 ****        16.2500  14.5000  38.0000 Du        
  32345 ****        16.2500  14.5000  38.2500 Du        
  32346 ****        16.2500  14.5000  38.5000 Du        
  32347 ****        16.2500  14.7500  13.7500 Du        
  32348 ****        16.2500  14.7500  14.0000 Du        
  32349 ****        16.2500  14.7500  14.2500 Du        
  32350 ****        16.2500  14.7500  14.5000 Du        
  32351 ****        16.2500  14.7500  14.7500 Du        
  32352 ****        16.2500  14.7500  15.0000 Du        
  32353 ****        16.2500  14.7500  15.2500 Du        
  32354 ****        16.2500  14.7500  15.5000 Du        
  32355 ****        16.2500  14.7500  15.7500 Du        
  32356 ****        16.2500  14.7500  38.0000 Du        
  32357 ****        16.2500  14.7500  38.2500 Du        
  32358 ****        16.2500  14.7500  38.5000 Du        
  32359 ****        16.2500  15.0000  13.5000 Du        
  32360 ****        16.2500  15.0000  13.7500 Du        
  32361 ****        16.2500  15.0000  14.0000 Du        
  32362 ****        16.2500  15.0000  14.2500 Du        
  32363 ****        16.2500  15.0000  14.5000 Du        
  32364 ****        16.2500  15.0000  14.7500 Du        
  32365 ****        16.2500  15.0000  15.0000 Du        
  32366 ****        16.2500  15.0000  15.2500 Du        
  32367 ****        16.2500  15.0000  15.5000 Du        
  32368 ****        16.2500  15.0000  15.7500 Du        
  32369 ****        16.2500  15.0000  38.2500 Du        
  32370 ****        16.2500  15.0000  38.5000 Du        
  32371 ****        16.2500  15.0000  38.7500 Du        
  32372 ****        16.2500  15.2500  13.5000 Du        
  32373 ****        16.2500  15.2500  13.7500 Du        
  32374 ****        16.2500  15.2500  14.0000 Du        
  32375 ****        16.2500  15.2500  14.2500 Du        
  32376 ****        16.2500  15.2500  14.5000 Du        
  32377 ****        16.2500  15.2500  14.7500 Du        
  32378 ****        16.2500  15.2500  15.0000 Du        
  32379 ****        16.2500  15.2500  15.2500 Du        
  32380 ****        16.2500  15.2500  15.5000 Du        
  32381 ****        16.2500  15.2500  38.2500 Du        
  32382 ****        16.2500  15.2500  38.5000 Du        
  32383 ****        16.2500  15.2500  38.7500 Du        
  32384 ****        16.2500  15.5000  13.5000 Du        
  32385 ****        16.2500  15.5000  13.7500 Du        
  32386 ****        16.2500  15.5000  14.0000 Du        
  32387 ****        16.2500  15.5000  14.2500 Du        
  32388 ****        16.2500  15.5000  14.5000 Du        
  32389 ****        16.2500  15.5000  14.7500 Du        
  32390 ****        16.2500  15.5000  15.0000 Du        
  32391 ****        16.2500  15.5000  15.2500 Du        
  32392 ****        16.2500  15.7500  13.2500 Du        
  32393 ****        16.2500  15.7500  13.5000 Du        
  32394 ****        16.2500  15.7500  13.7500 Du        
  32395 ****        16.2500  15.7500  14.0000 Du        
  32396 ****        16.2500  15.7500  14.2500 Du        
  32397 ****        16.2500  15.7500  14.5000 Du        
  32398 ****        16.2500  15.7500  14.7500 Du        
  32399 ****        16.2500  15.7500  15.0000 Du        
  32400 ****        16.2500  15.7500  15.2500 Du        
  32401 ****        16.2500  16.0000  13.0000 Du        
  32402 ****        16.2500  16.0000  13.2500 Du        
  32403 ****        16.2500  16.0000  13.5000 Du        
  32404 ****        16.2500  16.0000  13.7500 Du        
  32405 ****        16.2500  16.0000  14.0000 Du        
  32406 ****        16.2500  16.0000  14.2500 Du        
  32407 ****        16.2500  16.0000  14.5000 Du        
  32408 ****        16.2500  16.0000  14.7500 Du        
  32409 ****        16.2500  16.0000  15.0000 Du        
  32410 ****        16.2500  16.2500  12.7500 Du        
  32411 ****        16.2500  16.2500  13.0000 Du        
  32412 ****        16.2500  16.2500  13.2500 Du        
  32413 ****        16.2500  16.2500  13.5000 Du        
  32414 ****        16.2500  16.2500  13.7500 Du        
  32415 ****        16.2500  16.2500  14.0000 Du        
  32416 ****        16.2500  16.2500  14.2500 Du        
  32417 ****        16.2500  16.2500  14.5000 Du        
  32418 ****        16.2500  16.2500  14.7500 Du        
  32419 ****        16.2500  16.2500  15.0000 Du        
  32420 ****        16.2500  16.2500  32.0000 Du        
  32421 ****        16.2500  16.5000  11.7500 Du        
  32422 ****        16.2500  16.5000  12.0000 Du        
  32423 ****        16.2500  16.5000  12.2500 Du        
  32424 ****        16.2500  16.5000  12.5000 Du        
  32425 ****        16.2500  16.5000  32.0000 Du        
  32426 ****        16.2500  16.7500  10.7500 Du        
  32427 ****        16.2500  16.7500  11.0000 Du        
  32428 ****        16.2500  16.7500  11.2500 Du        
  32429 ****        16.2500  16.7500  11.5000 Du        
  32430 ****        16.2500  16.7500  11.7500 Du        
  32431 ****        16.2500  16.7500  12.0000 Du        
  32432 ****        16.2500  16.7500  12.2500 Du        
  32433 ****        16.2500  16.7500  32.0000 Du        
  32434 ****        16.2500  17.0000  10.7500 Du        
  32435 ****        16.2500  17.0000  11.0000 Du        
  32436 ****        16.2500  17.0000  11.2500 Du        
  32437 ****        16.2500  17.0000  11.5000 Du        
  32438 ****        16.2500  17.0000  11.7500 Du        
  32439 ****        16.2500  17.0000  31.7500 Du        
  32440 ****        16.2500  17.0000  32.0000 Du        
  32441 ****        16.2500  17.0000  32.2500 Du        
  32442 ****        16.2500  17.2500  10.5000 Du        
  32443 ****        16.2500  17.2500  10.7500 Du        
  32444 ****        16.2500  17.2500  11.0000 Du        
  32445 ****        16.2500  17.2500  11.2500 Du        
  32446 ****        16.2500  17.2500  31.7500 Du        
  32447 ****        16.2500  17.2500  32.0000 Du        
  32448 ****        16.2500  17.2500  32.2500 Du        
  32449 ****        16.2500  17.5000  10.2500 Du        
  32450 ****        16.2500  17.5000  10.5000 Du        
  32451 ****        16.2500  17.5000  10.7500 Du        
  32452 ****        16.2500  17.5000  11.0000 Du        
  32453 ****        16.2500  17.5000  31.7500 Du        
  32454 ****        16.2500  17.5000  32.0000 Du        
  32455 ****        16.2500  17.5000  32.2500 Du        
  32456 ****        16.2500  17.7500  10.2500 Du        
  32457 ****        16.2500  17.7500  10.5000 Du        
  32458 ****        16.2500  17.7500  31.5000 Du        
  32459 ****        16.2500  17.7500  31.7500 Du        
  32460 ****        16.2500  17.7500  32.0000 Du        
  32461 ****        16.2500  17.7500  32.2500 Du        
  32462 ****        16.2500  17.7500  32.5000 Du        
  32463 ****        16.2500  18.0000  31.7500 Du        
  32464 ****        16.2500  18.0000  32.0000 Du        
  32465 ****        16.2500  18.0000  32.2500 Du        
  32466 ****        16.2500  18.0000  32.5000 Du        
  32467 ****        16.2500  18.0000  32.7500 Du        
  32468 ****        16.2500  18.2500  31.7500 Du        
  32469 ****        16.2500  18.2500  32.0000 Du        
  32470 ****        16.2500  18.2500  32.2500 Du        
  32471 ****        16.2500  18.2500  32.5000 Du        
  32472 ****        16.2500  18.2500  32.7500 Du        
  32473 ****        16.2500  18.2500  33.0000 Du        
  32474 ****        16.2500  18.5000  32.0000 Du        
  32475 ****        16.2500  18.5000  32.2500 Du        
  32476 ****        16.2500  18.5000  32.5000 Du        
  32477 ****        16.2500  18.5000  32.7500 Du        
  32478 ****        16.2500  18.5000  33.0000 Du        
  32479 ****        16.2500  18.5000  33.2500 Du        
  32480 ****        16.2500  18.7500  32.2500 Du        
  32481 ****        16.2500  18.7500  32.5000 Du        
  32482 ****        16.2500  18.7500  32.7500 Du        
  32483 ****        16.2500  18.7500  33.0000 Du        
  32484 ****        16.2500  18.7500  33.2500 Du        
  32485 ****        16.2500  18.7500  33.5000 Du        
  32486 ****        16.2500  18.7500  33.7500 Du        
  32487 ****        16.2500  18.7500  34.0000 Du        
  32488 ****        16.2500  18.7500  34.2500 Du        
  32489 ****        16.2500  19.0000  32.7500 Du        
  32490 ****        16.2500  19.0000  33.0000 Du        
  32491 ****        16.2500  19.0000  33.2500 Du        
  32492 ****        16.2500  19.0000  33.5000 Du        
  32493 ****        16.2500  19.0000  33.7500 Du        
  32494 ****        16.2500  19.0000  34.0000 Du        
  32495 ****        16.2500  19.0000  34.2500 Du        
  32496 ****        16.2500  19.0000  34.5000 Du        
  32497 ****        16.2500  19.2500  33.0000 Du        
  32498 ****        16.2500  19.2500  33.2500 Du        
  32499 ****        16.2500  19.2500  33.5000 Du        
  32500 ****        16.2500  19.2500  33.7500 Du        
  32501 ****        16.2500  19.2500  34.0000 Du        
  32502 ****        16.2500  19.2500  34.2500 Du        
  32503 ****        16.2500  19.2500  34.5000 Du        
  32504 ****        16.2500  19.5000  33.7500 Du        
  32505 ****        16.2500  19.5000  34.0000 Du        
  32506 ****        16.2500  19.5000  34.2500 Du        
  32507 ****        16.2500  19.5000  34.5000 Du        
  32508 ****        16.2500  19.5000  34.7500 Du        
  32509 ****        16.2500  19.5000  35.0000 Du        
  32510 ****        16.2500  19.7500  34.2500 Du        
  32511 ****        16.2500  19.7500  34.5000 Du        
  32512 ****        16.2500  19.7500  34.7500 Du        
  32513 ****        16.2500  19.7500  35.0000 Du        
  32514 ****        16.2500  20.0000  34.7500 Du        
  32515 ****        16.2500  20.0000  35.0000 Du        
  32516 ****        16.5000  -4.0000  26.0000 Du        
  32517 ****        16.5000  -4.0000  26.2500 Du        
  32518 ****        16.5000  -4.0000  26.5000 Du        
  32519 ****        16.5000  -3.7500  26.0000 Du        
  32520 ****        16.5000  -3.7500  26.2500 Du        
  32521 ****        16.5000  -3.7500  26.5000 Du        
  32522 ****        16.5000  -3.5000  26.5000 Du        
  32523 ****        16.5000   1.0000  10.5000 Du        
  32524 ****        16.5000   1.0000  10.7500 Du        
  32525 ****        16.5000   1.2500  10.5000 Du        
  32526 ****        16.5000   1.2500  10.7500 Du        
  32527 ****        16.5000   1.2500  11.0000 Du        
  32528 ****        16.5000   1.5000  10.5000 Du        
  32529 ****        16.5000   1.5000  10.7500 Du        
  32530 ****        16.5000   1.5000  11.0000 Du        
  32531 ****        16.5000   1.5000  11.2500 Du        
  32532 ****        16.5000   1.7500  10.7500 Du        
  32533 ****        16.5000   1.7500  11.0000 Du        
  32534 ****        16.5000   1.7500  11.2500 Du        
  32535 ****        16.5000   1.7500  11.5000 Du        
  32536 ****        16.5000   1.7500  20.5000 Du        
  32537 ****        16.5000   1.7500  20.7500 Du        
  32538 ****        16.5000   2.0000  11.2500 Du        
  32539 ****        16.5000   2.0000  11.5000 Du        
  32540 ****        16.5000   2.0000  11.7500 Du        
  32541 ****        16.5000   2.0000  20.0000 Du        
  32542 ****        16.5000   2.0000  20.2500 Du        
  32543 ****        16.5000   2.0000  20.5000 Du        
  32544 ****        16.5000   2.0000  20.7500 Du        
  32545 ****        16.5000   2.0000  21.0000 Du        
  32546 ****        16.5000   2.2500  11.5000 Du        
  32547 ****        16.5000   2.2500  11.7500 Du        
  32548 ****        16.5000   2.2500  12.0000 Du        
  32549 ****        16.5000   2.2500  12.2500 Du        
  32550 ****        16.5000   2.2500  12.5000 Du        
  32551 ****        16.5000   2.2500  20.2500 Du        
  32552 ****        16.5000   2.2500  20.5000 Du        
  32553 ****        16.5000   2.2500  20.7500 Du        
  32554 ****        16.5000   2.2500  21.0000 Du        
  32555 ****        16.5000   2.5000  11.7500 Du        
  32556 ****        16.5000   2.5000  12.0000 Du        
  32557 ****        16.5000   2.5000  12.2500 Du        
  32558 ****        16.5000   2.5000  12.5000 Du        
  32559 ****        16.5000   2.5000  12.7500 Du        
  32560 ****        16.5000   2.5000  20.5000 Du        
  32561 ****        16.5000   2.5000  20.7500 Du        
  32562 ****        16.5000   2.5000  21.0000 Du        
  32563 ****        16.5000   2.5000  21.2500 Du        
  32564 ****        16.5000   2.7500  12.0000 Du        
  32565 ****        16.5000   2.7500  12.2500 Du        
  32566 ****        16.5000   2.7500  12.5000 Du        
  32567 ****        16.5000   2.7500  12.7500 Du        
  32568 ****        16.5000   2.7500  20.5000 Du        
  32569 ****        16.5000   2.7500  20.7500 Du        
  32570 ****        16.5000   2.7500  21.0000 Du        
  32571 ****        16.5000   2.7500  21.2500 Du        
  32572 ****        16.5000   3.0000  12.0000 Du        
  32573 ****        16.5000   3.0000  12.2500 Du        
  32574 ****        16.5000   3.0000  12.5000 Du        
  32575 ****        16.5000   3.0000  12.7500 Du        
  32576 ****        16.5000   3.0000  20.5000 Du        
  32577 ****        16.5000   3.0000  20.7500 Du        
  32578 ****        16.5000   3.0000  21.0000 Du        
  32579 ****        16.5000   3.2500  12.2500 Du        
  32580 ****        16.5000   3.2500  12.5000 Du        
  32581 ****        16.5000   3.2500  20.5000 Du        
  32582 ****        16.5000   4.2500   4.0000 Du        
  32583 ****        16.5000   4.2500   4.2500 Du        
  32584 ****        16.5000   4.5000   3.2500 Du        
  32585 ****        16.5000   4.5000   3.5000 Du        
  32586 ****        16.5000   4.5000   3.7500 Du        
  32587 ****        16.5000   4.5000   4.0000 Du        
  32588 ****        16.5000   4.5000   4.2500 Du        
  32589 ****        16.5000   4.5000   4.5000 Du        
  32590 ****        16.5000   4.5000   4.7500 Du        
  32591 ****        16.5000   4.7500   3.2500 Du        
  32592 ****        16.5000   4.7500   3.5000 Du        
  32593 ****        16.5000   4.7500   3.7500 Du        
  32594 ****        16.5000   4.7500   4.0000 Du        
  32595 ****        16.5000   4.7500   4.2500 Du        
  32596 ****        16.5000   4.7500   4.5000 Du        
  32597 ****        16.5000   5.0000   3.2500 Du        
  32598 ****        16.5000   5.0000   3.5000 Du        
  32599 ****        16.5000   5.0000   3.7500 Du        
  32600 ****        16.5000   5.0000   4.0000 Du        
  32601 ****        16.5000   5.0000   4.2500 Du        
  32602 ****        16.5000   5.0000   4.5000 Du        
  32603 ****        16.5000   5.2500   3.2500 Du        
  32604 ****        16.5000   5.2500   3.5000 Du        
  32605 ****        16.5000   5.2500   3.7500 Du        
  32606 ****        16.5000   5.2500   4.0000 Du        
  32607 ****        16.5000   5.2500   4.2500 Du        
  32608 ****        16.5000   5.2500   4.5000 Du        
  32609 ****        16.5000   5.5000   3.2500 Du        
  32610 ****        16.5000   5.5000   3.5000 Du        
  32611 ****        16.5000   5.5000   3.7500 Du        
  32612 ****        16.5000   5.5000   4.0000 Du        
  32613 ****        16.5000   5.5000   4.2500 Du        
  32614 ****        16.5000   5.5000   4.5000 Du        
  32615 ****        16.5000   5.7500   3.2500 Du        
  32616 ****        16.5000   5.7500   3.5000 Du        
  32617 ****        16.5000   5.7500   3.7500 Du        
  32618 ****        16.5000   5.7500   4.0000 Du        
  32619 ****        16.5000   5.7500   4.2500 Du        
  32620 ****        16.5000   5.7500   4.5000 Du        
  32621 ****        16.5000   6.0000   3.2500 Du        
  32622 ****        16.5000   6.0000   3.5000 Du        
  32623 ****        16.5000   6.0000   3.7500 Du        
  32624 ****        16.5000   6.0000   4.0000 Du        
  32625 ****        16.5000   6.0000   4.2500 Du        
  32626 ****        16.5000   6.0000   4.5000 Du        
  32627 ****        16.5000   6.2500   3.5000 Du        
  32628 ****        16.5000   6.2500   3.7500 Du        
  32629 ****        16.5000   6.2500   4.0000 Du        
  32630 ****        16.5000   6.2500   4.2500 Du        
  32631 ****        16.5000   6.2500   4.5000 Du        
  32632 ****        16.5000   6.5000   3.5000 Du        
  32633 ****        16.5000   6.5000   3.7500 Du        
  32634 ****        16.5000   6.5000   4.0000 Du        
  32635 ****        16.5000   6.5000   4.2500 Du        
  32636 ****        16.5000   6.5000   4.5000 Du        
  32637 ****        16.5000   6.7500   3.5000 Du        
  32638 ****        16.5000   6.7500   3.7500 Du        
  32639 ****        16.5000   6.7500   4.0000 Du        
  32640 ****        16.5000   6.7500   4.2500 Du        
  32641 ****        16.5000   6.7500   4.5000 Du        
  32642 ****        16.5000   7.0000   3.5000 Du        
  32643 ****        16.5000   7.0000   3.7500 Du        
  32644 ****        16.5000   7.0000   4.0000 Du        
  32645 ****        16.5000   7.0000   4.2500 Du        
  32646 ****        16.5000   7.0000   4.5000 Du        
  32647 ****        16.5000   7.2500   3.5000 Du        
  32648 ****        16.5000   7.2500   3.7500 Du        
  32649 ****        16.5000   7.2500   4.0000 Du        
  32650 ****        16.5000   7.2500   4.2500 Du        
  32651 ****        16.5000   7.2500   4.5000 Du        
  32652 ****        16.5000   7.5000   3.5000 Du        
  32653 ****        16.5000   7.5000   3.7500 Du        
  32654 ****        16.5000   7.5000   4.0000 Du        
  32655 ****        16.5000   7.5000   4.2500 Du        
  32656 ****        16.5000   7.5000   4.5000 Du        
  32657 ****        16.5000   7.7500   3.7500 Du        
  32658 ****        16.5000   7.7500   4.0000 Du        
  32659 ****        16.5000   7.7500   4.2500 Du        
  32660 ****        16.5000  10.0000  20.5000 Du        
  32661 ****        16.5000  10.0000  35.7500 Du        
  32662 ****        16.5000  10.0000  36.0000 Du        
  32663 ****        16.5000  10.0000  36.2500 Du        
  32664 ****        16.5000  10.2500  20.2500 Du        
  32665 ****        16.5000  10.2500  20.5000 Du        
  32666 ****        16.5000  10.2500  20.7500 Du        
  32667 ****        16.5000  10.2500  21.0000 Du        
  32668 ****        16.5000  10.2500  21.2500 Du        
  32669 ****        16.5000  10.2500  35.7500 Du        
  32670 ****        16.5000  10.2500  36.0000 Du        
  32671 ****        16.5000  10.2500  36.2500 Du        
  32672 ****        16.5000  10.2500  36.5000 Du        
  32673 ****        16.5000  10.2500  36.7500 Du        
  32674 ****        16.5000  10.5000  20.0000 Du        
  32675 ****        16.5000  10.5000  20.2500 Du        
  32676 ****        16.5000  10.5000  20.5000 Du        
  32677 ****        16.5000  10.5000  20.7500 Du        
  32678 ****        16.5000  10.5000  21.0000 Du        
  32679 ****        16.5000  10.5000  21.2500 Du        
  32680 ****        16.5000  10.5000  21.5000 Du        
  32681 ****        16.5000  10.5000  35.7500 Du        
  32682 ****        16.5000  10.5000  36.0000 Du        
  32683 ****        16.5000  10.5000  36.2500 Du        
  32684 ****        16.5000  10.5000  36.5000 Du        
  32685 ****        16.5000  10.5000  36.7500 Du        
  32686 ****        16.5000  10.5000  37.0000 Du        
  32687 ****        16.5000  10.7500  20.2500 Du        
  32688 ****        16.5000  10.7500  20.5000 Du        
  32689 ****        16.5000  10.7500  20.7500 Du        
  32690 ****        16.5000  10.7500  21.0000 Du        
  32691 ****        16.5000  10.7500  21.2500 Du        
  32692 ****        16.5000  10.7500  21.5000 Du        
  32693 ****        16.5000  10.7500  21.7500 Du        
  32694 ****        16.5000  10.7500  35.7500 Du        
  32695 ****        16.5000  10.7500  36.0000 Du        
  32696 ****        16.5000  10.7500  36.2500 Du        
  32697 ****        16.5000  10.7500  36.5000 Du        
  32698 ****        16.5000  10.7500  36.7500 Du        
  32699 ****        16.5000  10.7500  37.0000 Du        
  32700 ****        16.5000  10.7500  37.2500 Du        
  32701 ****        16.5000  11.0000  20.5000 Du        
  32702 ****        16.5000  11.0000  20.7500 Du        
  32703 ****        16.5000  11.0000  21.0000 Du        
  32704 ****        16.5000  11.0000  21.2500 Du        
  32705 ****        16.5000  11.0000  21.5000 Du        
  32706 ****        16.5000  11.0000  21.7500 Du        
  32707 ****        16.5000  11.0000  35.7500 Du        
  32708 ****        16.5000  11.0000  36.0000 Du        
  32709 ****        16.5000  11.0000  36.2500 Du        
  32710 ****        16.5000  11.0000  36.5000 Du        
  32711 ****        16.5000  11.0000  36.7500 Du        
  32712 ****        16.5000  11.0000  37.0000 Du        
  32713 ****        16.5000  11.0000  37.2500 Du        
  32714 ****        16.5000  11.0000  37.5000 Du        
  32715 ****        16.5000  11.2500  21.0000 Du        
  32716 ****        16.5000  11.2500  21.2500 Du        
  32717 ****        16.5000  11.2500  21.5000 Du        
  32718 ****        16.5000  11.2500  21.7500 Du        
  32719 ****        16.5000  11.2500  36.0000 Du        
  32720 ****        16.5000  11.2500  36.2500 Du        
  32721 ****        16.5000  11.2500  36.5000 Du        
  32722 ****        16.5000  11.2500  36.7500 Du        
  32723 ****        16.5000  11.2500  37.0000 Du        
  32724 ****        16.5000  11.2500  37.2500 Du        
  32725 ****        16.5000  11.2500  37.5000 Du        
  32726 ****        16.5000  11.5000  21.2500 Du        
  32727 ****        16.5000  11.5000  21.5000 Du        
  32728 ****        16.5000  11.5000  21.7500 Du        
  32729 ****        16.5000  11.5000  36.0000 Du        
  32730 ****        16.5000  11.5000  36.2500 Du        
  32731 ****        16.5000  11.5000  36.5000 Du        
  32732 ****        16.5000  11.5000  36.7500 Du        
  32733 ****        16.5000  11.5000  37.0000 Du        
  32734 ****        16.5000  11.5000  37.2500 Du        
  32735 ****        16.5000  11.5000  37.5000 Du        
  32736 ****        16.5000  11.5000  37.7500 Du        
  32737 ****        16.5000  11.7500  36.2500 Du        
  32738 ****        16.5000  11.7500  36.5000 Du        
  32739 ****        16.5000  11.7500  36.7500 Du        
  32740 ****        16.5000  11.7500  37.0000 Du        
  32741 ****        16.5000  11.7500  37.2500 Du        
  32742 ****        16.5000  11.7500  37.5000 Du        
  32743 ****        16.5000  11.7500  37.7500 Du        
  32744 ****        16.5000  12.0000  36.5000 Du        
  32745 ****        16.5000  12.0000  36.7500 Du        
  32746 ****        16.5000  12.0000  37.0000 Du        
  32747 ****        16.5000  12.0000  37.2500 Du        
  32748 ****        16.5000  12.0000  37.5000 Du        
  32749 ****        16.5000  12.0000  37.7500 Du        
  32750 ****        16.5000  12.2500  36.7500 Du        
  32751 ****        16.5000  12.2500  37.0000 Du        
  32752 ****        16.5000  12.2500  37.2500 Du        
  32753 ****        16.5000  12.2500  37.5000 Du        
  32754 ****        16.5000  12.2500  37.7500 Du        
  32755 ****        16.5000  12.5000  37.2500 Du        
  32756 ****        16.5000  12.5000  37.5000 Du        
  32757 ****        16.5000  12.5000  37.7500 Du        
  32758 ****        16.5000  12.7500  37.2500 Du        
  32759 ****        16.5000  12.7500  37.5000 Du        
  32760 ****        16.5000  12.7500  37.7500 Du        
  32761 ****        16.5000  13.0000  37.5000 Du        
  32762 ****        16.5000  13.0000  37.7500 Du        
  32763 ****        16.5000  13.0000  38.0000 Du        
  32764 ****        16.5000  13.2500  37.5000 Du        
  32765 ****        16.5000  13.2500  37.7500 Du        
  32766 ****        16.5000  13.2500  38.0000 Du        
  32767 ****        16.5000  13.5000  14.0000 Du        
  32768 ****        16.5000  13.5000  14.2500 Du        
  32769 ****        16.5000  13.5000  14.5000 Du        
  32770 ****        16.5000  13.5000  14.7500 Du        
  32771 ****        16.5000  13.5000  15.0000 Du        
  32772 ****        16.5000  13.5000  15.2500 Du        
  32773 ****        16.5000  13.5000  15.5000 Du        
  32774 ****        16.5000  13.5000  15.7500 Du        
  32775 ****        16.5000  13.5000  37.7500 Du        
  32776 ****        16.5000  13.5000  38.0000 Du        
  32777 ****        16.5000  13.7500  13.7500 Du        
  32778 ****        16.5000  13.7500  14.0000 Du        
  32779 ****        16.5000  13.7500  14.2500 Du        
  32780 ****        16.5000  13.7500  14.5000 Du        
  32781 ****        16.5000  13.7500  14.7500 Du        
  32782 ****        16.5000  13.7500  15.0000 Du        
  32783 ****        16.5000  13.7500  15.2500 Du        
  32784 ****        16.5000  13.7500  15.5000 Du        
  32785 ****        16.5000  13.7500  15.7500 Du        
  32786 ****        16.5000  13.7500  37.7500 Du        
  32787 ****        16.5000  13.7500  38.0000 Du        
  32788 ****        16.5000  13.7500  38.2500 Du        
  32789 ****        16.5000  14.0000  14.0000 Du        
  32790 ****        16.5000  14.0000  14.2500 Du        
  32791 ****        16.5000  14.0000  14.5000 Du        
  32792 ****        16.5000  14.0000  14.7500 Du        
  32793 ****        16.5000  14.0000  15.0000 Du        
  32794 ****        16.5000  14.0000  15.2500 Du        
  32795 ****        16.5000  14.0000  15.5000 Du        
  32796 ****        16.5000  14.0000  15.7500 Du        
  32797 ****        16.5000  14.0000  16.0000 Du        
  32798 ****        16.5000  14.0000  37.7500 Du        
  32799 ****        16.5000  14.0000  38.0000 Du        
  32800 ****        16.5000  14.0000  38.2500 Du        
  32801 ****        16.5000  14.2500  14.0000 Du        
  32802 ****        16.5000  14.2500  14.2500 Du        
  32803 ****        16.5000  14.2500  14.5000 Du        
  32804 ****        16.5000  14.2500  14.7500 Du        
  32805 ****        16.5000  14.2500  15.0000 Du        
  32806 ****        16.5000  14.2500  15.2500 Du        
  32807 ****        16.5000  14.2500  15.5000 Du        
  32808 ****        16.5000  14.2500  15.7500 Du        
  32809 ****        16.5000  14.2500  16.0000 Du        
  32810 ****        16.5000  14.2500  38.0000 Du        
  32811 ****        16.5000  14.2500  38.2500 Du        
  32812 ****        16.5000  14.2500  38.5000 Du        
  32813 ****        16.5000  14.5000  14.0000 Du        
  32814 ****        16.5000  14.5000  14.2500 Du        
  32815 ****        16.5000  14.5000  14.5000 Du        
  32816 ****        16.5000  14.5000  14.7500 Du        
  32817 ****        16.5000  14.5000  15.0000 Du        
  32818 ****        16.5000  14.5000  15.2500 Du        
  32819 ****        16.5000  14.5000  15.5000 Du        
  32820 ****        16.5000  14.5000  15.7500 Du        
  32821 ****        16.5000  14.7500  14.0000 Du        
  32822 ****        16.5000  14.7500  14.2500 Du        
  32823 ****        16.5000  14.7500  14.5000 Du        
  32824 ****        16.5000  14.7500  14.7500 Du        
  32825 ****        16.5000  14.7500  15.0000 Du        
  32826 ****        16.5000  14.7500  15.2500 Du        
  32827 ****        16.5000  14.7500  15.5000 Du        
  32828 ****        16.5000  14.7500  15.7500 Du        
  32829 ****        16.5000  14.7500  38.5000 Du        
  32830 ****        16.5000  15.0000  13.7500 Du        
  32831 ****        16.5000  15.0000  14.0000 Du        
  32832 ****        16.5000  15.0000  14.2500 Du        
  32833 ****        16.5000  15.0000  14.5000 Du        
  32834 ****        16.5000  15.0000  14.7500 Du        
  32835 ****        16.5000  15.0000  15.0000 Du        
  32836 ****        16.5000  15.0000  15.2500 Du        
  32837 ****        16.5000  15.0000  15.5000 Du        
  32838 ****        16.5000  15.0000  38.7500 Du        
  32839 ****        16.5000  15.2500  13.7500 Du        
  32840 ****        16.5000  15.2500  14.0000 Du        
  32841 ****        16.5000  15.2500  14.2500 Du        
  32842 ****        16.5000  15.2500  14.5000 Du        
  32843 ****        16.5000  15.2500  14.7500 Du        
  32844 ****        16.5000  15.2500  15.0000 Du        
  32845 ****        16.5000  15.2500  15.2500 Du        
  32846 ****        16.5000  15.2500  15.5000 Du        
  32847 ****        16.5000  15.5000  13.7500 Du        
  32848 ****        16.5000  15.5000  14.0000 Du        
  32849 ****        16.5000  15.5000  14.2500 Du        
  32850 ****        16.5000  15.5000  14.5000 Du        
  32851 ****        16.5000  15.5000  14.7500 Du        
  32852 ****        16.5000  15.5000  15.0000 Du        
  32853 ****        16.5000  15.5000  15.2500 Du        
  32854 ****        16.5000  15.7500  13.5000 Du        
  32855 ****        16.5000  15.7500  13.7500 Du        
  32856 ****        16.5000  15.7500  14.0000 Du        
  32857 ****        16.5000  15.7500  14.2500 Du        
  32858 ****        16.5000  15.7500  14.5000 Du        
  32859 ****        16.5000  15.7500  14.7500 Du        
  32860 ****        16.5000  15.7500  15.0000 Du        
  32861 ****        16.5000  15.7500  32.0000 Du        
  32862 ****        16.5000  16.0000  13.5000 Du        
  32863 ****        16.5000  16.0000  13.7500 Du        
  32864 ****        16.5000  16.0000  14.0000 Du        
  32865 ****        16.5000  16.0000  14.2500 Du        
  32866 ****        16.5000  16.0000  14.5000 Du        
  32867 ****        16.5000  16.0000  14.7500 Du        
  32868 ****        16.5000  16.0000  15.0000 Du        
  32869 ****        16.5000  16.0000  32.0000 Du        
  32870 ****        16.5000  16.0000  32.2500 Du        
  32871 ****        16.5000  16.2500  13.2500 Du        
  32872 ****        16.5000  16.2500  13.7500 Du        
  32873 ****        16.5000  16.2500  14.0000 Du        
  32874 ****        16.5000  16.2500  14.2500 Du        
  32875 ****        16.5000  16.2500  14.5000 Du        
  32876 ****        16.5000  16.2500  31.7500 Du        
  32877 ****        16.5000  16.2500  32.0000 Du        
  32878 ****        16.5000  16.2500  32.2500 Du        
  32879 ****        16.5000  16.5000  31.7500 Du        
  32880 ****        16.5000  16.5000  32.0000 Du        
  32881 ****        16.5000  16.5000  32.2500 Du        
  32882 ****        16.5000  16.7500  11.0000 Du        
  32883 ****        16.5000  16.7500  11.2500 Du        
  32884 ****        16.5000  16.7500  11.5000 Du        
  32885 ****        16.5000  16.7500  11.7500 Du        
  32886 ****        16.5000  16.7500  12.0000 Du        
  32887 ****        16.5000  16.7500  31.7500 Du        
  32888 ****        16.5000  16.7500  32.0000 Du        
  32889 ****        16.5000  16.7500  32.2500 Du        
  32890 ****        16.5000  17.0000  10.7500 Du        
  32891 ****        16.5000  17.0000  11.0000 Du        
  32892 ****        16.5000  17.0000  11.2500 Du        
  32893 ****        16.5000  17.0000  11.5000 Du        
  32894 ****        16.5000  17.0000  31.7500 Du        
  32895 ****        16.5000  17.0000  32.0000 Du        
  32896 ****        16.5000  17.0000  32.2500 Du        
  32897 ****        16.5000  17.0000  32.5000 Du        
  32898 ****        16.5000  17.2500  10.5000 Du        
  32899 ****        16.5000  17.2500  10.7500 Du        
  32900 ****        16.5000  17.2500  11.0000 Du        
  32901 ****        16.5000  17.2500  11.2500 Du        
  32902 ****        16.5000  17.2500  31.7500 Du        
  32903 ****        16.5000  17.2500  32.0000 Du        
  32904 ****        16.5000  17.2500  32.2500 Du        
  32905 ****        16.5000  17.2500  32.5000 Du        
  32906 ****        16.5000  17.5000  10.5000 Du        
  32907 ****        16.5000  17.5000  10.7500 Du        
  32908 ****        16.5000  17.5000  11.0000 Du        
  32909 ****        16.5000  17.5000  31.7500 Du        
  32910 ****        16.5000  17.5000  32.0000 Du        
  32911 ****        16.5000  17.5000  32.2500 Du        
  32912 ****        16.5000  17.5000  32.5000 Du        
  32913 ****        16.5000  17.5000  32.7500 Du        
  32914 ****        16.5000  17.7500  10.5000 Du        
  32915 ****        16.5000  17.7500  10.7500 Du        
  32916 ****        16.5000  17.7500  31.7500 Du        
  32917 ****        16.5000  17.7500  32.0000 Du        
  32918 ****        16.5000  17.7500  32.2500 Du        
  32919 ****        16.5000  17.7500  32.5000 Du        
  32920 ****        16.5000  17.7500  32.7500 Du        
  32921 ****        16.5000  17.7500  33.0000 Du        
  32922 ****        16.5000  18.0000  31.7500 Du        
  32923 ****        16.5000  18.0000  32.0000 Du        
  32924 ****        16.5000  18.0000  32.2500 Du        
  32925 ****        16.5000  18.0000  32.5000 Du        
  32926 ****        16.5000  18.0000  32.7500 Du        
  32927 ****        16.5000  18.0000  33.0000 Du        
  32928 ****        16.5000  18.0000  33.2500 Du        
  32929 ****        16.5000  18.2500  32.2500 Du        
  32930 ****        16.5000  18.2500  32.5000 Du        
  32931 ****        16.5000  18.2500  32.7500 Du        
  32932 ****        16.5000  18.2500  33.0000 Du        
  32933 ****        16.5000  18.2500  33.2500 Du        
  32934 ****        16.5000  18.5000  32.5000 Du        
  32935 ****        16.5000  18.5000  32.7500 Du        
  32936 ****        16.5000  18.5000  33.0000 Du        
  32937 ****        16.5000  18.5000  33.2500 Du        
  32938 ****        16.5000  18.5000  33.5000 Du        
  32939 ****        16.5000  18.5000  33.7500 Du        
  32940 ****        16.5000  18.5000  34.0000 Du        
  32941 ****        16.5000  18.7500  32.7500 Du        
  32942 ****        16.5000  18.7500  33.0000 Du        
  32943 ****        16.5000  18.7500  33.2500 Du        
  32944 ****        16.5000  18.7500  33.5000 Du        
  32945 ****        16.5000  18.7500  33.7500 Du        
  32946 ****        16.5000  18.7500  34.0000 Du        
  32947 ****        16.5000  18.7500  34.2500 Du        
  32948 ****        16.5000  19.0000  33.2500 Du        
  32949 ****        16.5000  19.0000  33.5000 Du        
  32950 ****        16.5000  19.0000  33.7500 Du        
  32951 ****        16.5000  19.0000  34.0000 Du        
  32952 ****        16.5000  19.0000  34.2500 Du        
  32953 ****        16.5000  19.2500  34.0000 Du        
  32954 ****        16.5000  19.2500  34.2500 Du        
  32955 ****        16.7500  -4.0000  26.0000 Du        
  32956 ****        16.7500  -4.0000  26.2500 Du        
  32957 ****        16.7500  -4.0000  26.5000 Du        
  32958 ****        16.7500  -3.7500  26.0000 Du        
  32959 ****        16.7500  -3.7500  26.2500 Du        
  32960 ****        16.7500  -3.7500  26.5000 Du        
  32961 ****        16.7500  -3.5000  26.5000 Du        
  32962 ****        16.7500  -3.5000  26.7500 Du        
  32963 ****        16.7500  -3.2500  26.5000 Du        
  32964 ****        16.7500   1.0000  10.5000 Du        
  32965 ****        16.7500   1.2500  10.5000 Du        
  32966 ****        16.7500   1.2500  10.7500 Du        
  32967 ****        16.7500   1.5000  10.7500 Du        
  32968 ****        16.7500   1.5000  11.0000 Du        
  32969 ****        16.7500   1.7500  11.0000 Du        
  32970 ****        16.7500   1.7500  11.2500 Du        
  32971 ****        16.7500   1.7500  20.7500 Du        
  32972 ****        16.7500   1.7500  21.0000 Du        
  32973 ****        16.7500   1.7500  21.2500 Du        
  32974 ****        16.7500   2.0000  20.2500 Du        
  32975 ****        16.7500   2.0000  20.7500 Du        
  32976 ****        16.7500   2.0000  21.0000 Du        
  32977 ****        16.7500   2.0000  21.2500 Du        
  32978 ****        16.7500   2.2500  11.7500 Du        
  32979 ****        16.7500   2.2500  12.0000 Du        
  32980 ****        16.7500   2.2500  20.7500 Du        
  32981 ****        16.7500   2.2500  21.0000 Du        
  32982 ****        16.7500   2.2500  21.2500 Du        
  32983 ****        16.7500   2.2500  21.5000 Du        
  32984 ****        16.7500   2.5000  11.7500 Du        
  32985 ****        16.7500   2.5000  12.0000 Du        
  32986 ****        16.7500   2.5000  12.2500 Du        
  32987 ****        16.7500   2.5000  12.5000 Du        
  32988 ****        16.7500   2.5000  20.5000 Du        
  32989 ****        16.7500   2.5000  20.7500 Du        
  32990 ****        16.7500   2.5000  21.0000 Du        
  32991 ****        16.7500   2.5000  21.2500 Du        
  32992 ****        16.7500   2.5000  21.5000 Du        
  32993 ****        16.7500   2.5000  29.2500 Du        
  32994 ****        16.7500   2.5000  29.5000 Du        
  32995 ****        16.7500   2.7500  12.0000 Du        
  32996 ****        16.7500   2.7500  12.2500 Du        
  32997 ****        16.7500   2.7500  12.5000 Du        
  32998 ****        16.7500   2.7500  20.5000 Du        
  32999 ****        16.7500   2.7500  20.7500 Du        
  33000 ****        16.7500   2.7500  21.0000 Du        
  33001 ****        16.7500   2.7500  21.2500 Du        
  33002 ****        16.7500   2.7500  29.2500 Du        
  33003 ****        16.7500   2.7500  29.5000 Du        
  33004 ****        16.7500   2.7500  29.7500 Du        
  33005 ****        16.7500   3.0000  12.2500 Du        
  33006 ****        16.7500   3.0000  12.5000 Du        
  33007 ****        16.7500   3.0000  20.7500 Du        
  33008 ****        16.7500   3.0000  21.0000 Du        
  33009 ****        16.7500   3.0000  21.2500 Du        
  33010 ****        16.7500   3.0000  29.2500 Du        
  33011 ****        16.7500   3.0000  29.5000 Du        
  33012 ****        16.7500   3.0000  29.7500 Du        
  33013 ****        16.7500   3.2500  12.2500 Du        
  33014 ****        16.7500   3.2500  29.5000 Du        
  33015 ****        16.7500   3.2500  29.7500 Du        
  33016 ****        16.7500   3.2500  30.0000 Du        
  33017 ****        16.7500   4.2500   3.7500 Du        
  33018 ****        16.7500   4.2500   4.0000 Du        
  33019 ****        16.7500   4.5000   3.0000 Du        
  33020 ****        16.7500   4.5000   3.2500 Du        
  33021 ****        16.7500   4.5000   3.5000 Du        
  33022 ****        16.7500   4.5000   3.7500 Du        
  33023 ****        16.7500   4.5000   4.0000 Du        
  33024 ****        16.7500   4.5000   4.2500 Du        
  33025 ****        16.7500   4.5000   4.5000 Du        
  33026 ****        16.7500   4.7500   3.0000 Du        
  33027 ****        16.7500   4.7500   3.2500 Du        
  33028 ****        16.7500   4.7500   3.5000 Du        
  33029 ****        16.7500   4.7500   3.7500 Du        
  33030 ****        16.7500   4.7500   4.0000 Du        
  33031 ****        16.7500   4.7500   4.2500 Du        
  33032 ****        16.7500   4.7500   4.5000 Du        
  33033 ****        16.7500   5.0000   3.0000 Du        
  33034 ****        16.7500   5.0000   3.2500 Du        
  33035 ****        16.7500   5.0000   3.5000 Du        
  33036 ****        16.7500   5.0000   3.7500 Du        
  33037 ****        16.7500   5.0000   4.0000 Du        
  33038 ****        16.7500   5.0000   4.2500 Du        
  33039 ****        16.7500   5.0000   4.5000 Du        
  33040 ****        16.7500   5.2500   3.2500 Du        
  33041 ****        16.7500   5.2500   3.5000 Du        
  33042 ****        16.7500   5.2500   3.7500 Du        
  33043 ****        16.7500   5.2500   4.0000 Du        
  33044 ****        16.7500   5.2500   4.2500 Du        
  33045 ****        16.7500   5.5000   3.2500 Du        
  33046 ****        16.7500   5.5000   3.5000 Du        
  33047 ****        16.7500   5.5000   3.7500 Du        
  33048 ****        16.7500   5.5000   4.0000 Du        
  33049 ****        16.7500   5.5000   4.2500 Du        
  33050 ****        16.7500   5.7500   3.2500 Du        
  33051 ****        16.7500   5.7500   3.5000 Du        
  33052 ****        16.7500   5.7500   3.7500 Du        
  33053 ****        16.7500   5.7500   4.0000 Du        
  33054 ****        16.7500   5.7500   4.2500 Du        
  33055 ****        16.7500   6.0000   3.2500 Du        
  33056 ****        16.7500   6.0000   3.5000 Du        
  33057 ****        16.7500   6.0000   3.7500 Du        
  33058 ****        16.7500   6.0000   4.0000 Du        
  33059 ****        16.7500   6.0000   4.2500 Du        
  33060 ****        16.7500   6.2500   3.2500 Du        
  33061 ****        16.7500   6.2500   3.5000 Du        
  33062 ****        16.7500   6.2500   3.7500 Du        
  33063 ****        16.7500   6.2500   4.0000 Du        
  33064 ****        16.7500   6.2500   4.2500 Du        
  33065 ****        16.7500   6.5000   3.2500 Du        
  33066 ****        16.7500   6.5000   3.5000 Du        
  33067 ****        16.7500   6.5000   3.7500 Du        
  33068 ****        16.7500   6.5000   4.0000 Du        
  33069 ****        16.7500   6.5000   4.2500 Du        
  33070 ****        16.7500   6.7500   3.2500 Du        
  33071 ****        16.7500   6.7500   3.5000 Du        
  33072 ****        16.7500   6.7500   3.7500 Du        
  33073 ****        16.7500   6.7500   4.0000 Du        
  33074 ****        16.7500   6.7500   4.2500 Du        
  33075 ****        16.7500   7.0000   3.2500 Du        
  33076 ****        16.7500   7.0000   3.5000 Du        
  33077 ****        16.7500   7.0000   3.7500 Du        
  33078 ****        16.7500   7.0000   4.0000 Du        
  33079 ****        16.7500   7.0000   4.2500 Du        
  33080 ****        16.7500   7.0000   4.5000 Du        
  33081 ****        16.7500   7.2500   3.5000 Du        
  33082 ****        16.7500   7.2500   3.7500 Du        
  33083 ****        16.7500   7.2500   4.0000 Du        
  33084 ****        16.7500   7.2500   4.2500 Du        
  33085 ****        16.7500   7.2500   4.5000 Du        
  33086 ****        16.7500   7.5000   3.5000 Du        
  33087 ****        16.7500   7.5000   3.7500 Du        
  33088 ****        16.7500   7.5000   4.0000 Du        
  33089 ****        16.7500   7.5000   4.2500 Du        
  33090 ****        16.7500   7.5000   4.5000 Du        
  33091 ****        16.7500   7.5000  26.5000 Du        
  33092 ****        16.7500   7.7500   3.5000 Du        
  33093 ****        16.7500   7.7500   3.7500 Du        
  33094 ****        16.7500   7.7500   4.0000 Du        
  33095 ****        16.7500   7.7500   4.2500 Du        
  33096 ****        16.7500   7.7500  26.5000 Du        
  33097 ****        16.7500   8.0000   3.7500 Du        
  33098 ****        16.7500   8.0000   4.0000 Du        
  33099 ****        16.7500  10.0000  35.7500 Du        
  33100 ****        16.7500  10.0000  36.0000 Du        
  33101 ****        16.7500  10.2500  20.0000 Du        
  33102 ****        16.7500  10.2500  20.2500 Du        
  33103 ****        16.7500  10.2500  20.5000 Du        
  33104 ****        16.7500  10.2500  35.7500 Du        
  33105 ****        16.7500  10.2500  36.0000 Du        
  33106 ****        16.7500  10.2500  36.2500 Du        
  33107 ****        16.7500  10.2500  36.5000 Du        
  33108 ****        16.7500  10.5000  20.0000 Du        
  33109 ****        16.7500  10.5000  20.2500 Du        
  33110 ****        16.7500  10.5000  20.5000 Du        
  33111 ****        16.7500  10.5000  20.7500 Du        
  33112 ****        16.7500  10.5000  21.0000 Du        
  33113 ****        16.7500  10.5000  21.2500 Du        
  33114 ****        16.7500  10.5000  35.7500 Du        
  33115 ****        16.7500  10.5000  36.0000 Du        
  33116 ****        16.7500  10.5000  36.2500 Du        
  33117 ****        16.7500  10.5000  36.5000 Du        
  33118 ****        16.7500  10.5000  36.7500 Du        
  33119 ****        16.7500  10.7500  20.0000 Du        
  33120 ****        16.7500  10.7500  20.2500 Du        
  33121 ****        16.7500  10.7500  20.5000 Du        
  33122 ****        16.7500  10.7500  20.7500 Du        
  33123 ****        16.7500  10.7500  21.0000 Du        
  33124 ****        16.7500  10.7500  21.2500 Du        
  33125 ****        16.7500  10.7500  21.5000 Du        
  33126 ****        16.7500  10.7500  21.7500 Du        
  33127 ****        16.7500  10.7500  35.7500 Du        
  33128 ****        16.7500  10.7500  36.0000 Du        
  33129 ****        16.7500  10.7500  36.2500 Du        
  33130 ****        16.7500  10.7500  36.5000 Du        
  33131 ****        16.7500  10.7500  36.7500 Du        
  33132 ****        16.7500  10.7500  37.0000 Du        
  33133 ****        16.7500  11.0000  20.2500 Du        
  33134 ****        16.7500  11.0000  20.5000 Du        
  33135 ****        16.7500  11.0000  20.7500 Du        
  33136 ****        16.7500  11.0000  21.0000 Du        
  33137 ****        16.7500  11.0000  21.2500 Du        
  33138 ****        16.7500  11.0000  21.5000 Du        
  33139 ****        16.7500  11.0000  21.7500 Du        
  33140 ****        16.7500  11.0000  35.7500 Du        
  33141 ****        16.7500  11.0000  36.0000 Du        
  33142 ****        16.7500  11.0000  36.2500 Du        
  33143 ****        16.7500  11.0000  36.5000 Du        
  33144 ****        16.7500  11.0000  36.7500 Du        
  33145 ****        16.7500  11.0000  37.0000 Du        
  33146 ****        16.7500  11.0000  37.2500 Du        
  33147 ****        16.7500  11.2500  20.7500 Du        
  33148 ****        16.7500  11.2500  21.0000 Du        
  33149 ****        16.7500  11.2500  21.2500 Du        
  33150 ****        16.7500  11.2500  21.5000 Du        
  33151 ****        16.7500  11.2500  21.7500 Du        
  33152 ****        16.7500  11.2500  22.0000 Du        
  33153 ****        16.7500  11.2500  35.7500 Du        
  33154 ****        16.7500  11.2500  36.0000 Du        
  33155 ****        16.7500  11.2500  36.2500 Du        
  33156 ****        16.7500  11.2500  36.5000 Du        
  33157 ****        16.7500  11.2500  36.7500 Du        
  33158 ****        16.7500  11.2500  37.0000 Du        
  33159 ****        16.7500  11.2500  37.2500 Du        
  33160 ****        16.7500  11.2500  37.5000 Du        
  33161 ****        16.7500  11.5000  21.0000 Du        
  33162 ****        16.7500  11.5000  21.2500 Du        
  33163 ****        16.7500  11.5000  21.5000 Du        
  33164 ****        16.7500  11.5000  21.7500 Du        
  33165 ****        16.7500  11.5000  36.0000 Du        
  33166 ****        16.7500  11.5000  36.2500 Du        
  33167 ****        16.7500  11.5000  36.5000 Du        
  33168 ****        16.7500  11.5000  36.7500 Du        
  33169 ****        16.7500  11.5000  37.0000 Du        
  33170 ****        16.7500  11.5000  37.2500 Du        
  33171 ****        16.7500  11.5000  37.5000 Du        
  33172 ****        16.7500  11.5000  37.7500 Du        
  33173 ****        16.7500  11.7500  21.5000 Du        
  33174 ****        16.7500  11.7500  21.7500 Du        
  33175 ****        16.7500  11.7500  36.0000 Du        
  33176 ****        16.7500  11.7500  36.2500 Du        
  33177 ****        16.7500  11.7500  36.5000 Du        
  33178 ****        16.7500  11.7500  36.7500 Du        
  33179 ****        16.7500  11.7500  37.0000 Du        
  33180 ****        16.7500  11.7500  37.2500 Du        
  33181 ****        16.7500  11.7500  37.5000 Du        
  33182 ****        16.7500  11.7500  37.7500 Du        
  33183 ****        16.7500  12.0000  36.2500 Du        
  33184 ****        16.7500  12.0000  36.5000 Du        
  33185 ****        16.7500  12.0000  36.7500 Du        
  33186 ****        16.7500  12.0000  37.0000 Du        
  33187 ****        16.7500  12.0000  37.2500 Du        
  33188 ****        16.7500  12.0000  37.5000 Du        
  33189 ****        16.7500  12.0000  37.7500 Du        
  33190 ****        16.7500  12.2500  36.7500 Du        
  33191 ****        16.7500  12.2500  37.0000 Du        
  33192 ****        16.7500  12.2500  37.2500 Du        
  33193 ****        16.7500  12.2500  37.5000 Du        
  33194 ****        16.7500  12.2500  37.7500 Du        
  33195 ****        16.7500  12.5000  37.0000 Du        
  33196 ****        16.7500  12.5000  37.2500 Du        
  33197 ****        16.7500  12.5000  37.5000 Du        
  33198 ****        16.7500  12.5000  37.7500 Du        
  33199 ****        16.7500  12.7500  37.2500 Du        
  33200 ****        16.7500  12.7500  37.5000 Du        
  33201 ****        16.7500  12.7500  37.7500 Du        
  33202 ****        16.7500  12.7500  38.0000 Du        
  33203 ****        16.7500  13.0000  37.2500 Du        
  33204 ****        16.7500  13.0000  37.5000 Du        
  33205 ****        16.7500  13.0000  37.7500 Du        
  33206 ****        16.7500  13.0000  38.0000 Du        
  33207 ****        16.7500  13.2500  15.5000 Du        
  33208 ****        16.7500  13.2500  15.7500 Du        
  33209 ****        16.7500  13.2500  37.2500 Du        
  33210 ****        16.7500  13.2500  37.5000 Du        
  33211 ****        16.7500  13.2500  37.7500 Du        
  33212 ****        16.7500  13.2500  38.0000 Du        
  33213 ****        16.7500  13.2500  38.2500 Du        
  33214 ****        16.7500  13.5000  14.0000 Du        
  33215 ****        16.7500  13.5000  14.2500 Du        
  33216 ****        16.7500  13.5000  14.5000 Du        
  33217 ****        16.7500  13.5000  14.7500 Du        
  33218 ****        16.7500  13.5000  15.0000 Du        
  33219 ****        16.7500  13.5000  15.2500 Du        
  33220 ****        16.7500  13.5000  15.5000 Du        
  33221 ****        16.7500  13.5000  15.7500 Du        
  33222 ****        16.7500  13.5000  16.0000 Du        
  33223 ****        16.7500  13.5000  37.5000 Du        
  33224 ****        16.7500  13.5000  37.7500 Du        
  33225 ****        16.7500  13.5000  38.0000 Du        
  33226 ****        16.7500  13.5000  38.2500 Du        
  33227 ****        16.7500  13.7500  14.0000 Du        
  33228 ****        16.7500  13.7500  14.2500 Du        
  33229 ****        16.7500  13.7500  14.5000 Du        
  33230 ****        16.7500  13.7500  14.7500 Du        
  33231 ****        16.7500  13.7500  15.0000 Du        
  33232 ****        16.7500  13.7500  15.2500 Du        
  33233 ****        16.7500  13.7500  15.5000 Du        
  33234 ****        16.7500  13.7500  15.7500 Du        
  33235 ****        16.7500  13.7500  16.0000 Du        
  33236 ****        16.7500  13.7500  37.7500 Du        
  33237 ****        16.7500  13.7500  38.0000 Du        
  33238 ****        16.7500  13.7500  38.2500 Du        
  33239 ****        16.7500  13.7500  38.5000 Du        
  33240 ****        16.7500  14.0000  14.0000 Du        
  33241 ****        16.7500  14.0000  14.2500 Du        
  33242 ****        16.7500  14.0000  14.5000 Du        
  33243 ****        16.7500  14.0000  14.7500 Du        
  33244 ****        16.7500  14.0000  15.0000 Du        
  33245 ****        16.7500  14.0000  15.2500 Du        
  33246 ****        16.7500  14.0000  15.5000 Du        
  33247 ****        16.7500  14.0000  15.7500 Du        
  33248 ****        16.7500  14.0000  16.0000 Du        
  33249 ****        16.7500  14.0000  37.7500 Du        
  33250 ****        16.7500  14.0000  38.0000 Du        
  33251 ****        16.7500  14.0000  38.2500 Du        
  33252 ****        16.7500  14.0000  38.5000 Du        
  33253 ****        16.7500  14.2500  14.0000 Du        
  33254 ****        16.7500  14.2500  14.2500 Du        
  33255 ****        16.7500  14.2500  14.5000 Du        
  33256 ****        16.7500  14.2500  14.7500 Du        
  33257 ****        16.7500  14.2500  15.0000 Du        
  33258 ****        16.7500  14.2500  15.2500 Du        
  33259 ****        16.7500  14.2500  15.5000 Du        
  33260 ****        16.7500  14.2500  15.7500 Du        
  33261 ****        16.7500  14.2500  16.0000 Du        
  33262 ****        16.7500  14.2500  38.0000 Du        
  33263 ****        16.7500  14.2500  38.2500 Du        
  33264 ****        16.7500  14.2500  38.5000 Du        
  33265 ****        16.7500  14.2500  38.7500 Du        
  33266 ****        16.7500  14.5000  14.0000 Du        
  33267 ****        16.7500  14.5000  14.2500 Du        
  33268 ****        16.7500  14.5000  14.5000 Du        
  33269 ****        16.7500  14.5000  14.7500 Du        
  33270 ****        16.7500  14.5000  15.0000 Du        
  33271 ****        16.7500  14.5000  15.2500 Du        
  33272 ****        16.7500  14.5000  15.5000 Du        
  33273 ****        16.7500  14.5000  15.7500 Du        
  33274 ****        16.7500  14.5000  16.0000 Du        
  33275 ****        16.7500  14.5000  38.5000 Du        
  33276 ****        16.7500  14.5000  38.7500 Du        
  33277 ****        16.7500  14.7500  14.0000 Du        
  33278 ****        16.7500  14.7500  14.2500 Du        
  33279 ****        16.7500  14.7500  14.5000 Du        
  33280 ****        16.7500  14.7500  14.7500 Du        
  33281 ****        16.7500  14.7500  15.0000 Du        
  33282 ****        16.7500  14.7500  15.2500 Du        
  33283 ****        16.7500  14.7500  15.5000 Du        
  33284 ****        16.7500  14.7500  15.7500 Du        
  33285 ****        16.7500  14.7500  38.7500 Du        
  33286 ****        16.7500  14.7500  39.0000 Du        
  33287 ****        16.7500  15.0000  14.0000 Du        
  33288 ****        16.7500  15.0000  14.2500 Du        
  33289 ****        16.7500  15.0000  14.5000 Du        
  33290 ****        16.7500  15.0000  14.7500 Du        
  33291 ****        16.7500  15.0000  15.0000 Du        
  33292 ****        16.7500  15.0000  15.2500 Du        
  33293 ****        16.7500  15.0000  15.5000 Du        
  33294 ****        16.7500  15.0000  32.0000 Du        
  33295 ****        16.7500  15.0000  38.7500 Du        
  33296 ****        16.7500  15.0000  39.0000 Du        
  33297 ****        16.7500  15.2500  14.0000 Du        
  33298 ****        16.7500  15.2500  14.2500 Du        
  33299 ****        16.7500  15.2500  14.5000 Du        
  33300 ****        16.7500  15.2500  14.7500 Du        
  33301 ****        16.7500  15.2500  15.0000 Du        
  33302 ****        16.7500  15.2500  15.2500 Du        
  33303 ****        16.7500  15.2500  32.0000 Du        
  33304 ****        16.7500  15.2500  39.0000 Du        
  33305 ****        16.7500  15.5000  13.7500 Du        
  33306 ****        16.7500  15.5000  14.0000 Du        
  33307 ****        16.7500  15.5000  14.2500 Du        
  33308 ****        16.7500  15.5000  14.5000 Du        
  33309 ****        16.7500  15.5000  14.7500 Du        
  33310 ****        16.7500  15.5000  15.0000 Du        
  33311 ****        16.7500  15.5000  15.2500 Du        
  33312 ****        16.7500  15.5000  32.0000 Du        
  33313 ****        16.7500  15.5000  32.2500 Du        
  33314 ****        16.7500  15.7500  13.5000 Du        
  33315 ****        16.7500  15.7500  13.7500 Du        
  33316 ****        16.7500  15.7500  14.0000 Du        
  33317 ****        16.7500  15.7500  14.2500 Du        
  33318 ****        16.7500  15.7500  14.5000 Du        
  33319 ****        16.7500  15.7500  14.7500 Du        
  33320 ****        16.7500  15.7500  15.0000 Du        
  33321 ****        16.7500  15.7500  31.7500 Du        
  33322 ****        16.7500  15.7500  32.0000 Du        
  33323 ****        16.7500  15.7500  32.2500 Du        
  33324 ****        16.7500  16.0000  13.5000 Du        
  33325 ****        16.7500  16.0000  13.7500 Du        
  33326 ****        16.7500  16.0000  14.0000 Du        
  33327 ****        16.7500  16.0000  14.2500 Du        
  33328 ****        16.7500  16.0000  14.5000 Du        
  33329 ****        16.7500  16.0000  14.7500 Du        
  33330 ****        16.7500  16.0000  31.7500 Du        
  33331 ****        16.7500  16.0000  32.0000 Du        
  33332 ****        16.7500  16.0000  32.2500 Du        
  33333 ****        16.7500  16.0000  32.5000 Du        
  33334 ****        16.7500  16.2500  13.2500 Du        
  33335 ****        16.7500  16.2500  13.5000 Du        
  33336 ****        16.7500  16.2500  13.7500 Du        
  33337 ****        16.7500  16.2500  14.0000 Du        
  33338 ****        16.7500  16.2500  14.2500 Du        
  33339 ****        16.7500  16.2500  14.5000 Du        
  33340 ****        16.7500  16.2500  31.7500 Du        
  33341 ****        16.7500  16.2500  32.0000 Du        
  33342 ****        16.7500  16.2500  32.2500 Du        
  33343 ****        16.7500  16.2500  32.5000 Du        
  33344 ****        16.7500  16.2500  40.2500 Du        
  33345 ****        16.7500  16.2500  40.5000 Du        
  33346 ****        16.7500  16.5000  13.0000 Du        
  33347 ****        16.7500  16.5000  13.2500 Du        
  33348 ****        16.7500  16.5000  13.5000 Du        
  33349 ****        16.7500  16.5000  13.7500 Du        
  33350 ****        16.7500  16.5000  31.7500 Du        
  33351 ****        16.7500  16.5000  32.0000 Du        
  33352 ****        16.7500  16.5000  32.2500 Du        
  33353 ****        16.7500  16.5000  32.5000 Du        
  33354 ****        16.7500  16.7500  31.7500 Du        
  33355 ****        16.7500  16.7500  32.0000 Du        
  33356 ****        16.7500  16.7500  32.2500 Du        
  33357 ****        16.7500  16.7500  32.5000 Du        
  33358 ****        16.7500  16.7500  32.7500 Du        
  33359 ****        16.7500  17.0000  10.7500 Du        
  33360 ****        16.7500  17.0000  11.0000 Du        
  33361 ****        16.7500  17.0000  11.2500 Du        
  33362 ****        16.7500  17.0000  11.5000 Du        
  33363 ****        16.7500  17.0000  11.7500 Du        
  33364 ****        16.7500  17.0000  31.7500 Du        
  33365 ****        16.7500  17.0000  32.0000 Du        
  33366 ****        16.7500  17.0000  32.2500 Du        
  33367 ****        16.7500  17.0000  32.5000 Du        
  33368 ****        16.7500  17.0000  32.7500 Du        
  33369 ****        16.7500  17.0000  33.0000 Du        
  33370 ****        16.7500  17.2500  10.7500 Du        
  33371 ****        16.7500  17.2500  11.0000 Du        
  33372 ****        16.7500  17.2500  11.2500 Du        
  33373 ****        16.7500  17.2500  11.5000 Du        
  33374 ****        16.7500  17.2500  31.5000 Du        
  33375 ****        16.7500  17.2500  31.7500 Du        
  33376 ****        16.7500  17.2500  32.0000 Du        
  33377 ****        16.7500  17.2500  32.2500 Du        
  33378 ****        16.7500  17.2500  32.5000 Du        
  33379 ****        16.7500  17.2500  32.7500 Du        
  33380 ****        16.7500  17.2500  33.0000 Du        
  33381 ****        16.7500  17.5000  10.5000 Du        
  33382 ****        16.7500  17.5000  10.7500 Du        
  33383 ****        16.7500  17.5000  11.0000 Du        
  33384 ****        16.7500  17.5000  11.2500 Du        
  33385 ****        16.7500  17.5000  31.7500 Du        
  33386 ****        16.7500  17.5000  32.0000 Du        
  33387 ****        16.7500  17.5000  32.2500 Du        
  33388 ****        16.7500  17.5000  32.5000 Du        
  33389 ****        16.7500  17.5000  32.7500 Du        
  33390 ****        16.7500  17.5000  33.0000 Du        
  33391 ****        16.7500  17.5000  33.2500 Du        
  33392 ****        16.7500  17.7500  10.7500 Du        
  33393 ****        16.7500  17.7500  31.7500 Du        
  33394 ****        16.7500  17.7500  32.0000 Du        
  33395 ****        16.7500  17.7500  32.2500 Du        
  33396 ****        16.7500  17.7500  32.5000 Du        
  33397 ****        16.7500  17.7500  32.7500 Du        
  33398 ****        16.7500  17.7500  33.0000 Du        
  33399 ****        16.7500  17.7500  33.2500 Du        
  33400 ****        16.7500  18.0000  32.0000 Du        
  33401 ****        16.7500  18.0000  32.2500 Du        
  33402 ****        16.7500  18.0000  32.5000 Du        
  33403 ****        16.7500  18.0000  32.7500 Du        
  33404 ****        16.7500  18.0000  33.0000 Du        
  33405 ****        16.7500  18.0000  33.2500 Du        
  33406 ****        16.7500  18.0000  33.5000 Du        
  33407 ****        16.7500  18.2500  32.5000 Du        
  33408 ****        16.7500  18.2500  32.7500 Du        
  33409 ****        16.7500  18.2500  33.0000 Du        
  33410 ****        16.7500  18.2500  33.2500 Du        
  33411 ****        16.7500  18.2500  33.5000 Du        
  33412 ****        16.7500  18.2500  33.7500 Du        
  33413 ****        16.7500  18.5000  33.0000 Du        
  33414 ****        16.7500  18.5000  33.2500 Du        
  33415 ****        16.7500  18.5000  33.5000 Du        
  33416 ****        16.7500  18.5000  33.7500 Du        
  33417 ****        16.7500  18.5000  34.0000 Du        
  33418 ****        16.7500  18.5000  34.2500 Du        
  33419 ****        16.7500  18.7500  33.2500 Du        
  33420 ****        16.7500  18.7500  33.5000 Du        
  33421 ****        16.7500  18.7500  33.7500 Du        
  33422 ****        16.7500  18.7500  34.0000 Du        
  33423 ****        16.7500  18.7500  34.2500 Du        
  33424 ****        16.7500  19.0000  34.0000 Du        
  33425 ****        16.7500  19.0000  34.2500 Du        
  33426 ****        17.0000  -4.0000  26.5000 Du        
  33427 ****        17.0000  -4.0000  26.7500 Du        
  33428 ****        17.0000  -3.7500  26.2500 Du        
  33429 ****        17.0000  -3.7500  26.5000 Du        
  33430 ****        17.0000  -3.7500  26.7500 Du        
  33431 ****        17.0000  -3.5000  26.5000 Du        
  33432 ****        17.0000  -3.5000  26.7500 Du        
  33433 ****        17.0000  -3.2500  26.5000 Du        
  33434 ****        17.0000  -3.2500  26.7500 Du        
  33435 ****        17.0000  -3.2500  27.0000 Du        
  33436 ****        17.0000   1.5000  21.2500 Du        
  33437 ****        17.0000   1.7500  20.7500 Du        
  33438 ****        17.0000   1.7500  21.0000 Du        
  33439 ****        17.0000   1.7500  21.2500 Du        
  33440 ****        17.0000   2.0000  20.7500 Du        
  33441 ****        17.0000   2.0000  21.0000 Du        
  33442 ****        17.0000   2.0000  21.2500 Du        
  33443 ****        17.0000   2.0000  21.5000 Du        
  33444 ****        17.0000   2.0000  21.7500 Du        
  33445 ****        17.0000   2.2500  20.7500 Du        
  33446 ****        17.0000   2.2500  21.0000 Du        
  33447 ****        17.0000   2.2500  21.2500 Du        
  33448 ****        17.0000   2.2500  21.5000 Du        
  33449 ****        17.0000   2.2500  21.7500 Du        
  33450 ****        17.0000   2.2500  29.2500 Du        
  33451 ****        17.0000   2.2500  29.5000 Du        
  33452 ****        17.0000   2.5000  20.7500 Du        
  33453 ****        17.0000   2.5000  21.0000 Du        
  33454 ****        17.0000   2.5000  21.2500 Du        
  33455 ****        17.0000   2.5000  21.5000 Du        
  33456 ****        17.0000   2.5000  21.7500 Du        
  33457 ****        17.0000   2.5000  22.0000 Du        
  33458 ****        17.0000   2.5000  29.2500 Du        
  33459 ****        17.0000   2.5000  29.5000 Du        
  33460 ****        17.0000   2.5000  29.7500 Du        
  33461 ****        17.0000   2.7500  20.7500 Du        
  33462 ****        17.0000   2.7500  21.0000 Du        
  33463 ****        17.0000   2.7500  21.2500 Du        
  33464 ****        17.0000   2.7500  21.5000 Du        
  33465 ****        17.0000   2.7500  21.7500 Du        
  33466 ****        17.0000   2.7500  29.0000 Du        
  33467 ****        17.0000   2.7500  29.2500 Du        
  33468 ****        17.0000   2.7500  29.5000 Du        
  33469 ****        17.0000   2.7500  29.7500 Du        
  33470 ****        17.0000   2.7500  30.0000 Du        
  33471 ****        17.0000   3.0000  21.2500 Du        
  33472 ****        17.0000   3.0000  29.0000 Du        
  33473 ****        17.0000   3.0000  29.2500 Du        
  33474 ****        17.0000   3.0000  29.5000 Du        
  33475 ****        17.0000   3.0000  29.7500 Du        
  33476 ****        17.0000   3.0000  30.0000 Du        
  33477 ****        17.0000   3.2500  29.2500 Du        
  33478 ****        17.0000   3.2500  29.5000 Du        
  33479 ****        17.0000   3.2500  29.7500 Du        
  33480 ****        17.0000   3.2500  30.0000 Du        
  33481 ****        17.0000   3.2500  30.2500 Du        
  33482 ****        17.0000   3.5000  29.7500 Du        
  33483 ****        17.0000   3.5000  30.0000 Du        
  33484 ****        17.0000   3.5000  30.2500 Du        
  33485 ****        17.0000   3.7500  30.2500 Du        
  33486 ****        17.0000   4.0000  30.7500 Du        
  33487 ****        17.0000   4.2500   4.0000 Du        
  33488 ****        17.0000   4.5000   3.0000 Du        
  33489 ****        17.0000   4.5000   3.2500 Du        
  33490 ****        17.0000   4.5000   3.5000 Du        
  33491 ****        17.0000   4.5000   3.7500 Du        
  33492 ****        17.0000   4.5000   4.0000 Du        
  33493 ****        17.0000   4.5000   4.2500 Du        
  33494 ****        17.0000   4.7500   3.0000 Du        
  33495 ****        17.0000   4.7500   3.2500 Du        
  33496 ****        17.0000   4.7500   3.5000 Du        
  33497 ****        17.0000   4.7500   3.7500 Du        
  33498 ****        17.0000   4.7500   4.0000 Du        
  33499 ****        17.0000   4.7500   4.2500 Du        
  33500 ****        17.0000   5.0000   3.0000 Du        
  33501 ****        17.0000   5.0000   3.2500 Du        
  33502 ****        17.0000   5.0000   3.5000 Du        
  33503 ****        17.0000   5.0000   3.7500 Du        
  33504 ****        17.0000   5.0000   4.0000 Du        
  33505 ****        17.0000   5.0000   4.2500 Du        
  33506 ****        17.0000   5.2500   3.2500 Du        
  33507 ****        17.0000   5.2500   3.5000 Du        
  33508 ****        17.0000   5.2500   3.7500 Du        
  33509 ****        17.0000   5.2500   4.0000 Du        
  33510 ****        17.0000   5.5000   3.2500 Du        
  33511 ****        17.0000   5.5000   3.5000 Du        
  33512 ****        17.0000   5.5000   3.7500 Du        
  33513 ****        17.0000   5.5000   4.0000 Du        
  33514 ****        17.0000   5.7500   3.2500 Du        
  33515 ****        17.0000   5.7500   3.5000 Du        
  33516 ****        17.0000   5.7500   3.7500 Du        
  33517 ****        17.0000   5.7500   4.0000 Du        
  33518 ****        17.0000   6.0000   3.2500 Du        
  33519 ****        17.0000   6.0000   3.5000 Du        
  33520 ****        17.0000   6.0000   3.7500 Du        
  33521 ****        17.0000   6.0000   4.0000 Du        
  33522 ****        17.0000   6.2500   3.2500 Du        
  33523 ****        17.0000   6.2500   3.5000 Du        
  33524 ****        17.0000   6.2500   3.7500 Du        
  33525 ****        17.0000   6.2500   4.0000 Du        
  33526 ****        17.0000   6.5000   3.2500 Du        
  33527 ****        17.0000   6.5000   3.5000 Du        
  33528 ****        17.0000   6.5000   3.7500 Du        
  33529 ****        17.0000   6.5000   4.0000 Du        
  33530 ****        17.0000   6.7500   3.2500 Du        
  33531 ****        17.0000   6.7500   3.5000 Du        
  33532 ****        17.0000   6.7500   3.7500 Du        
  33533 ****        17.0000   6.7500   4.0000 Du        
  33534 ****        17.0000   6.7500   4.2500 Du        
  33535 ****        17.0000   7.0000   3.2500 Du        
  33536 ****        17.0000   7.0000   3.5000 Du        
  33537 ****        17.0000   7.0000   3.7500 Du        
  33538 ****        17.0000   7.0000   4.0000 Du        
  33539 ****        17.0000   7.0000   4.2500 Du        
  33540 ****        17.0000   7.0000  26.7500 Du        
  33541 ****        17.0000   7.2500   3.2500 Du        
  33542 ****        17.0000   7.2500   3.5000 Du        
  33543 ****        17.0000   7.2500   3.7500 Du        
  33544 ****        17.0000   7.2500   4.0000 Du        
  33545 ****        17.0000   7.2500   4.2500 Du        
  33546 ****        17.0000   7.2500  26.5000 Du        
  33547 ****        17.0000   7.2500  26.7500 Du        
  33548 ****        17.0000   7.5000   3.2500 Du        
  33549 ****        17.0000   7.5000   3.5000 Du        
  33550 ****        17.0000   7.5000   3.7500 Du        
  33551 ****        17.0000   7.5000   4.0000 Du        
  33552 ****        17.0000   7.5000   4.2500 Du        
  33553 ****        17.0000   7.5000  26.5000 Du        
  33554 ****        17.0000   7.7500   3.5000 Du        
  33555 ****        17.0000   7.7500   3.7500 Du        
  33556 ****        17.0000   7.7500   4.0000 Du        
  33557 ****        17.0000   7.7500   4.2500 Du        
  33558 ****        17.0000   8.0000   3.7500 Du        
  33559 ****        17.0000   8.0000   4.0000 Du        
  33560 ****        17.0000  10.0000  35.7500 Du        
  33561 ****        17.0000  10.0000  36.0000 Du        
  33562 ****        17.0000  10.2500  35.7500 Du        
  33563 ****        17.0000  10.2500  36.0000 Du        
  33564 ****        17.0000  10.2500  36.2500 Du        
  33565 ****        17.0000  10.5000  19.7500 Du        
  33566 ****        17.0000  10.5000  20.0000 Du        
  33567 ****        17.0000  10.5000  20.2500 Du        
  33568 ****        17.0000  10.5000  20.5000 Du        
  33569 ****        17.0000  10.5000  35.7500 Du        
  33570 ****        17.0000  10.5000  36.0000 Du        
  33571 ****        17.0000  10.5000  36.2500 Du        
  33572 ****        17.0000  10.5000  36.5000 Du        
  33573 ****        17.0000  10.7500  19.7500 Du        
  33574 ****        17.0000  10.7500  20.0000 Du        
  33575 ****        17.0000  10.7500  20.2500 Du        
  33576 ****        17.0000  10.7500  20.5000 Du        
  33577 ****        17.0000  10.7500  20.7500 Du        
  33578 ****        17.0000  10.7500  21.0000 Du        
  33579 ****        17.0000  10.7500  21.2500 Du        
  33580 ****        17.0000  10.7500  35.7500 Du        
  33581 ****        17.0000  10.7500  36.0000 Du        
  33582 ****        17.0000  10.7500  36.2500 Du        
  33583 ****        17.0000  10.7500  36.5000 Du        
  33584 ****        17.0000  10.7500  36.7500 Du        
  33585 ****        17.0000  10.7500  37.0000 Du        
  33586 ****        17.0000  11.0000  20.0000 Du        
  33587 ****        17.0000  11.0000  20.2500 Du        
  33588 ****        17.0000  11.0000  20.5000 Du        
  33589 ****        17.0000  11.0000  20.7500 Du        
  33590 ****        17.0000  11.0000  21.0000 Du        
  33591 ****        17.0000  11.0000  21.2500 Du        
  33592 ****        17.0000  11.0000  21.5000 Du        
  33593 ****        17.0000  11.0000  21.7500 Du        
  33594 ****        17.0000  11.0000  22.0000 Du        
  33595 ****        17.0000  11.0000  35.7500 Du        
  33596 ****        17.0000  11.0000  36.0000 Du        
  33597 ****        17.0000  11.0000  36.2500 Du        
  33598 ****        17.0000  11.0000  36.5000 Du        
  33599 ****        17.0000  11.0000  36.7500 Du        
  33600 ****        17.0000  11.0000  37.0000 Du        
  33601 ****        17.0000  11.0000  37.2500 Du        
  33602 ****        17.0000  11.2500  20.5000 Du        
  33603 ****        17.0000  11.2500  20.7500 Du        
  33604 ****        17.0000  11.2500  21.0000 Du        
  33605 ****        17.0000  11.2500  21.2500 Du        
  33606 ****        17.0000  11.2500  21.5000 Du        
  33607 ****        17.0000  11.2500  21.7500 Du        
  33608 ****        17.0000  11.2500  22.0000 Du        
  33609 ****        17.0000  11.2500  35.7500 Du        
  33610 ****        17.0000  11.2500  36.0000 Du        
  33611 ****        17.0000  11.2500  36.2500 Du        
  33612 ****        17.0000  11.2500  36.5000 Du        
  33613 ****        17.0000  11.2500  36.7500 Du        
  33614 ****        17.0000  11.2500  37.0000 Du        
  33615 ****        17.0000  11.2500  37.2500 Du        
  33616 ****        17.0000  11.2500  37.5000 Du        
  33617 ****        17.0000  11.5000  21.0000 Du        
  33618 ****        17.0000  11.5000  21.2500 Du        
  33619 ****        17.0000  11.5000  21.5000 Du        
  33620 ****        17.0000  11.5000  21.7500 Du        
  33621 ****        17.0000  11.5000  22.0000 Du        
  33622 ****        17.0000  11.5000  35.7500 Du        
  33623 ****        17.0000  11.5000  36.0000 Du        
  33624 ****        17.0000  11.5000  36.2500 Du        
  33625 ****        17.0000  11.5000  36.5000 Du        
  33626 ****        17.0000  11.5000  36.7500 Du        
  33627 ****        17.0000  11.5000  37.0000 Du        
  33628 ****        17.0000  11.5000  37.2500 Du        
  33629 ****        17.0000  11.5000  37.5000 Du        
  33630 ****        17.0000  11.5000  37.7500 Du        
  33631 ****        17.0000  11.7500  21.2500 Du        
  33632 ****        17.0000  11.7500  21.5000 Du        
  33633 ****        17.0000  11.7500  21.7500 Du        
  33634 ****        17.0000  11.7500  22.0000 Du        
  33635 ****        17.0000  11.7500  36.0000 Du        
  33636 ****        17.0000  11.7500  36.2500 Du        
  33637 ****        17.0000  11.7500  36.5000 Du        
  33638 ****        17.0000  11.7500  36.7500 Du        
  33639 ****        17.0000  11.7500  37.0000 Du        
  33640 ****        17.0000  11.7500  37.2500 Du        
  33641 ****        17.0000  11.7500  37.5000 Du        
  33642 ****        17.0000  11.7500  37.7500 Du        
  33643 ****        17.0000  12.0000  36.2500 Du        
  33644 ****        17.0000  12.0000  36.5000 Du        
  33645 ****        17.0000  12.0000  36.7500 Du        
  33646 ****        17.0000  12.0000  37.0000 Du        
  33647 ****        17.0000  12.0000  37.2500 Du        
  33648 ****        17.0000  12.0000  37.5000 Du        
  33649 ****        17.0000  12.0000  37.7500 Du        
  33650 ****        17.0000  12.2500  36.5000 Du        
  33651 ****        17.0000  12.2500  36.7500 Du        
  33652 ****        17.0000  12.2500  37.0000 Du        
  33653 ****        17.0000  12.2500  37.2500 Du        
  33654 ****        17.0000  12.2500  37.5000 Du        
  33655 ****        17.0000  12.2500  37.7500 Du        
  33656 ****        17.0000  12.2500  38.0000 Du        
  33657 ****        17.0000  12.5000  37.0000 Du        
  33658 ****        17.0000  12.5000  37.2500 Du        
  33659 ****        17.0000  12.5000  37.5000 Du        
  33660 ****        17.0000  12.5000  37.7500 Du        
  33661 ****        17.0000  12.5000  38.0000 Du        
  33662 ****        17.0000  12.7500  37.0000 Du        
  33663 ****        17.0000  12.7500  37.2500 Du        
  33664 ****        17.0000  12.7500  37.5000 Du        
  33665 ****        17.0000  12.7500  37.7500 Du        
  33666 ****        17.0000  12.7500  38.0000 Du        
  33667 ****        17.0000  13.0000  37.2500 Du        
  33668 ****        17.0000  13.0000  37.5000 Du        
  33669 ****        17.0000  13.0000  37.7500 Du        
  33670 ****        17.0000  13.0000  38.0000 Du        
  33671 ****        17.0000  13.2500  15.0000 Du        
  33672 ****        17.0000  13.2500  15.2500 Du        
  33673 ****        17.0000  13.2500  15.5000 Du        
  33674 ****        17.0000  13.2500  15.7500 Du        
  33675 ****        17.0000  13.2500  16.0000 Du        
  33676 ****        17.0000  13.2500  37.5000 Du        
  33677 ****        17.0000  13.2500  37.7500 Du        
  33678 ****        17.0000  13.2500  38.0000 Du        
  33679 ****        17.0000  13.2500  38.2500 Du        
  33680 ****        17.0000  13.5000  14.2500 Du        
  33681 ****        17.0000  13.5000  14.5000 Du        
  33682 ****        17.0000  13.5000  14.7500 Du        
  33683 ****        17.0000  13.5000  15.0000 Du        
  33684 ****        17.0000  13.5000  15.2500 Du        
  33685 ****        17.0000  13.5000  15.5000 Du        
  33686 ****        17.0000  13.5000  15.7500 Du        
  33687 ****        17.0000  13.5000  16.0000 Du        
  33688 ****        17.0000  13.5000  16.2500 Du        
  33689 ****        17.0000  13.5000  37.7500 Du        
  33690 ****        17.0000  13.5000  38.0000 Du        
  33691 ****        17.0000  13.5000  38.2500 Du        
  33692 ****        17.0000  13.5000  38.5000 Du        
  33693 ****        17.0000  13.7500  14.0000 Du        
  33694 ****        17.0000  13.7500  14.2500 Du        
  33695 ****        17.0000  13.7500  14.5000 Du        
  33696 ****        17.0000  13.7500  14.7500 Du        
  33697 ****        17.0000  13.7500  15.0000 Du        
  33698 ****        17.0000  13.7500  15.2500 Du        
  33699 ****        17.0000  13.7500  15.5000 Du        
  33700 ****        17.0000  13.7500  15.7500 Du        
  33701 ****        17.0000  13.7500  16.0000 Du        
  33702 ****        17.0000  13.7500  16.2500 Du        
  33703 ****        17.0000  13.7500  37.7500 Du        
  33704 ****        17.0000  13.7500  38.0000 Du        
  33705 ****        17.0000  13.7500  38.2500 Du        
  33706 ****        17.0000  13.7500  38.5000 Du        
  33707 ****        17.0000  14.0000  14.0000 Du        
  33708 ****        17.0000  14.0000  14.2500 Du        
  33709 ****        17.0000  14.0000  14.5000 Du        
  33710 ****        17.0000  14.0000  14.7500 Du        
  33711 ****        17.0000  14.0000  15.0000 Du        
  33712 ****        17.0000  14.0000  15.2500 Du        
  33713 ****        17.0000  14.0000  15.5000 Du        
  33714 ****        17.0000  14.0000  15.7500 Du        
  33715 ****        17.0000  14.0000  16.0000 Du        
  33716 ****        17.0000  14.0000  16.2500 Du        
  33717 ****        17.0000  14.0000  38.0000 Du        
  33718 ****        17.0000  14.0000  38.2500 Du        
  33719 ****        17.0000  14.0000  38.5000 Du        
  33720 ****        17.0000  14.0000  38.7500 Du        
  33721 ****        17.0000  14.2500  14.0000 Du        
  33722 ****        17.0000  14.2500  14.2500 Du        
  33723 ****        17.0000  14.2500  14.5000 Du        
  33724 ****        17.0000  14.2500  14.7500 Du        
  33725 ****        17.0000  14.2500  15.0000 Du        
  33726 ****        17.0000  14.2500  15.2500 Du        
  33727 ****        17.0000  14.2500  15.5000 Du        
  33728 ****        17.0000  14.2500  15.7500 Du        
  33729 ****        17.0000  14.2500  16.0000 Du        
  33730 ****        17.0000  14.2500  38.2500 Du        
  33731 ****        17.0000  14.2500  38.5000 Du        
  33732 ****        17.0000  14.2500  38.7500 Du        
  33733 ****        17.0000  14.5000  14.0000 Du        
  33734 ****        17.0000  14.5000  14.2500 Du        
  33735 ****        17.0000  14.5000  14.5000 Du        
  33736 ****        17.0000  14.5000  14.7500 Du        
  33737 ****        17.0000  14.5000  15.0000 Du        
  33738 ****        17.0000  14.5000  15.2500 Du        
  33739 ****        17.0000  14.5000  15.5000 Du        
  33740 ****        17.0000  14.5000  15.7500 Du        
  33741 ****        17.0000  14.5000  16.0000 Du        
  33742 ****        17.0000  14.5000  38.5000 Du        
  33743 ****        17.0000  14.5000  38.7500 Du        
  33744 ****        17.0000  14.5000  39.0000 Du        
  33745 ****        17.0000  14.7500  14.0000 Du        
  33746 ****        17.0000  14.7500  14.2500 Du        
  33747 ****        17.0000  14.7500  14.5000 Du        
  33748 ****        17.0000  14.7500  14.7500 Du        
  33749 ****        17.0000  14.7500  15.0000 Du        
  33750 ****        17.0000  14.7500  15.2500 Du        
  33751 ****        17.0000  14.7500  15.5000 Du        
  33752 ****        17.0000  14.7500  15.7500 Du        
  33753 ****        17.0000  14.7500  38.5000 Du        
  33754 ****        17.0000  14.7500  38.7500 Du        
  33755 ****        17.0000  14.7500  39.0000 Du        
  33756 ****        17.0000  15.0000  14.0000 Du        
  33757 ****        17.0000  15.0000  14.2500 Du        
  33758 ****        17.0000  15.0000  14.5000 Du        
  33759 ****        17.0000  15.0000  14.7500 Du        
  33760 ****        17.0000  15.0000  15.0000 Du        
  33761 ****        17.0000  15.0000  15.2500 Du        
  33762 ****        17.0000  15.0000  15.5000 Du        
  33763 ****        17.0000  15.0000  32.0000 Du        
  33764 ****        17.0000  15.0000  32.2500 Du        
  33765 ****        17.0000  15.0000  38.7500 Du        
  33766 ****        17.0000  15.0000  39.0000 Du        
  33767 ****        17.0000  15.0000  39.2500 Du        
  33768 ****        17.0000  15.2500  14.0000 Du        
  33769 ****        17.0000  15.2500  14.2500 Du        
  33770 ****        17.0000  15.2500  14.5000 Du        
  33771 ****        17.0000  15.2500  14.7500 Du        
  33772 ****        17.0000  15.2500  15.0000 Du        
  33773 ****        17.0000  15.2500  15.2500 Du        
  33774 ****        17.0000  15.2500  32.0000 Du        
  33775 ****        17.0000  15.2500  32.2500 Du        
  33776 ****        17.0000  15.2500  39.2500 Du        
  33777 ****        17.0000  15.5000  14.0000 Du        
  33778 ****        17.0000  15.5000  14.2500 Du        
  33779 ****        17.0000  15.5000  14.5000 Du        
  33780 ****        17.0000  15.5000  14.7500 Du        
  33781 ****        17.0000  15.5000  15.0000 Du        
  33782 ****        17.0000  15.5000  32.0000 Du        
  33783 ****        17.0000  15.5000  32.2500 Du        
  33784 ****        17.0000  15.5000  32.5000 Du        
  33785 ****        17.0000  15.7500  13.7500 Du        
  33786 ****        17.0000  15.7500  14.0000 Du        
  33787 ****        17.0000  15.7500  14.2500 Du        
  33788 ****        17.0000  15.7500  14.5000 Du        
  33789 ****        17.0000  15.7500  14.7500 Du        
  33790 ****        17.0000  15.7500  15.0000 Du        
  33791 ****        17.0000  15.7500  31.7500 Du        
  33792 ****        17.0000  15.7500  32.0000 Du        
  33793 ****        17.0000  15.7500  32.2500 Du        
  33794 ****        17.0000  15.7500  32.5000 Du        
  33795 ****        17.0000  16.0000  13.7500 Du        
  33796 ****        17.0000  16.0000  14.0000 Du        
  33797 ****        17.0000  16.0000  14.2500 Du        
  33798 ****        17.0000  16.0000  14.5000 Du        
  33799 ****        17.0000  16.0000  14.7500 Du        
  33800 ****        17.0000  16.0000  31.7500 Du        
  33801 ****        17.0000  16.0000  32.0000 Du        
  33802 ****        17.0000  16.0000  32.2500 Du        
  33803 ****        17.0000  16.0000  32.5000 Du        
  33804 ****        17.0000  16.0000  32.7500 Du        
  33805 ****        17.0000  16.0000  40.2500 Du        
  33806 ****        17.0000  16.2500  13.2500 Du        
  33807 ****        17.0000  16.2500  13.5000 Du        
  33808 ****        17.0000  16.2500  13.7500 Du        
  33809 ****        17.0000  16.2500  14.0000 Du        
  33810 ****        17.0000  16.2500  14.2500 Du        
  33811 ****        17.0000  16.2500  14.5000 Du        
  33812 ****        17.0000  16.2500  31.7500 Du        
  33813 ****        17.0000  16.2500  32.0000 Du        
  33814 ****        17.0000  16.2500  32.2500 Du        
  33815 ****        17.0000  16.2500  32.5000 Du        
  33816 ****        17.0000  16.2500  32.7500 Du        
  33817 ****        17.0000  16.2500  33.0000 Du        
  33818 ****        17.0000  16.2500  40.2500 Du        
  33819 ****        17.0000  16.2500  41.0000 Du        
  33820 ****        17.0000  16.5000  13.2500 Du        
  33821 ****        17.0000  16.5000  13.5000 Du        
  33822 ****        17.0000  16.5000  13.7500 Du        
  33823 ****        17.0000  16.5000  14.0000 Du        
  33824 ****        17.0000  16.5000  31.7500 Du        
  33825 ****        17.0000  16.5000  32.0000 Du        
  33826 ****        17.0000  16.5000  32.2500 Du        
  33827 ****        17.0000  16.5000  32.5000 Du        
  33828 ****        17.0000  16.5000  32.7500 Du        
  33829 ****        17.0000  16.5000  33.0000 Du        
  33830 ****        17.0000  16.7500  31.7500 Du        
  33831 ****        17.0000  16.7500  32.0000 Du        
  33832 ****        17.0000  16.7500  32.2500 Du        
  33833 ****        17.0000  16.7500  32.5000 Du        
  33834 ****        17.0000  16.7500  32.7500 Du        
  33835 ****        17.0000  16.7500  33.0000 Du        
  33836 ****        17.0000  17.0000  11.0000 Du        
  33837 ****        17.0000  17.0000  11.2500 Du        
  33838 ****        17.0000  17.0000  11.5000 Du        
  33839 ****        17.0000  17.0000  11.7500 Du        
  33840 ****        17.0000  17.0000  31.7500 Du        
  33841 ****        17.0000  17.0000  32.0000 Du        
  33842 ****        17.0000  17.0000  32.2500 Du        
  33843 ****        17.0000  17.0000  32.5000 Du        
  33844 ****        17.0000  17.0000  32.7500 Du        
  33845 ****        17.0000  17.0000  33.0000 Du        
  33846 ****        17.0000  17.0000  33.2500 Du        
  33847 ****        17.0000  17.2500  10.7500 Du        
  33848 ****        17.0000  17.2500  11.0000 Du        
  33849 ****        17.0000  17.2500  11.2500 Du        
  33850 ****        17.0000  17.2500  11.5000 Du        
  33851 ****        17.0000  17.2500  31.7500 Du        
  33852 ****        17.0000  17.2500  32.0000 Du        
  33853 ****        17.0000  17.2500  32.2500 Du        
  33854 ****        17.0000  17.2500  32.5000 Du        
  33855 ****        17.0000  17.2500  32.7500 Du        
  33856 ****        17.0000  17.2500  33.0000 Du        
  33857 ****        17.0000  17.2500  33.2500 Du        
  33858 ****        17.0000  17.5000  10.7500 Du        
  33859 ****        17.0000  17.5000  11.0000 Du        
  33860 ****        17.0000  17.5000  11.2500 Du        
  33861 ****        17.0000  17.5000  31.7500 Du        
  33862 ****        17.0000  17.5000  32.0000 Du        
  33863 ****        17.0000  17.5000  32.2500 Du        
  33864 ****        17.0000  17.5000  32.5000 Du        
  33865 ****        17.0000  17.5000  32.7500 Du        
  33866 ****        17.0000  17.5000  33.0000 Du        
  33867 ****        17.0000  17.5000  33.2500 Du        
  33868 ****        17.0000  17.7500  11.0000 Du        
  33869 ****        17.0000  17.7500  32.0000 Du        
  33870 ****        17.0000  17.7500  32.2500 Du        
  33871 ****        17.0000  17.7500  32.5000 Du        
  33872 ****        17.0000  17.7500  32.7500 Du        
  33873 ****        17.0000  17.7500  33.0000 Du        
  33874 ****        17.0000  17.7500  33.2500 Du        
  33875 ****        17.0000  17.7500  33.5000 Du        
  33876 ****        17.0000  18.0000  32.5000 Du        
  33877 ****        17.0000  18.0000  32.7500 Du        
  33878 ****        17.0000  18.0000  33.0000 Du        
  33879 ****        17.0000  18.0000  33.2500 Du        
  33880 ****        17.0000  18.0000  33.5000 Du        
  33881 ****        17.0000  18.0000  33.7500 Du        
  33882 ****        17.0000  18.2500  33.0000 Du        
  33883 ****        17.0000  18.2500  33.2500 Du        
  33884 ****        17.0000  18.2500  33.5000 Du        
  33885 ****        17.0000  18.2500  33.7500 Du        
  33886 ****        17.0000  18.2500  34.0000 Du        
  33887 ****        17.0000  18.5000  33.5000 Du        
  33888 ****        17.0000  18.5000  33.7500 Du        
  33889 ****        17.0000  18.5000  34.0000 Du        
  33890 ****        17.0000  18.5000  34.2500 Du        
  33891 ****        17.0000  18.7500  33.7500 Du        
  33892 ****        17.0000  18.7500  34.0000 Du        
  33893 ****        17.0000  18.7500  34.2500 Du        
  33894 ****        17.2500  -4.0000  26.7500 Du        
  33895 ****        17.2500  -3.7500  26.7500 Du        
  33896 ****        17.2500  -3.7500  27.0000 Du        
  33897 ****        17.2500  -3.5000  26.5000 Du        
  33898 ****        17.2500  -3.5000  26.7500 Du        
  33899 ****        17.2500  -3.5000  27.0000 Du        
  33900 ****        17.2500  -3.2500  26.5000 Du        
  33901 ****        17.2500  -3.2500  26.7500 Du        
  33902 ****        17.2500  -3.2500  27.0000 Du        
  33903 ****        17.2500  -3.2500  27.2500 Du        
  33904 ****        17.2500  -3.0000  26.5000 Du        
  33905 ****        17.2500  -3.0000  26.7500 Du        
  33906 ****        17.2500  -3.0000  27.0000 Du        
  33907 ****        17.2500   1.5000  21.0000 Du        
  33908 ****        17.2500   1.5000  21.2500 Du        
  33909 ****        17.2500   1.7500  20.7500 Du        
  33910 ****        17.2500   1.7500  21.0000 Du        
  33911 ****        17.2500   1.7500  21.2500 Du        
  33912 ****        17.2500   1.7500  21.5000 Du        
  33913 ****        17.2500   1.7500  21.7500 Du        
  33914 ****        17.2500   2.0000  21.0000 Du        
  33915 ****        17.2500   2.0000  21.2500 Du        
  33916 ****        17.2500   2.0000  21.5000 Du        
  33917 ****        17.2500   2.0000  21.7500 Du        
  33918 ****        17.2500   2.0000  22.0000 Du        
  33919 ****        17.2500   2.0000  29.2500 Du        
  33920 ****        17.2500   2.0000  29.5000 Du        
  33921 ****        17.2500   2.2500  21.0000 Du        
  33922 ****        17.2500   2.2500  21.2500 Du        
  33923 ****        17.2500   2.2500  21.5000 Du        
  33924 ****        17.2500   2.2500  21.7500 Du        
  33925 ****        17.2500   2.2500  22.0000 Du        
  33926 ****        17.2500   2.2500  22.2500 Du        
  33927 ****        17.2500   2.2500  29.0000 Du        
  33928 ****        17.2500   2.2500  29.2500 Du        
  33929 ****        17.2500   2.2500  29.5000 Du        
  33930 ****        17.2500   2.2500  29.7500 Du        
  33931 ****        17.2500   2.5000  21.0000 Du        
  33932 ****        17.2500   2.5000  21.2500 Du        
  33933 ****        17.2500   2.5000  21.5000 Du        
  33934 ****        17.2500   2.5000  21.7500 Du        
  33935 ****        17.2500   2.5000  22.0000 Du        
  33936 ****        17.2500   2.5000  22.2500 Du        
  33937 ****        17.2500   2.5000  22.5000 Du        
  33938 ****        17.2500   2.5000  29.0000 Du        
  33939 ****        17.2500   2.5000  29.2500 Du        
  33940 ****        17.2500   2.5000  29.5000 Du        
  33941 ****        17.2500   2.5000  29.7500 Du        
  33942 ****        17.2500   2.5000  30.0000 Du        
  33943 ****        17.2500   2.7500  21.2500 Du        
  33944 ****        17.2500   2.7500  21.5000 Du        
  33945 ****        17.2500   2.7500  21.7500 Du        
  33946 ****        17.2500   2.7500  22.0000 Du        
  33947 ****        17.2500   2.7500  22.2500 Du        
  33948 ****        17.2500   2.7500  29.0000 Du        
  33949 ****        17.2500   2.7500  29.2500 Du        
  33950 ****        17.2500   2.7500  29.5000 Du        
  33951 ****        17.2500   2.7500  29.7500 Du        
  33952 ****        17.2500   2.7500  30.0000 Du        
  33953 ****        17.2500   3.0000  29.0000 Du        
  33954 ****        17.2500   3.0000  29.2500 Du        
  33955 ****        17.2500   3.0000  29.5000 Du        
  33956 ****        17.2500   3.0000  29.7500 Du        
  33957 ****        17.2500   3.0000  30.0000 Du        
  33958 ****        17.2500   3.0000  30.2500 Du        
  33959 ****        17.2500   3.2500  29.0000 Du        
  33960 ****        17.2500   3.2500  29.2500 Du        
  33961 ****        17.2500   3.2500  29.5000 Du        
  33962 ****        17.2500   3.2500  29.7500 Du        
  33963 ****        17.2500   3.2500  30.0000 Du        
  33964 ****        17.2500   3.2500  30.2500 Du        
  33965 ****        17.2500   3.5000  29.5000 Du        
  33966 ****        17.2500   3.5000  29.7500 Du        
  33967 ****        17.2500   3.5000  30.0000 Du        
  33968 ****        17.2500   3.5000  30.2500 Du        
  33969 ****        17.2500   3.7500  29.7500 Du        
  33970 ****        17.2500   3.7500  30.0000 Du        
  33971 ****        17.2500   3.7500  30.2500 Du        
  33972 ****        17.2500   4.0000  30.0000 Du        
  33973 ****        17.2500   4.0000  30.2500 Du        
  33974 ****        17.2500   4.0000  30.5000 Du        
  33975 ****        17.2500   4.0000  30.7500 Du        
  33976 ****        17.2500   4.2500   4.0000 Du        
  33977 ****        17.2500   4.2500  30.5000 Du        
  33978 ****        17.2500   4.2500  30.7500 Du        
  33979 ****        17.2500   4.5000   3.0000 Du        
  33980 ****        17.2500   4.5000   3.2500 Du        
  33981 ****        17.2500   4.5000   3.5000 Du        
  33982 ****        17.2500   4.5000   3.7500 Du        
  33983 ****        17.2500   4.5000   4.0000 Du        
  33984 ****        17.2500   4.7500   3.0000 Du        
  33985 ****        17.2500   4.7500   3.2500 Du        
  33986 ****        17.2500   4.7500   3.5000 Du        
  33987 ****        17.2500   4.7500   3.7500 Du        
  33988 ****        17.2500   4.7500   4.0000 Du        
  33989 ****        17.2500   5.0000   3.0000 Du        
  33990 ****        17.2500   5.0000   3.2500 Du        
  33991 ****        17.2500   5.0000   3.5000 Du        
  33992 ****        17.2500   5.0000   3.7500 Du        
  33993 ****        17.2500   5.0000   4.0000 Du        
  33994 ****        17.2500   5.2500   3.0000 Du        
  33995 ****        17.2500   5.2500   3.2500 Du        
  33996 ****        17.2500   5.2500   3.5000 Du        
  33997 ****        17.2500   5.2500   3.7500 Du        
  33998 ****        17.2500   5.2500   4.0000 Du        
  33999 ****        17.2500   5.5000   3.0000 Du        
  34000 ****        17.2500   5.5000   3.2500 Du        
  34001 ****        17.2500   5.5000   3.5000 Du        
  34002 ****        17.2500   5.5000   3.7500 Du        
  34003 ****        17.2500   5.5000   4.0000 Du        
  34004 ****        17.2500   5.7500   3.0000 Du        
  34005 ****        17.2500   5.7500   3.2500 Du        
  34006 ****        17.2500   5.7500   3.5000 Du        
  34007 ****        17.2500   5.7500   3.7500 Du        
  34008 ****        17.2500   5.7500   4.0000 Du        
  34009 ****        17.2500   6.0000   3.2500 Du        
  34010 ****        17.2500   6.0000   3.5000 Du        
  34011 ****        17.2500   6.0000   3.7500 Du        
  34012 ****        17.2500   6.0000   4.0000 Du        
  34013 ****        17.2500   6.2500   3.2500 Du        
  34014 ****        17.2500   6.2500   3.5000 Du        
  34015 ****        17.2500   6.2500   3.7500 Du        
  34016 ****        17.2500   6.2500   4.0000 Du        
  34017 ****        17.2500   6.5000   3.2500 Du        
  34018 ****        17.2500   6.5000   3.5000 Du        
  34019 ****        17.2500   6.5000   3.7500 Du        
  34020 ****        17.2500   6.5000   4.0000 Du        
  34021 ****        17.2500   6.7500   3.2500 Du        
  34022 ****        17.2500   6.7500   3.5000 Du        
  34023 ****        17.2500   6.7500   3.7500 Du        
  34024 ****        17.2500   6.7500   4.0000 Du        
  34025 ****        17.2500   6.7500  26.5000 Du        
  34026 ****        17.2500   6.7500  26.7500 Du        
  34027 ****        17.2500   7.0000   3.2500 Du        
  34028 ****        17.2500   7.0000   3.5000 Du        
  34029 ****        17.2500   7.0000   3.7500 Du        
  34030 ****        17.2500   7.0000   4.0000 Du        
  34031 ****        17.2500   7.0000  26.5000 Du        
  34032 ****        17.2500   7.0000  26.7500 Du        
  34033 ****        17.2500   7.0000  27.0000 Du        
  34034 ****        17.2500   7.2500   3.2500 Du        
  34035 ****        17.2500   7.2500   3.5000 Du        
  34036 ****        17.2500   7.2500   3.7500 Du        
  34037 ****        17.2500   7.2500   4.0000 Du        
  34038 ****        17.2500   7.2500   4.2500 Du        
  34039 ****        17.2500   7.2500  26.5000 Du        
  34040 ****        17.2500   7.2500  26.7500 Du        
  34041 ****        17.2500   7.5000   3.2500 Du        
  34042 ****        17.2500   7.5000   3.5000 Du        
  34043 ****        17.2500   7.5000   3.7500 Du        
  34044 ****        17.2500   7.5000   4.0000 Du        
  34045 ****        17.2500   7.5000   4.2500 Du        
  34046 ****        17.2500   7.7500   3.2500 Du        
  34047 ****        17.2500   7.7500   3.5000 Du        
  34048 ****        17.2500   7.7500   3.7500 Du        
  34049 ****        17.2500   7.7500   4.0000 Du        
  34050 ****        17.2500   7.7500   4.2500 Du        
  34051 ****        17.2500   8.0000   3.7500 Du        
  34052 ****        17.2500   8.0000   4.0000 Du        
  34053 ****        17.2500  10.2500  35.7500 Du        
  34054 ****        17.2500  10.2500  36.0000 Du        
  34055 ****        17.2500  10.2500  36.2500 Du        
  34056 ****        17.2500  10.5000  35.7500 Du        
  34057 ****        17.2500  10.5000  36.0000 Du        
  34058 ****        17.2500  10.5000  36.2500 Du        
  34059 ****        17.2500  10.5000  36.5000 Du        
  34060 ****        17.2500  10.7500  35.7500 Du        
  34061 ****        17.2500  10.7500  36.0000 Du        
  34062 ****        17.2500  10.7500  36.2500 Du        
  34063 ****        17.2500  10.7500  36.5000 Du        
  34064 ****        17.2500  10.7500  36.7500 Du        
  34065 ****        17.2500  11.0000  20.7500 Du        
  34066 ****        17.2500  11.0000  35.7500 Du        
  34067 ****        17.2500  11.0000  36.0000 Du        
  34068 ****        17.2500  11.0000  36.2500 Du        
  34069 ****        17.2500  11.0000  36.5000 Du        
  34070 ****        17.2500  11.0000  36.7500 Du        
  34071 ****        17.2500  11.0000  37.0000 Du        
  34072 ****        17.2500  11.2500  20.7500 Du        
  34073 ****        17.2500  11.2500  21.0000 Du        
  34074 ****        17.2500  11.2500  21.2500 Du        
  34075 ****        17.2500  11.2500  21.5000 Du        
  34076 ****        17.2500  11.2500  21.7500 Du        
  34077 ****        17.2500  11.2500  22.0000 Du        
  34078 ****        17.2500  11.2500  35.7500 Du        
  34079 ****        17.2500  11.2500  36.0000 Du        
  34080 ****        17.2500  11.2500  36.2500 Du        
  34081 ****        17.2500  11.2500  36.5000 Du        
  34082 ****        17.2500  11.2500  36.7500 Du        
  34083 ****        17.2500  11.2500  37.0000 Du        
  34084 ****        17.2500  11.2500  37.2500 Du        
  34085 ****        17.2500  11.5000  21.0000 Du        
  34086 ****        17.2500  11.5000  21.2500 Du        
  34087 ****        17.2500  11.5000  21.5000 Du        
  34088 ****        17.2500  11.5000  21.7500 Du        
  34089 ****        17.2500  11.5000  22.0000 Du        
  34090 ****        17.2500  11.5000  35.7500 Du        
  34091 ****        17.2500  11.5000  36.0000 Du        
  34092 ****        17.2500  11.5000  36.2500 Du        
  34093 ****        17.2500  11.5000  36.5000 Du        
  34094 ****        17.2500  11.5000  36.7500 Du        
  34095 ****        17.2500  11.5000  37.0000 Du        
  34096 ****        17.2500  11.5000  37.2500 Du        
  34097 ****        17.2500  11.5000  37.5000 Du        
  34098 ****        17.2500  11.7500  21.5000 Du        
  34099 ****        17.2500  11.7500  21.7500 Du        
  34100 ****        17.2500  11.7500  22.0000 Du        
  34101 ****        17.2500  11.7500  36.0000 Du        
  34102 ****        17.2500  11.7500  36.2500 Du        
  34103 ****        17.2500  11.7500  36.5000 Du        
  34104 ****        17.2500  11.7500  36.7500 Du        
  34105 ****        17.2500  11.7500  37.0000 Du        
  34106 ****        17.2500  11.7500  37.2500 Du        
  34107 ****        17.2500  11.7500  37.5000 Du        
  34108 ****        17.2500  11.7500  37.7500 Du        
  34109 ****        17.2500  12.0000  36.0000 Du        
  34110 ****        17.2500  12.0000  36.2500 Du        
  34111 ****        17.2500  12.0000  36.5000 Du        
  34112 ****        17.2500  12.0000  36.7500 Du        
  34113 ****        17.2500  12.0000  37.0000 Du        
  34114 ****        17.2500  12.0000  37.2500 Du        
  34115 ****        17.2500  12.0000  37.5000 Du        
  34116 ****        17.2500  12.0000  37.7500 Du        
  34117 ****        17.2500  12.2500  36.5000 Du        
  34118 ****        17.2500  12.2500  36.7500 Du        
  34119 ****        17.2500  12.2500  37.0000 Du        
  34120 ****        17.2500  12.2500  37.2500 Du        
  34121 ****        17.2500  12.2500  37.5000 Du        
  34122 ****        17.2500  12.2500  37.7500 Du        
  34123 ****        17.2500  12.2500  38.0000 Du        
  34124 ****        17.2500  12.5000  37.0000 Du        
  34125 ****        17.2500  12.5000  37.2500 Du        
  34126 ****        17.2500  12.5000  37.5000 Du        
  34127 ****        17.2500  12.5000  37.7500 Du        
  34128 ****        17.2500  12.5000  38.0000 Du        
  34129 ****        17.2500  12.7500  37.0000 Du        
  34130 ****        17.2500  12.7500  37.2500 Du        
  34131 ****        17.2500  12.7500  37.5000 Du        
  34132 ****        17.2500  12.7500  37.7500 Du        
  34133 ****        17.2500  12.7500  38.0000 Du        
  34134 ****        17.2500  13.0000  37.2500 Du        
  34135 ****        17.2500  13.0000  37.5000 Du        
  34136 ****        17.2500  13.0000  37.7500 Du        
  34137 ****        17.2500  13.0000  38.0000 Du        
  34138 ****        17.2500  13.0000  38.2500 Du        
  34139 ****        17.2500  13.2500  15.0000 Du        
  34140 ****        17.2500  13.2500  15.2500 Du        
  34141 ****        17.2500  13.2500  15.5000 Du        
  34142 ****        17.2500  13.2500  15.7500 Du        
  34143 ****        17.2500  13.2500  16.0000 Du        
  34144 ****        17.2500  13.2500  16.2500 Du        
  34145 ****        17.2500  13.2500  37.7500 Du        
  34146 ****        17.2500  13.2500  38.0000 Du        
  34147 ****        17.2500  13.2500  38.2500 Du        
  34148 ****        17.2500  13.5000  14.2500 Du        
  34149 ****        17.2500  13.5000  14.5000 Du        
  34150 ****        17.2500  13.5000  14.7500 Du        
  34151 ****        17.2500  13.5000  15.0000 Du        
  34152 ****        17.2500  13.5000  15.2500 Du        
  34153 ****        17.2500  13.5000  15.5000 Du        
  34154 ****        17.2500  13.5000  15.7500 Du        
  34155 ****        17.2500  13.5000  16.0000 Du        
  34156 ****        17.2500  13.5000  16.2500 Du        
  34157 ****        17.2500  13.5000  38.0000 Du        
  34158 ****        17.2500  13.5000  38.2500 Du        
  34159 ****        17.2500  13.5000  38.5000 Du        
  34160 ****        17.2500  13.7500  14.2500 Du        
  34161 ****        17.2500  13.7500  14.5000 Du        
  34162 ****        17.2500  13.7500  14.7500 Du        
  34163 ****        17.2500  13.7500  15.0000 Du        
  34164 ****        17.2500  13.7500  15.2500 Du        
  34165 ****        17.2500  13.7500  15.5000 Du        
  34166 ****        17.2500  13.7500  15.7500 Du        
  34167 ****        17.2500  13.7500  16.0000 Du        
  34168 ****        17.2500  13.7500  16.2500 Du        
  34169 ****        17.2500  13.7500  38.0000 Du        
  34170 ****        17.2500  13.7500  38.2500 Du        
  34171 ****        17.2500  13.7500  38.5000 Du        
  34172 ****        17.2500  13.7500  38.7500 Du        
  34173 ****        17.2500  14.0000  14.0000 Du        
  34174 ****        17.2500  14.0000  14.2500 Du        
  34175 ****        17.2500  14.0000  14.5000 Du        
  34176 ****        17.2500  14.0000  14.7500 Du        
  34177 ****        17.2500  14.0000  15.0000 Du        
  34178 ****        17.2500  14.0000  15.2500 Du        
  34179 ****        17.2500  14.0000  15.5000 Du        
  34180 ****        17.2500  14.0000  15.7500 Du        
  34181 ****        17.2500  14.0000  16.0000 Du        
  34182 ****        17.2500  14.0000  16.2500 Du        
  34183 ****        17.2500  14.0000  38.2500 Du        
  34184 ****        17.2500  14.0000  38.5000 Du        
  34185 ****        17.2500  14.0000  38.7500 Du        
  34186 ****        17.2500  14.2500  14.0000 Du        
  34187 ****        17.2500  14.2500  14.2500 Du        
  34188 ****        17.2500  14.2500  14.5000 Du        
  34189 ****        17.2500  14.2500  14.7500 Du        
  34190 ****        17.2500  14.2500  15.0000 Du        
  34191 ****        17.2500  14.2500  15.2500 Du        
  34192 ****        17.2500  14.2500  15.5000 Du        
  34193 ****        17.2500  14.2500  15.7500 Du        
  34194 ****        17.2500  14.2500  16.0000 Du        
  34195 ****        17.2500  14.2500  16.2500 Du        
  34196 ****        17.2500  14.2500  38.5000 Du        
  34197 ****        17.2500  14.2500  38.7500 Du        
  34198 ****        17.2500  14.2500  39.0000 Du        
  34199 ****        17.2500  14.5000  14.2500 Du        
  34200 ****        17.2500  14.5000  14.5000 Du        
  34201 ****        17.2500  14.5000  14.7500 Du        
  34202 ****        17.2500  14.5000  15.0000 Du        
  34203 ****        17.2500  14.5000  15.2500 Du        
  34204 ****        17.2500  14.5000  15.5000 Du        
  34205 ****        17.2500  14.5000  15.7500 Du        
  34206 ****        17.2500  14.5000  16.0000 Du        
  34207 ****        17.2500  14.5000  38.7500 Du        
  34208 ****        17.2500  14.5000  39.0000 Du        
  34209 ****        17.2500  14.7500  14.0000 Du        
  34210 ****        17.2500  14.7500  14.2500 Du        
  34211 ****        17.2500  14.7500  14.5000 Du        
  34212 ****        17.2500  14.7500  14.7500 Du        
  34213 ****        17.2500  14.7500  15.0000 Du        
  34214 ****        17.2500  14.7500  15.2500 Du        
  34215 ****        17.2500  14.7500  15.5000 Du        
  34216 ****        17.2500  14.7500  15.7500 Du        
  34217 ****        17.2500  14.7500  32.2500 Du        
  34218 ****        17.2500  14.7500  38.7500 Du        
  34219 ****        17.2500  14.7500  39.0000 Du        
  34220 ****        17.2500  14.7500  39.2500 Du        
  34221 ****        17.2500  15.0000  14.0000 Du        
  34222 ****        17.2500  15.0000  14.2500 Du        
  34223 ****        17.2500  15.0000  14.5000 Du        
  34224 ****        17.2500  15.0000  14.7500 Du        
  34225 ****        17.2500  15.0000  15.0000 Du        
  34226 ****        17.2500  15.0000  15.2500 Du        
  34227 ****        17.2500  15.0000  15.5000 Du        
  34228 ****        17.2500  15.0000  32.0000 Du        
  34229 ****        17.2500  15.0000  32.2500 Du        
  34230 ****        17.2500  15.0000  32.5000 Du        
  34231 ****        17.2500  15.0000  39.0000 Du        
  34232 ****        17.2500  15.0000  39.2500 Du        
  34233 ****        17.2500  15.2500  14.0000 Du        
  34234 ****        17.2500  15.2500  14.2500 Du        
  34235 ****        17.2500  15.2500  14.5000 Du        
  34236 ****        17.2500  15.2500  14.7500 Du        
  34237 ****        17.2500  15.2500  15.0000 Du        
  34238 ****        17.2500  15.2500  15.2500 Du        
  34239 ****        17.2500  15.2500  32.0000 Du        
  34240 ****        17.2500  15.2500  32.2500 Du        
  34241 ****        17.2500  15.2500  32.5000 Du        
  34242 ****        17.2500  15.2500  32.7500 Du        
  34243 ****        17.2500  15.2500  39.2500 Du        
  34244 ****        17.2500  15.5000  14.0000 Du        
  34245 ****        17.2500  15.5000  14.2500 Du        
  34246 ****        17.2500  15.5000  14.5000 Du        
  34247 ****        17.2500  15.5000  14.7500 Du        
  34248 ****        17.2500  15.5000  15.0000 Du        
  34249 ****        17.2500  15.5000  32.0000 Du        
  34250 ****        17.2500  15.5000  32.2500 Du        
  34251 ****        17.2500  15.5000  32.5000 Du        
  34252 ****        17.2500  15.5000  32.7500 Du        
  34253 ****        17.2500  15.7500  13.7500 Du        
  34254 ****        17.2500  15.7500  14.0000 Du        
  34255 ****        17.2500  15.7500  14.2500 Du        
  34256 ****        17.2500  15.7500  14.5000 Du        
  34257 ****        17.2500  15.7500  14.7500 Du        
  34258 ****        17.2500  15.7500  31.7500 Du        
  34259 ****        17.2500  15.7500  32.0000 Du        
  34260 ****        17.2500  15.7500  32.2500 Du        
  34261 ****        17.2500  15.7500  32.5000 Du        
  34262 ****        17.2500  15.7500  32.7500 Du        
  34263 ****        17.2500  15.7500  33.0000 Du        
  34264 ****        17.2500  16.0000  13.7500 Du        
  34265 ****        17.2500  16.0000  14.0000 Du        
  34266 ****        17.2500  16.0000  14.2500 Du        
  34267 ****        17.2500  16.0000  14.5000 Du        
  34268 ****        17.2500  16.0000  31.7500 Du        
  34269 ****        17.2500  16.0000  32.0000 Du        
  34270 ****        17.2500  16.0000  32.2500 Du        
  34271 ****        17.2500  16.0000  32.5000 Du        
  34272 ****        17.2500  16.0000  32.7500 Du        
  34273 ****        17.2500  16.0000  33.0000 Du        
  34274 ****        17.2500  16.0000  40.5000 Du        
  34275 ****        17.2500  16.2500  13.5000 Du        
  34276 ****        17.2500  16.2500  13.7500 Du        
  34277 ****        17.2500  16.2500  14.0000 Du        
  34278 ****        17.2500  16.2500  14.2500 Du        
  34279 ****        17.2500  16.2500  31.7500 Du        
  34280 ****        17.2500  16.2500  32.0000 Du        
  34281 ****        17.2500  16.2500  32.2500 Du        
  34282 ****        17.2500  16.2500  32.5000 Du        
  34283 ****        17.2500  16.2500  32.7500 Du        
  34284 ****        17.2500  16.2500  33.0000 Du        
  34285 ****        17.2500  16.5000  13.2500 Du        
  34286 ****        17.2500  16.5000  13.5000 Du        
  34287 ****        17.2500  16.5000  13.7500 Du        
  34288 ****        17.2500  16.5000  14.0000 Du        
  34289 ****        17.2500  16.5000  31.7500 Du        
  34290 ****        17.2500  16.5000  32.0000 Du        
  34291 ****        17.2500  16.5000  32.2500 Du        
  34292 ****        17.2500  16.5000  32.5000 Du        
  34293 ****        17.2500  16.5000  32.7500 Du        
  34294 ****        17.2500  16.5000  33.0000 Du        
  34295 ****        17.2500  16.5000  33.2500 Du        
  34296 ****        17.2500  16.7500  13.2500 Du        
  34297 ****        17.2500  16.7500  31.7500 Du        
  34298 ****        17.2500  16.7500  32.0000 Du        
  34299 ****        17.2500  16.7500  32.2500 Du        
  34300 ****        17.2500  16.7500  32.5000 Du        
  34301 ****        17.2500  16.7500  32.7500 Du        
  34302 ****        17.2500  16.7500  33.0000 Du        
  34303 ****        17.2500  16.7500  33.2500 Du        
  34304 ****        17.2500  17.0000  31.7500 Du        
  34305 ****        17.2500  17.0000  32.0000 Du        
  34306 ****        17.2500  17.0000  32.2500 Du        
  34307 ****        17.2500  17.0000  32.5000 Du        
  34308 ****        17.2500  17.0000  32.7500 Du        
  34309 ****        17.2500  17.0000  33.0000 Du        
  34310 ****        17.2500  17.0000  33.2500 Du        
  34311 ****        17.2500  17.2500  11.0000 Du        
  34312 ****        17.2500  17.2500  11.2500 Du        
  34313 ****        17.2500  17.2500  11.5000 Du        
  34314 ****        17.2500  17.2500  11.7500 Du        
  34315 ****        17.2500  17.2500  31.7500 Du        
  34316 ****        17.2500  17.2500  32.0000 Du        
  34317 ****        17.2500  17.2500  32.2500 Du        
  34318 ****        17.2500  17.2500  32.5000 Du        
  34319 ****        17.2500  17.2500  32.7500 Du        
  34320 ****        17.2500  17.2500  33.0000 Du        
  34321 ****        17.2500  17.2500  33.2500 Du        
  34322 ****        17.2500  17.2500  33.5000 Du        
  34323 ****        17.2500  17.5000  11.0000 Du        
  34324 ****        17.2500  17.5000  11.2500 Du        
  34325 ****        17.2500  17.5000  11.5000 Du        
  34326 ****        17.2500  17.5000  32.0000 Du        
  34327 ****        17.2500  17.5000  32.2500 Du        
  34328 ****        17.2500  17.5000  32.5000 Du        
  34329 ****        17.2500  17.5000  32.7500 Du        
  34330 ****        17.2500  17.5000  33.0000 Du        
  34331 ****        17.2500  17.5000  33.2500 Du        
  34332 ****        17.2500  17.7500  32.5000 Du        
  34333 ****        17.2500  17.7500  32.7500 Du        
  34334 ****        17.2500  17.7500  33.0000 Du        
  34335 ****        17.2500  17.7500  33.2500 Du        
  34336 ****        17.2500  18.0000  32.7500 Du        
  34337 ****        17.2500  18.0000  33.0000 Du        
  34338 ****        17.2500  18.0000  33.2500 Du        
  34339 ****        17.2500  18.0000  33.5000 Du        
  34340 ****        17.2500  18.0000  33.7500 Du        
  34341 ****        17.5000   1.5000  21.0000 Du        
  34342 ****        17.5000   1.5000  21.2500 Du        
  34343 ****        17.5000   1.5000  21.5000 Du        
  34344 ****        17.5000   1.5000  21.7500 Du        
  34345 ****        17.5000   1.7500  21.0000 Du        
  34346 ****        17.5000   1.7500  21.2500 Du        
  34347 ****        17.5000   1.7500  21.5000 Du        
  34348 ****        17.5000   1.7500  21.7500 Du        
  34349 ****        17.5000   1.7500  22.0000 Du        
  34350 ****        17.5000   2.0000  21.0000 Du        
  34351 ****        17.5000   2.0000  21.2500 Du        
  34352 ****        17.5000   2.0000  21.5000 Du        
  34353 ****        17.5000   2.0000  21.7500 Du        
  34354 ****        17.5000   2.0000  22.0000 Du        
  34355 ****        17.5000   2.0000  22.2500 Du        
  34356 ****        17.5000   2.0000  22.5000 Du        
  34357 ****        17.5000   2.0000  29.2500 Du        
  34358 ****        17.5000   2.0000  29.5000 Du        
  34359 ****        17.5000   2.2500  21.2500 Du        
  34360 ****        17.5000   2.2500  21.5000 Du        
  34361 ****        17.5000   2.2500  21.7500 Du        
  34362 ****        17.5000   2.2500  22.0000 Du        
  34363 ****        17.5000   2.2500  22.2500 Du        
  34364 ****        17.5000   2.2500  22.5000 Du        
  34365 ****        17.5000   2.2500  22.7500 Du        
  34366 ****        17.5000   2.2500  29.0000 Du        
  34367 ****        17.5000   2.2500  29.2500 Du        
  34368 ****        17.5000   2.2500  29.5000 Du        
  34369 ****        17.5000   2.2500  29.7500 Du        
  34370 ****        17.5000   2.5000  21.2500 Du        
  34371 ****        17.5000   2.5000  21.5000 Du        
  34372 ****        17.5000   2.5000  21.7500 Du        
  34373 ****        17.5000   2.5000  22.0000 Du        
  34374 ****        17.5000   2.5000  22.2500 Du        
  34375 ****        17.5000   2.5000  22.5000 Du        
  34376 ****        17.5000   2.5000  22.7500 Du        
  34377 ****        17.5000   2.5000  23.0000 Du        
  34378 ****        17.5000   2.5000  29.0000 Du        
  34379 ****        17.5000   2.5000  29.2500 Du        
  34380 ****        17.5000   2.5000  29.5000 Du        
  34381 ****        17.5000   2.5000  29.7500 Du        
  34382 ****        17.5000   2.7500  21.5000 Du        
  34383 ****        17.5000   2.7500  21.7500 Du        
  34384 ****        17.5000   2.7500  22.0000 Du        
  34385 ****        17.5000   2.7500  22.2500 Du        
  34386 ****        17.5000   2.7500  22.5000 Du        
  34387 ****        17.5000   2.7500  22.7500 Du        
  34388 ****        17.5000   2.7500  23.0000 Du        
  34389 ****        17.5000   2.7500  29.0000 Du        
  34390 ****        17.5000   2.7500  29.2500 Du        
  34391 ****        17.5000   2.7500  29.5000 Du        
  34392 ****        17.5000   2.7500  29.7500 Du        
  34393 ****        17.5000   2.7500  30.0000 Du        
  34394 ****        17.5000   3.0000  22.2500 Du        
  34395 ****        17.5000   3.0000  22.5000 Du        
  34396 ****        17.5000   3.0000  22.7500 Du        
  34397 ****        17.5000   3.0000  29.0000 Du        
  34398 ****        17.5000   3.0000  29.2500 Du        
  34399 ****        17.5000   3.0000  29.5000 Du        
  34400 ****        17.5000   3.0000  29.7500 Du        
  34401 ****        17.5000   3.0000  30.0000 Du        
  34402 ****        17.5000   3.0000  30.2500 Du        
  34403 ****        17.5000   3.2500  29.0000 Du        
  34404 ****        17.5000   3.2500  29.2500 Du        
  34405 ****        17.5000   3.2500  29.5000 Du        
  34406 ****        17.5000   3.2500  29.7500 Du        
  34407 ****        17.5000   3.2500  30.0000 Du        
  34408 ****        17.5000   3.2500  30.2500 Du        
  34409 ****        17.5000   3.5000  29.2500 Du        
  34410 ****        17.5000   3.5000  29.5000 Du        
  34411 ****        17.5000   3.5000  29.7500 Du        
  34412 ****        17.5000   3.5000  30.0000 Du        
  34413 ****        17.5000   3.5000  30.2500 Du        
  34414 ****        17.5000   3.7500  29.5000 Du        
  34415 ****        17.5000   3.7500  29.7500 Du        
  34416 ****        17.5000   3.7500  30.0000 Du        
  34417 ****        17.5000   3.7500  30.2500 Du        
  34418 ****        17.5000   4.0000  30.0000 Du        
  34419 ****        17.5000   4.0000  30.2500 Du        
  34420 ****        17.5000   4.0000  30.5000 Du        
  34421 ****        17.5000   4.0000  30.7500 Du        
  34422 ****        17.5000   4.2500  30.5000 Du        
  34423 ****        17.5000   4.2500  30.7500 Du        
  34424 ****        17.5000   4.5000   3.7500 Du        
  34425 ****        17.5000   4.5000   4.0000 Du        
  34426 ****        17.5000   4.7500   3.5000 Du        
  34427 ****        17.5000   4.7500   3.7500 Du        
  34428 ****        17.5000   5.0000   3.2500 Du        
  34429 ****        17.5000   5.0000   3.5000 Du        
  34430 ****        17.5000   5.0000   3.7500 Du        
  34431 ****        17.5000   5.2500   3.0000 Du        
  34432 ****        17.5000   5.2500   3.2500 Du        
  34433 ****        17.5000   5.2500   3.5000 Du        
  34434 ****        17.5000   5.2500   3.7500 Du        
  34435 ****        17.5000   5.5000   3.0000 Du        
  34436 ****        17.5000   5.5000   3.2500 Du        
  34437 ****        17.5000   5.5000   3.5000 Du        
  34438 ****        17.5000   5.5000   3.7500 Du        
  34439 ****        17.5000   5.7500   3.0000 Du        
  34440 ****        17.5000   5.7500   3.2500 Du        
  34441 ****        17.5000   5.7500   3.5000 Du        
  34442 ****        17.5000   5.7500   3.7500 Du        
  34443 ****        17.5000   5.7500  26.2500 Du        
  34444 ****        17.5000   6.0000   3.0000 Du        
  34445 ****        17.5000   6.0000   3.2500 Du        
  34446 ****        17.5000   6.0000   3.5000 Du        
  34447 ****        17.5000   6.0000   3.7500 Du        
  34448 ****        17.5000   6.0000  26.2500 Du        
  34449 ****        17.5000   6.0000  26.5000 Du        
  34450 ****        17.5000   6.2500   3.0000 Du        
  34451 ****        17.5000   6.2500   3.2500 Du        
  34452 ****        17.5000   6.2500   3.5000 Du        
  34453 ****        17.5000   6.2500   3.7500 Du        
  34454 ****        17.5000   6.2500  26.2500 Du        
  34455 ****        17.5000   6.2500  26.5000 Du        
  34456 ****        17.5000   6.2500  26.7500 Du        
  34457 ****        17.5000   6.5000   3.0000 Du        
  34458 ****        17.5000   6.5000   3.2500 Du        
  34459 ****        17.5000   6.5000   3.5000 Du        
  34460 ****        17.5000   6.5000   3.7500 Du        
  34461 ****        17.5000   6.5000  26.5000 Du        
  34462 ****        17.5000   6.5000  26.7500 Du        
  34463 ****        17.5000   6.7500   3.0000 Du        
  34464 ****        17.5000   6.7500   3.2500 Du        
  34465 ****        17.5000   6.7500   3.5000 Du        
  34466 ****        17.5000   6.7500   3.7500 Du        
  34467 ****        17.5000   6.7500   4.0000 Du        
  34468 ****        17.5000   6.7500  26.5000 Du        
  34469 ****        17.5000   6.7500  26.7500 Du        
  34470 ****        17.5000   6.7500  27.0000 Du        
  34471 ****        17.5000   7.0000   3.0000 Du        
  34472 ****        17.5000   7.0000   3.2500 Du        
  34473 ****        17.5000   7.0000   3.5000 Du        
  34474 ****        17.5000   7.0000   3.7500 Du        
  34475 ****        17.5000   7.0000   4.0000 Du        
  34476 ****        17.5000   7.0000  26.5000 Du        
  34477 ****        17.5000   7.0000  26.7500 Du        
  34478 ****        17.5000   7.2500   3.0000 Du        
  34479 ****        17.5000   7.2500   3.2500 Du        
  34480 ****        17.5000   7.2500   3.5000 Du        
  34481 ****        17.5000   7.2500   3.7500 Du        
  34482 ****        17.5000   7.2500   4.0000 Du        
  34483 ****        17.5000   7.5000   3.0000 Du        
  34484 ****        17.5000   7.5000   3.2500 Du        
  34485 ****        17.5000   7.5000   3.5000 Du        
  34486 ****        17.5000   7.5000   3.7500 Du        
  34487 ****        17.5000   7.5000   4.0000 Du        
  34488 ****        17.5000   7.7500   3.2500 Du        
  34489 ****        17.5000   7.7500   3.5000 Du        
  34490 ****        17.5000   7.7500   3.7500 Du        
  34491 ****        17.5000   7.7500   4.0000 Du        
  34492 ****        17.5000  10.2500  35.7500 Du        
  34493 ****        17.5000  10.2500  36.0000 Du        
  34494 ****        17.5000  10.5000  35.7500 Du        
  34495 ****        17.5000  10.5000  36.0000 Du        
  34496 ****        17.5000  10.5000  36.2500 Du        
  34497 ****        17.5000  10.7500  35.7500 Du        
  34498 ****        17.5000  10.7500  36.0000 Du        
  34499 ****        17.5000  10.7500  36.2500 Du        
  34500 ****        17.5000  10.7500  36.5000 Du        
  34501 ****        17.5000  11.0000  35.7500 Du        
  34502 ****        17.5000  11.0000  36.0000 Du        
  34503 ****        17.5000  11.0000  36.2500 Du        
  34504 ****        17.5000  11.0000  36.5000 Du        
  34505 ****        17.5000  11.0000  36.7500 Du        
  34506 ****        17.5000  11.2500  35.7500 Du        
  34507 ****        17.5000  11.2500  36.0000 Du        
  34508 ****        17.5000  11.2500  36.2500 Du        
  34509 ****        17.5000  11.2500  36.5000 Du        
  34510 ****        17.5000  11.2500  36.7500 Du        
  34511 ****        17.5000  11.2500  37.0000 Du        
  34512 ****        17.5000  11.5000  36.0000 Du        
  34513 ****        17.5000  11.5000  36.2500 Du        
  34514 ****        17.5000  11.5000  36.7500 Du        
  34515 ****        17.5000  11.5000  37.0000 Du        
  34516 ****        17.5000  11.5000  37.2500 Du        
  34517 ****        17.5000  11.7500  36.2500 Du        
  34518 ****        17.5000  11.7500  36.7500 Du        
  34519 ****        17.5000  11.7500  37.0000 Du        
  34520 ****        17.5000  11.7500  37.2500 Du        
  34521 ****        17.5000  11.7500  37.5000 Du        
  34522 ****        17.5000  12.0000  37.0000 Du        
  34523 ****        17.5000  12.0000  37.2500 Du        
  34524 ****        17.5000  12.0000  37.5000 Du        
  34525 ****        17.5000  12.0000  37.7500 Du        
  34526 ****        17.5000  12.2500  37.2500 Du        
  34527 ****        17.5000  12.2500  37.5000 Du        
  34528 ****        17.5000  12.2500  37.7500 Du        
  34529 ****        17.5000  13.0000  38.0000 Du        
  34530 ****        17.5000  13.2500  15.0000 Du        
  34531 ****        17.5000  13.2500  15.2500 Du        
  34532 ****        17.5000  13.2500  15.5000 Du        
  34533 ****        17.5000  13.2500  15.7500 Du        
  34534 ****        17.5000  13.2500  16.0000 Du        
  34535 ****        17.5000  13.2500  16.2500 Du        
  34536 ****        17.5000  13.2500  16.5000 Du        
  34537 ****        17.5000  13.2500  38.2500 Du        
  34538 ****        17.5000  13.5000  14.2500 Du        
  34539 ****        17.5000  13.5000  14.5000 Du        
  34540 ****        17.5000  13.5000  14.7500 Du        
  34541 ****        17.5000  13.5000  15.0000 Du        
  34542 ****        17.5000  13.5000  15.2500 Du        
  34543 ****        17.5000  13.5000  15.5000 Du        
  34544 ****        17.5000  13.5000  15.7500 Du        
  34545 ****        17.5000  13.5000  16.0000 Du        
  34546 ****        17.5000  13.5000  16.2500 Du        
  34547 ****        17.5000  13.5000  16.5000 Du        
  34548 ****        17.5000  13.5000  38.0000 Du        
  34549 ****        17.5000  13.5000  38.2500 Du        
  34550 ****        17.5000  13.5000  38.5000 Du        
  34551 ****        17.5000  13.7500  14.2500 Du        
  34552 ****        17.5000  13.7500  14.5000 Du        
  34553 ****        17.5000  13.7500  14.7500 Du        
  34554 ****        17.5000  13.7500  15.0000 Du        
  34555 ****        17.5000  13.7500  15.2500 Du        
  34556 ****        17.5000  13.7500  15.5000 Du        
  34557 ****        17.5000  13.7500  15.7500 Du        
  34558 ****        17.5000  13.7500  16.0000 Du        
  34559 ****        17.5000  13.7500  16.2500 Du        
  34560 ****        17.5000  13.7500  16.5000 Du        
  34561 ****        17.5000  13.7500  38.2500 Du        
  34562 ****        17.5000  13.7500  38.5000 Du        
  34563 ****        17.5000  14.0000  14.2500 Du        
  34564 ****        17.5000  14.0000  14.5000 Du        
  34565 ****        17.5000  14.0000  14.7500 Du        
  34566 ****        17.5000  14.0000  15.0000 Du        
  34567 ****        17.5000  14.0000  15.2500 Du        
  34568 ****        17.5000  14.0000  15.5000 Du        
  34569 ****        17.5000  14.0000  15.7500 Du        
  34570 ****        17.5000  14.0000  16.0000 Du        
  34571 ****        17.5000  14.0000  16.2500 Du        
  34572 ****        17.5000  14.0000  38.2500 Du        
  34573 ****        17.5000  14.0000  38.5000 Du        
  34574 ****        17.5000  14.0000  38.7500 Du        
  34575 ****        17.5000  14.2500  14.2500 Du        
  34576 ****        17.5000  14.2500  14.5000 Du        
  34577 ****        17.5000  14.2500  14.7500 Du        
  34578 ****        17.5000  14.2500  15.0000 Du        
  34579 ****        17.5000  14.2500  15.2500 Du        
  34580 ****        17.5000  14.2500  15.5000 Du        
  34581 ****        17.5000  14.2500  15.7500 Du        
  34582 ****        17.5000  14.2500  16.0000 Du        
  34583 ****        17.5000  14.2500  16.2500 Du        
  34584 ****        17.5000  14.2500  38.7500 Du        
  34585 ****        17.5000  14.5000  14.2500 Du        
  34586 ****        17.5000  14.5000  14.5000 Du        
  34587 ****        17.5000  14.5000  14.7500 Du        
  34588 ****        17.5000  14.5000  15.0000 Du        
  34589 ****        17.5000  14.5000  15.2500 Du        
  34590 ****        17.5000  14.5000  15.5000 Du        
  34591 ****        17.5000  14.5000  15.7500 Du        
  34592 ****        17.5000  14.5000  16.0000 Du        
  34593 ****        17.5000  14.7500  14.2500 Du        
  34594 ****        17.5000  14.7500  14.5000 Du        
  34595 ****        17.5000  14.7500  14.7500 Du        
  34596 ****        17.5000  14.7500  15.0000 Du        
  34597 ****        17.5000  14.7500  15.2500 Du        
  34598 ****        17.5000  14.7500  15.5000 Du        
  34599 ****        17.5000  14.7500  15.7500 Du        
  34600 ****        17.5000  14.7500  32.2500 Du        
  34601 ****        17.5000  14.7500  32.5000 Du        
  34602 ****        17.5000  14.7500  32.7500 Du        
  34603 ****        17.5000  15.0000  14.0000 Du        
  34604 ****        17.5000  15.0000  14.2500 Du        
  34605 ****        17.5000  15.0000  14.5000 Du        
  34606 ****        17.5000  15.0000  14.7500 Du        
  34607 ****        17.5000  15.0000  15.0000 Du        
  34608 ****        17.5000  15.0000  15.2500 Du        
  34609 ****        17.5000  15.0000  15.5000 Du        
  34610 ****        17.5000  15.0000  32.0000 Du        
  34611 ****        17.5000  15.0000  32.2500 Du        
  34612 ****        17.5000  15.0000  32.5000 Du        
  34613 ****        17.5000  15.0000  32.7500 Du        
  34614 ****        17.5000  15.2500  14.0000 Du        
  34615 ****        17.5000  15.2500  14.2500 Du        
  34616 ****        17.5000  15.2500  14.5000 Du        
  34617 ****        17.5000  15.2500  14.7500 Du        
  34618 ****        17.5000  15.2500  15.0000 Du        
  34619 ****        17.5000  15.2500  15.2500 Du        
  34620 ****        17.5000  15.2500  32.0000 Du        
  34621 ****        17.5000  15.2500  32.2500 Du        
  34622 ****        17.5000  15.2500  32.5000 Du        
  34623 ****        17.5000  15.2500  32.7500 Du        
  34624 ****        17.5000  15.2500  33.0000 Du        
  34625 ****        17.5000  15.5000  14.0000 Du        
  34626 ****        17.5000  15.5000  14.2500 Du        
  34627 ****        17.5000  15.5000  14.5000 Du        
  34628 ****        17.5000  15.5000  14.7500 Du        
  34629 ****        17.5000  15.5000  15.0000 Du        
  34630 ****        17.5000  15.5000  32.0000 Du        
  34631 ****        17.5000  15.5000  32.2500 Du        
  34632 ****        17.5000  15.5000  32.5000 Du        
  34633 ****        17.5000  15.5000  32.7500 Du        
  34634 ****        17.5000  15.5000  33.0000 Du        
  34635 ****        17.5000  15.7500  14.0000 Du        
  34636 ****        17.5000  15.7500  14.2500 Du        
  34637 ****        17.5000  15.7500  14.5000 Du        
  34638 ****        17.5000  15.7500  14.7500 Du        
  34639 ****        17.5000  15.7500  32.0000 Du        
  34640 ****        17.5000  15.7500  32.2500 Du        
  34641 ****        17.5000  15.7500  32.5000 Du        
  34642 ****        17.5000  15.7500  32.7500 Du        
  34643 ****        17.5000  15.7500  33.0000 Du        
  34644 ****        17.5000  15.7500  33.2500 Du        
  34645 ****        17.5000  16.0000  13.7500 Du        
  34646 ****        17.5000  16.0000  14.0000 Du        
  34647 ****        17.5000  16.0000  14.2500 Du        
  34648 ****        17.5000  16.0000  32.0000 Du        
  34649 ****        17.5000  16.0000  32.2500 Du        
  34650 ****        17.5000  16.0000  32.5000 Du        
  34651 ****        17.5000  16.0000  32.7500 Du        
  34652 ****        17.5000  16.0000  33.0000 Du        
  34653 ****        17.5000  16.0000  33.2500 Du        
  34654 ****        17.5000  16.2500  13.7500 Du        
  34655 ****        17.5000  16.2500  14.0000 Du        
  34656 ****        17.5000  16.2500  31.7500 Du        
  34657 ****        17.5000  16.2500  32.0000 Du        
  34658 ****        17.5000  16.2500  32.2500 Du        
  34659 ****        17.5000  16.2500  32.5000 Du        
  34660 ****        17.5000  16.2500  32.7500 Du        
  34661 ****        17.5000  16.2500  33.0000 Du        
  34662 ****        17.5000  16.2500  33.2500 Du        
  34663 ****        17.5000  16.5000  13.5000 Du        
  34664 ****        17.5000  16.5000  13.7500 Du        
  34665 ****        17.5000  16.5000  31.7500 Du        
  34666 ****        17.5000  16.5000  32.0000 Du        
  34667 ****        17.5000  16.5000  32.2500 Du        
  34668 ****        17.5000  16.5000  32.5000 Du        
  34669 ****        17.5000  16.5000  32.7500 Du        
  34670 ****        17.5000  16.5000  33.0000 Du        
  34671 ****        17.5000  16.5000  33.2500 Du        
  34672 ****        17.5000  16.7500  13.2500 Du        
  34673 ****        17.5000  16.7500  31.7500 Du        
  34674 ****        17.5000  16.7500  32.0000 Du        
  34675 ****        17.5000  16.7500  32.2500 Du        
  34676 ****        17.5000  16.7500  32.5000 Du        
  34677 ****        17.5000  16.7500  32.7500 Du        
  34678 ****        17.5000  16.7500  33.0000 Du        
  34679 ****        17.5000  16.7500  33.2500 Du        
  34680 ****        17.5000  17.0000  32.0000 Du        
  34681 ****        17.5000  17.0000  32.2500 Du        
  34682 ****        17.5000  17.0000  32.5000 Du        
  34683 ****        17.5000  17.0000  32.7500 Du        
  34684 ****        17.5000  17.0000  33.0000 Du        
  34685 ****        17.5000  17.0000  33.2500 Du        
  34686 ****        17.5000  17.2500  11.2500 Du        
  34687 ****        17.5000  17.2500  11.5000 Du        
  34688 ****        17.5000  17.2500  11.7500 Du        
  34689 ****        17.5000  17.2500  12.0000 Du        
  34690 ****        17.5000  17.2500  32.2500 Du        
  34691 ****        17.5000  17.2500  32.5000 Du        
  34692 ****        17.5000  17.2500  32.7500 Du        
  34693 ****        17.5000  17.2500  33.0000 Du        
  34694 ****        17.5000  17.2500  33.2500 Du        
  34695 ****        17.5000  17.5000  11.2500 Du        
  34696 ****        17.5000  17.5000  11.5000 Du        
  34697 ****        17.5000  17.5000  32.7500 Du        
  34698 ****        17.5000  17.5000  33.0000 Du        
  34699 ****        17.5000  17.5000  33.2500 Du        
  34700 ****        17.5000  17.7500  33.2500 Du        
  34701 ****        17.7500   1.5000  21.0000 Du        
  34702 ****        17.7500   1.5000  21.2500 Du        
  34703 ****        17.7500   1.5000  21.5000 Du        
  34704 ****        17.7500   1.5000  21.7500 Du        
  34705 ****        17.7500   1.5000  22.0000 Du        
  34706 ****        17.7500   1.7500  21.2500 Du        
  34707 ****        17.7500   1.7500  21.5000 Du        
  34708 ****        17.7500   1.7500  21.7500 Du        
  34709 ****        17.7500   1.7500  22.0000 Du        
  34710 ****        17.7500   1.7500  22.2500 Du        
  34711 ****        17.7500   1.7500  22.5000 Du        
  34712 ****        17.7500   1.7500  22.7500 Du        
  34713 ****        17.7500   1.7500  29.5000 Du        
  34714 ****        17.7500   1.7500  29.7500 Du        
  34715 ****        17.7500   2.0000  21.2500 Du        
  34716 ****        17.7500   2.0000  21.5000 Du        
  34717 ****        17.7500   2.0000  21.7500 Du        
  34718 ****        17.7500   2.0000  22.0000 Du        
  34719 ****        17.7500   2.0000  22.2500 Du        
  34720 ****        17.7500   2.0000  22.5000 Du        
  34721 ****        17.7500   2.0000  22.7500 Du        
  34722 ****        17.7500   2.0000  23.0000 Du        
  34723 ****        17.7500   2.0000  29.0000 Du        
  34724 ****        17.7500   2.0000  29.2500 Du        
  34725 ****        17.7500   2.0000  29.5000 Du        
  34726 ****        17.7500   2.0000  29.7500 Du        
  34727 ****        17.7500   2.2500  21.5000 Du        
  34728 ****        17.7500   2.2500  21.7500 Du        
  34729 ****        17.7500   2.2500  22.0000 Du        
  34730 ****        17.7500   2.2500  22.2500 Du        
  34731 ****        17.7500   2.2500  22.5000 Du        
  34732 ****        17.7500   2.2500  22.7500 Du        
  34733 ****        17.7500   2.2500  23.0000 Du        
  34734 ****        17.7500   2.2500  23.2500 Du        
  34735 ****        17.7500   2.2500  23.5000 Du        
  34736 ****        17.7500   2.2500  29.0000 Du        
  34737 ****        17.7500   2.2500  29.2500 Du        
  34738 ****        17.7500   2.2500  29.5000 Du        
  34739 ****        17.7500   2.2500  29.7500 Du        
  34740 ****        17.7500   2.2500  30.0000 Du        
  34741 ****        17.7500   2.5000  21.5000 Du        
  34742 ****        17.7500   2.5000  21.7500 Du        
  34743 ****        17.7500   2.5000  22.0000 Du        
  34744 ****        17.7500   2.5000  22.2500 Du        
  34745 ****        17.7500   2.5000  22.5000 Du        
  34746 ****        17.7500   2.5000  22.7500 Du        
  34747 ****        17.7500   2.5000  23.0000 Du        
  34748 ****        17.7500   2.5000  23.2500 Du        
  34749 ****        17.7500   2.5000  23.5000 Du        
  34750 ****        17.7500   2.5000  29.0000 Du        
  34751 ****        17.7500   2.5000  29.2500 Du        
  34752 ****        17.7500   2.5000  29.5000 Du        
  34753 ****        17.7500   2.5000  29.7500 Du        
  34754 ****        17.7500   2.5000  30.0000 Du        
  34755 ****        17.7500   2.7500  21.7500 Du        
  34756 ****        17.7500   2.7500  22.0000 Du        
  34757 ****        17.7500   2.7500  22.2500 Du        
  34758 ****        17.7500   2.7500  22.5000 Du        
  34759 ****        17.7500   2.7500  22.7500 Du        
  34760 ****        17.7500   2.7500  23.0000 Du        
  34761 ****        17.7500   2.7500  23.2500 Du        
  34762 ****        17.7500   2.7500  23.5000 Du        
  34763 ****        17.7500   2.7500  29.0000 Du        
  34764 ****        17.7500   2.7500  29.2500 Du        
  34765 ****        17.7500   2.7500  29.5000 Du        
  34766 ****        17.7500   2.7500  29.7500 Du        
  34767 ****        17.7500   2.7500  30.0000 Du        
  34768 ****        17.7500   2.7500  30.2500 Du        
  34769 ****        17.7500   3.0000  22.2500 Du        
  34770 ****        17.7500   3.0000  22.5000 Du        
  34771 ****        17.7500   3.0000  22.7500 Du        
  34772 ****        17.7500   3.0000  23.0000 Du        
  34773 ****        17.7500   3.0000  23.2500 Du        
  34774 ****        17.7500   3.0000  23.5000 Du        
  34775 ****        17.7500   3.0000  23.7500 Du        
  34776 ****        17.7500   3.0000  29.0000 Du        
  34777 ****        17.7500   3.0000  29.2500 Du        
  34778 ****        17.7500   3.0000  29.5000 Du        
  34779 ****        17.7500   3.0000  29.7500 Du        
  34780 ****        17.7500   3.0000  30.0000 Du        
  34781 ****        17.7500   3.0000  30.2500 Du        
  34782 ****        17.7500   3.2500  23.0000 Du        
  34783 ****        17.7500   3.2500  23.2500 Du        
  34784 ****        17.7500   3.2500  23.5000 Du        
  34785 ****        17.7500   3.2500  23.7500 Du        
  34786 ****        17.7500   3.2500  29.0000 Du        
  34787 ****        17.7500   3.2500  29.2500 Du        
  34788 ****        17.7500   3.2500  29.5000 Du        
  34789 ****        17.7500   3.2500  29.7500 Du        
  34790 ****        17.7500   3.2500  30.0000 Du        
  34791 ****        17.7500   3.2500  30.2500 Du        
  34792 ****        17.7500   3.5000  29.0000 Du        
  34793 ****        17.7500   3.5000  29.2500 Du        
  34794 ****        17.7500   3.5000  29.5000 Du        
  34795 ****        17.7500   3.5000  29.7500 Du        
  34796 ****        17.7500   3.5000  30.0000 Du        
  34797 ****        17.7500   3.5000  30.2500 Du        
  34798 ****        17.7500   3.7500  29.2500 Du        
  34799 ****        17.7500   3.7500  29.5000 Du        
  34800 ****        17.7500   3.7500  29.7500 Du        
  34801 ****        17.7500   3.7500  30.0000 Du        
  34802 ****        17.7500   3.7500  30.2500 Du        
  34803 ****        17.7500   4.0000  29.5000 Du        
  34804 ****        17.7500   4.0000  29.7500 Du        
  34805 ****        17.7500   4.0000  30.0000 Du        
  34806 ****        17.7500   4.0000  30.2500 Du        
  34807 ****        17.7500   4.0000  30.5000 Du        
  34808 ****        17.7500   4.0000  30.7500 Du        
  34809 ****        17.7500   4.2500   3.2500 Du        
  34810 ****        17.7500   4.2500   3.7500 Du        
  34811 ****        17.7500   4.2500   4.0000 Du        
  34812 ****        17.7500   4.2500  30.0000 Du        
  34813 ****        17.7500   4.2500  30.2500 Du        
  34814 ****        17.7500   4.2500  30.5000 Du        
  34815 ****        17.7500   4.2500  30.7500 Du        
  34816 ****        17.7500   4.5000   3.5000 Du        
  34817 ****        17.7500   4.5000   3.7500 Du        
  34818 ****        17.7500   4.5000   4.0000 Du        
  34819 ****        17.7500   4.5000  30.7500 Du        
  34820 ****        17.7500   4.7500   3.0000 Du        
  34821 ****        17.7500   4.7500   3.5000 Du        
  34822 ****        17.7500   4.7500   3.7500 Du        
  34823 ****        17.7500   5.0000   3.0000 Du        
  34824 ****        17.7500   5.0000   3.2500 Du        
  34825 ****        17.7500   5.0000   3.5000 Du        
  34826 ****        17.7500   5.0000  25.7500 Du        
  34827 ****        17.7500   5.2500   3.0000 Du        
  34828 ****        17.7500   5.2500   3.2500 Du        
  34829 ****        17.7500   5.2500   3.5000 Du        
  34830 ****        17.7500   5.2500  25.5000 Du        
  34831 ****        17.7500   5.2500  25.7500 Du        
  34832 ****        17.7500   5.2500  26.0000 Du        
  34833 ****        17.7500   5.2500  26.2500 Du        
  34834 ****        17.7500   5.2500  26.5000 Du        
  34835 ****        17.7500   5.2500  26.7500 Du        
  34836 ****        17.7500   5.5000   2.7500 Du        
  34837 ****        17.7500   5.5000   3.0000 Du        
  34838 ****        17.7500   5.5000   3.2500 Du        
  34839 ****        17.7500   5.5000   3.5000 Du        
  34840 ****        17.7500   5.5000  25.7500 Du        
  34841 ****        17.7500   5.5000  26.0000 Du        
  34842 ****        17.7500   5.5000  26.2500 Du        
  34843 ****        17.7500   5.5000  26.5000 Du        
  34844 ****        17.7500   5.5000  26.7500 Du        
  34845 ****        17.7500   5.7500   3.0000 Du        
  34846 ****        17.7500   5.7500   3.2500 Du        
  34847 ****        17.7500   5.7500   3.5000 Du        
  34848 ****        17.7500   5.7500  25.7500 Du        
  34849 ****        17.7500   5.7500  26.0000 Du        
  34850 ****        17.7500   5.7500  26.2500 Du        
  34851 ****        17.7500   5.7500  26.5000 Du        
  34852 ****        17.7500   5.7500  26.7500 Du        
  34853 ****        17.7500   6.0000   3.0000 Du        
  34854 ****        17.7500   6.0000   3.2500 Du        
  34855 ****        17.7500   6.0000   3.5000 Du        
  34856 ****        17.7500   6.0000  26.0000 Du        
  34857 ****        17.7500   6.0000  26.2500 Du        
  34858 ****        17.7500   6.0000  26.5000 Du        
  34859 ****        17.7500   6.0000  26.7500 Du        
  34860 ****        17.7500   6.0000  27.0000 Du        
  34861 ****        17.7500   6.2500   3.0000 Du        
  34862 ****        17.7500   6.2500   3.2500 Du        
  34863 ****        17.7500   6.2500   3.5000 Du        
  34864 ****        17.7500   6.2500   3.7500 Du        
  34865 ****        17.7500   6.2500  26.2500 Du        
  34866 ****        17.7500   6.2500  26.5000 Du        
  34867 ****        17.7500   6.2500  26.7500 Du        
  34868 ****        17.7500   6.2500  27.0000 Du        
  34869 ****        17.7500   6.5000   3.0000 Du        
  34870 ****        17.7500   6.5000   3.2500 Du        
  34871 ****        17.7500   6.5000   3.5000 Du        
  34872 ****        17.7500   6.5000   3.7500 Du        
  34873 ****        17.7500   6.5000  26.2500 Du        
  34874 ****        17.7500   6.5000  26.5000 Du        
  34875 ****        17.7500   6.5000  26.7500 Du        
  34876 ****        17.7500   6.5000  27.0000 Du        
  34877 ****        17.7500   6.7500   2.7500 Du        
  34878 ****        17.7500   6.7500   3.0000 Du        
  34879 ****        17.7500   6.7500   3.2500 Du        
  34880 ****        17.7500   6.7500   3.5000 Du        
  34881 ****        17.7500   6.7500   3.7500 Du        
  34882 ****        17.7500   6.7500  26.5000 Du        
  34883 ****        17.7500   6.7500  26.7500 Du        
  34884 ****        17.7500   6.7500  27.0000 Du        
  34885 ****        17.7500   7.0000   2.7500 Du        
  34886 ****        17.7500   7.0000   3.0000 Du        
  34887 ****        17.7500   7.0000   3.2500 Du        
  34888 ****        17.7500   7.0000   3.5000 Du        
  34889 ****        17.7500   7.0000   3.7500 Du        
  34890 ****        17.7500   7.0000  26.5000 Du        
  34891 ****        17.7500   7.0000  26.7500 Du        
  34892 ****        17.7500   7.2500   3.0000 Du        
  34893 ****        17.7500   7.2500   3.2500 Du        
  34894 ****        17.7500   7.2500   3.5000 Du        
  34895 ****        17.7500   7.2500   3.7500 Du        
  34896 ****        17.7500   7.5000   3.0000 Du        
  34897 ****        17.7500   7.5000   3.2500 Du        
  34898 ****        17.7500   7.5000   3.5000 Du        
  34899 ****        17.7500   7.5000   3.7500 Du        
  34900 ****        17.7500   7.5000   4.0000 Du        
  34901 ****        17.7500   7.7500   3.2500 Du        
  34902 ****        17.7500   7.7500   3.5000 Du        
  34903 ****        17.7500   7.7500   3.7500 Du        
  34904 ****        17.7500  10.2500  36.0000 Du        
  34905 ****        17.7500  10.5000  35.7500 Du        
  34906 ****        17.7500  10.5000  36.0000 Du        
  34907 ****        17.7500  10.5000  36.2500 Du        
  34908 ****        17.7500  10.7500  35.7500 Du        
  34909 ****        17.7500  10.7500  36.0000 Du        
  34910 ****        17.7500  10.7500  36.2500 Du        
  34911 ****        17.7500  10.7500  36.5000 Du        
  34912 ****        17.7500  11.0000  35.7500 Du        
  34913 ****        17.7500  11.0000  36.0000 Du        
  34914 ****        17.7500  11.0000  36.2500 Du        
  34915 ****        17.7500  11.0000  36.5000 Du        
  34916 ****        17.7500  11.2500  36.0000 Du        
  34917 ****        17.7500  11.2500  36.2500 Du        
  34918 ****        17.7500  11.2500  36.5000 Du        
  34919 ****        17.7500  11.2500  36.7500 Du        
  34920 ****        17.7500  11.2500  37.0000 Du        
  34921 ****        17.7500  11.5000  36.2500 Du        
  34922 ****        17.7500  11.5000  37.0000 Du        
  34923 ****        17.7500  11.7500  37.0000 Du        
  34924 ****        17.7500  11.7500  37.2500 Du        
  34925 ****        17.7500  11.7500  37.5000 Du        
  34926 ****        17.7500  12.0000  37.0000 Du        
  34927 ****        17.7500  12.0000  37.2500 Du        
  34928 ****        17.7500  12.0000  37.5000 Du        
  34929 ****        17.7500  12.0000  37.7500 Du        
  34930 ****        17.7500  12.2500  37.2500 Du        
  34931 ****        17.7500  12.2500  37.7500 Du        
  34932 ****        17.7500  13.0000  38.0000 Du        
  34933 ****        17.7500  13.2500  14.7500 Du        
  34934 ****        17.7500  13.2500  15.0000 Du        
  34935 ****        17.7500  13.2500  15.2500 Du        
  34936 ****        17.7500  13.2500  15.5000 Du        
  34937 ****        17.7500  13.2500  15.7500 Du        
  34938 ****        17.7500  13.2500  16.0000 Du        
  34939 ****        17.7500  13.2500  16.2500 Du        
  34940 ****        17.7500  13.2500  16.5000 Du        
  34941 ****        17.7500  13.2500  38.2500 Du        
  34942 ****        17.7500  13.5000  14.5000 Du        
  34943 ****        17.7500  13.5000  14.7500 Du        
  34944 ****        17.7500  13.5000  15.0000 Du        
  34945 ****        17.7500  13.5000  15.2500 Du        
  34946 ****        17.7500  13.5000  15.5000 Du        
  34947 ****        17.7500  13.5000  15.7500 Du        
  34948 ****        17.7500  13.5000  16.0000 Du        
  34949 ****        17.7500  13.5000  16.2500 Du        
  34950 ****        17.7500  13.5000  16.5000 Du        
  34951 ****        17.7500  13.5000  38.5000 Du        
  34952 ****        17.7500  13.5000  38.7500 Du        
  34953 ****        17.7500  13.7500  14.2500 Du        
  34954 ****        17.7500  13.7500  14.5000 Du        
  34955 ****        17.7500  13.7500  14.7500 Du        
  34956 ****        17.7500  13.7500  15.0000 Du        
  34957 ****        17.7500  13.7500  15.2500 Du        
  34958 ****        17.7500  13.7500  15.5000 Du        
  34959 ****        17.7500  13.7500  15.7500 Du        
  34960 ****        17.7500  13.7500  16.0000 Du        
  34961 ****        17.7500  13.7500  16.2500 Du        
  34962 ****        17.7500  13.7500  38.2500 Du        
  34963 ****        17.7500  13.7500  38.5000 Du        
  34964 ****        17.7500  13.7500  38.7500 Du        
  34965 ****        17.7500  14.0000  14.2500 Du        
  34966 ****        17.7500  14.0000  14.5000 Du        
  34967 ****        17.7500  14.0000  14.7500 Du        
  34968 ****        17.7500  14.0000  15.0000 Du        
  34969 ****        17.7500  14.0000  15.2500 Du        
  34970 ****        17.7500  14.0000  15.5000 Du        
  34971 ****        17.7500  14.0000  15.7500 Du        
  34972 ****        17.7500  14.0000  16.0000 Du        
  34973 ****        17.7500  14.0000  16.2500 Du        
  34974 ****        17.7500  14.0000  38.5000 Du        
  34975 ****        17.7500  14.0000  38.7500 Du        
  34976 ****        17.7500  14.0000  39.0000 Du        
  34977 ****        17.7500  14.2500  14.2500 Du        
  34978 ****        17.7500  14.2500  14.5000 Du        
  34979 ****        17.7500  14.2500  14.7500 Du        
  34980 ****        17.7500  14.2500  15.0000 Du        
  34981 ****        17.7500  14.2500  15.2500 Du        
  34982 ****        17.7500  14.2500  15.5000 Du        
  34983 ****        17.7500  14.2500  15.7500 Du        
  34984 ****        17.7500  14.2500  16.0000 Du        
  34985 ****        17.7500  14.2500  16.2500 Du        
  34986 ****        17.7500  14.2500  38.7500 Du        
  34987 ****        17.7500  14.2500  39.0000 Du        
  34988 ****        17.7500  14.5000  14.2500 Du        
  34989 ****        17.7500  14.5000  14.5000 Du        
  34990 ****        17.7500  14.5000  14.7500 Du        
  34991 ****        17.7500  14.5000  15.0000 Du        
  34992 ****        17.7500  14.5000  15.2500 Du        
  34993 ****        17.7500  14.5000  15.5000 Du        
  34994 ****        17.7500  14.5000  15.7500 Du        
  34995 ****        17.7500  14.5000  16.0000 Du        
  34996 ****        17.7500  14.7500  14.2500 Du        
  34997 ****        17.7500  14.7500  14.5000 Du        
  34998 ****        17.7500  14.7500  14.7500 Du        
  34999 ****        17.7500  14.7500  15.0000 Du        
  35000 ****        17.7500  14.7500  15.2500 Du        
  35001 ****        17.7500  14.7500  15.5000 Du        
  35002 ****        17.7500  14.7500  15.7500 Du        
  35003 ****        17.7500  14.7500  32.2500 Du        
  35004 ****        17.7500  14.7500  32.5000 Du        
  35005 ****        17.7500  14.7500  32.7500 Du        
  35006 ****        17.7500  14.7500  33.0000 Du        
  35007 ****        17.7500  14.7500  33.2500 Du        
  35008 ****        17.7500  15.0000  14.2500 Du        
  35009 ****        17.7500  15.0000  14.5000 Du        
  35010 ****        17.7500  15.0000  14.7500 Du        
  35011 ****        17.7500  15.0000  15.0000 Du        
  35012 ****        17.7500  15.0000  15.2500 Du        
  35013 ****        17.7500  15.0000  15.5000 Du        
  35014 ****        17.7500  15.0000  32.2500 Du        
  35015 ****        17.7500  15.0000  32.5000 Du        
  35016 ****        17.7500  15.0000  32.7500 Du        
  35017 ****        17.7500  15.0000  33.0000 Du        
  35018 ****        17.7500  15.0000  33.2500 Du        
  35019 ****        17.7500  15.2500  14.2500 Du        
  35020 ****        17.7500  15.2500  14.5000 Du        
  35021 ****        17.7500  15.2500  14.7500 Du        
  35022 ****        17.7500  15.2500  15.0000 Du        
  35023 ****        17.7500  15.2500  15.2500 Du        
  35024 ****        17.7500  15.2500  32.0000 Du        
  35025 ****        17.7500  15.2500  32.2500 Du        
  35026 ****        17.7500  15.2500  32.5000 Du        
  35027 ****        17.7500  15.2500  32.7500 Du        
  35028 ****        17.7500  15.2500  33.0000 Du        
  35029 ****        17.7500  15.2500  33.2500 Du        
  35030 ****        17.7500  15.5000  14.0000 Du        
  35031 ****        17.7500  15.5000  14.2500 Du        
  35032 ****        17.7500  15.5000  14.5000 Du        
  35033 ****        17.7500  15.5000  14.7500 Du        
  35034 ****        17.7500  15.5000  32.0000 Du        
  35035 ****        17.7500  15.5000  32.2500 Du        
  35036 ****        17.7500  15.5000  32.5000 Du        
  35037 ****        17.7500  15.5000  32.7500 Du        
  35038 ****        17.7500  15.5000  33.0000 Du        
  35039 ****        17.7500  15.5000  33.2500 Du        
  35040 ****        17.7500  15.7500  14.0000 Du        
  35041 ****        17.7500  15.7500  14.2500 Du        
  35042 ****        17.7500  15.7500  14.5000 Du        
  35043 ****        17.7500  15.7500  32.0000 Du        
  35044 ****        17.7500  15.7500  32.2500 Du        
  35045 ****        17.7500  15.7500  32.5000 Du        
  35046 ****        17.7500  15.7500  32.7500 Du        
  35047 ****        17.7500  15.7500  33.0000 Du        
  35048 ****        17.7500  15.7500  33.2500 Du        
  35049 ****        17.7500  16.0000  14.0000 Du        
  35050 ****        17.7500  16.0000  14.2500 Du        
  35051 ****        17.7500  16.0000  32.0000 Du        
  35052 ****        17.7500  16.0000  32.2500 Du        
  35053 ****        17.7500  16.0000  32.5000 Du        
  35054 ****        17.7500  16.0000  32.7500 Du        
  35055 ****        17.7500  16.0000  33.0000 Du        
  35056 ****        17.7500  16.0000  33.2500 Du        
  35057 ****        17.7500  16.2500  13.7500 Du        
  35058 ****        17.7500  16.2500  14.0000 Du        
  35059 ****        17.7500  16.2500  32.0000 Du        
  35060 ****        17.7500  16.2500  32.2500 Du        
  35061 ****        17.7500  16.2500  32.5000 Du        
  35062 ****        17.7500  16.2500  32.7500 Du        
  35063 ****        17.7500  16.2500  33.0000 Du        
  35064 ****        17.7500  16.2500  33.2500 Du        
  35065 ****        17.7500  16.5000  13.5000 Du        
  35066 ****        17.7500  16.5000  13.7500 Du        
  35067 ****        17.7500  16.5000  32.0000 Du        
  35068 ****        17.7500  16.5000  32.2500 Du        
  35069 ****        17.7500  16.5000  32.5000 Du        
  35070 ****        17.7500  16.5000  32.7500 Du        
  35071 ****        17.7500  16.5000  33.0000 Du        
  35072 ****        17.7500  16.5000  33.2500 Du        
  35073 ****        17.7500  16.7500  13.0000 Du        
  35074 ****        17.7500  16.7500  13.2500 Du        
  35075 ****        17.7500  16.7500  13.5000 Du        
  35076 ****        17.7500  16.7500  32.0000 Du        
  35077 ****        17.7500  16.7500  32.2500 Du        
  35078 ****        17.7500  16.7500  32.5000 Du        
  35079 ****        17.7500  16.7500  32.7500 Du        
  35080 ****        17.7500  16.7500  33.0000 Du        
  35081 ****        17.7500  16.7500  33.2500 Du        
  35082 ****        17.7500  17.0000  12.5000 Du        
  35083 ****        17.7500  17.0000  12.7500 Du        
  35084 ****        17.7500  17.0000  13.0000 Du        
  35085 ****        17.7500  17.0000  32.2500 Du        
  35086 ****        17.7500  17.0000  32.5000 Du        
  35087 ****        17.7500  17.0000  32.7500 Du        
  35088 ****        17.7500  17.0000  33.0000 Du        
  35089 ****        17.7500  17.0000  33.2500 Du        
  35090 ****        17.7500  17.2500  11.5000 Du        
  35091 ****        17.7500  17.2500  11.7500 Du        
  35092 ****        17.7500  17.2500  12.0000 Du        
  35093 ****        17.7500  17.2500  12.2500 Du        
  35094 ****        17.7500  17.2500  32.7500 Du        
  35095 ****        17.7500  17.2500  33.0000 Du        
  35096 ****        17.7500  17.2500  33.2500 Du        
  35097 ****        17.7500  17.5000  11.2500 Du        
  35098 ****        17.7500  17.5000  11.5000 Du        
  35099 ****        17.7500  17.5000  11.7500 Du        
  35100 ****        17.7500  17.5000  12.0000 Du        
  35101 ****        17.7500  20.7500  36.2500 Du        
  35102 ****        18.0000   1.2500  29.7500 Du        
  35103 ****        18.0000   1.2500  30.0000 Du        
  35104 ****        18.0000   1.5000  21.2500 Du        
  35105 ****        18.0000   1.5000  21.5000 Du        
  35106 ****        18.0000   1.5000  21.7500 Du        
  35107 ****        18.0000   1.5000  22.0000 Du        
  35108 ****        18.0000   1.5000  22.2500 Du        
  35109 ****        18.0000   1.5000  22.5000 Du        
  35110 ****        18.0000   1.5000  22.7500 Du        
  35111 ****        18.0000   1.7500  21.5000 Du        
  35112 ****        18.0000   1.7500  21.7500 Du        
  35113 ****        18.0000   1.7500  22.0000 Du        
  35114 ****        18.0000   1.7500  22.2500 Du        
  35115 ****        18.0000   1.7500  22.5000 Du        
  35116 ****        18.0000   1.7500  22.7500 Du        
  35117 ****        18.0000   1.7500  23.0000 Du        
  35118 ****        18.0000   1.7500  23.2500 Du        
  35119 ****        18.0000   1.7500  29.2500 Du        
  35120 ****        18.0000   1.7500  29.5000 Du        
  35121 ****        18.0000   1.7500  29.7500 Du        
  35122 ****        18.0000   1.7500  30.0000 Du        
  35123 ****        18.0000   2.0000  21.5000 Du        
  35124 ****        18.0000   2.0000  21.7500 Du        
  35125 ****        18.0000   2.0000  22.0000 Du        
  35126 ****        18.0000   2.0000  22.2500 Du        
  35127 ****        18.0000   2.0000  22.5000 Du        
  35128 ****        18.0000   2.0000  22.7500 Du        
  35129 ****        18.0000   2.0000  23.0000 Du        
  35130 ****        18.0000   2.0000  23.2500 Du        
  35131 ****        18.0000   2.0000  23.5000 Du        
  35132 ****        18.0000   2.0000  29.0000 Du        
  35133 ****        18.0000   2.0000  29.2500 Du        
  35134 ****        18.0000   2.0000  29.5000 Du        
  35135 ****        18.0000   2.0000  29.7500 Du        
  35136 ****        18.0000   2.0000  30.0000 Du        
  35137 ****        18.0000   2.2500  21.5000 Du        
  35138 ****        18.0000   2.2500  21.7500 Du        
  35139 ****        18.0000   2.2500  22.0000 Du        
  35140 ****        18.0000   2.2500  22.2500 Du        
  35141 ****        18.0000   2.2500  22.5000 Du        
  35142 ****        18.0000   2.2500  22.7500 Du        
  35143 ****        18.0000   2.2500  23.0000 Du        
  35144 ****        18.0000   2.2500  23.2500 Du        
  35145 ****        18.0000   2.2500  23.5000 Du        
  35146 ****        18.0000   2.2500  23.7500 Du        
  35147 ****        18.0000   2.2500  29.0000 Du        
  35148 ****        18.0000   2.2500  29.2500 Du        
  35149 ****        18.0000   2.2500  29.5000 Du        
  35150 ****        18.0000   2.2500  29.7500 Du        
  35151 ****        18.0000   2.2500  30.0000 Du        
  35152 ****        18.0000   2.2500  30.2500 Du        
  35153 ****        18.0000   2.5000  21.7500 Du        
  35154 ****        18.0000   2.5000  22.0000 Du        
  35155 ****        18.0000   2.5000  22.2500 Du        
  35156 ****        18.0000   2.5000  22.5000 Du        
  35157 ****        18.0000   2.5000  22.7500 Du        
  35158 ****        18.0000   2.5000  23.0000 Du        
  35159 ****        18.0000   2.5000  23.2500 Du        
  35160 ****        18.0000   2.5000  23.5000 Du        
  35161 ****        18.0000   2.5000  23.7500 Du        
  35162 ****        18.0000   2.5000  29.0000 Du        
  35163 ****        18.0000   2.5000  29.2500 Du        
  35164 ****        18.0000   2.5000  29.5000 Du        
  35165 ****        18.0000   2.5000  29.7500 Du        
  35166 ****        18.0000   2.5000  30.0000 Du        
  35167 ****        18.0000   2.5000  30.2500 Du        
  35168 ****        18.0000   2.7500  22.0000 Du        
  35169 ****        18.0000   2.7500  22.2500 Du        
  35170 ****        18.0000   2.7500  22.5000 Du        
  35171 ****        18.0000   2.7500  22.7500 Du        
  35172 ****        18.0000   2.7500  23.0000 Du        
  35173 ****        18.0000   2.7500  23.2500 Du        
  35174 ****        18.0000   2.7500  23.5000 Du        
  35175 ****        18.0000   2.7500  23.7500 Du        
  35176 ****        18.0000   2.7500  29.0000 Du        
  35177 ****        18.0000   2.7500  29.2500 Du        
  35178 ****        18.0000   2.7500  29.5000 Du        
  35179 ****        18.0000   2.7500  29.7500 Du        
  35180 ****        18.0000   2.7500  30.0000 Du        
  35181 ****        18.0000   2.7500  30.2500 Du        
  35182 ****        18.0000   3.0000  22.5000 Du        
  35183 ****        18.0000   3.0000  22.7500 Du        
  35184 ****        18.0000   3.0000  23.0000 Du        
  35185 ****        18.0000   3.0000  23.2500 Du        
  35186 ****        18.0000   3.0000  23.5000 Du        
  35187 ****        18.0000   3.0000  23.7500 Du        
  35188 ****        18.0000   3.0000  24.0000 Du        
  35189 ****        18.0000   3.0000  29.0000 Du        
  35190 ****        18.0000   3.0000  29.2500 Du        
  35191 ****        18.0000   3.0000  29.5000 Du        
  35192 ****        18.0000   3.0000  29.7500 Du        
  35193 ****        18.0000   3.0000  30.0000 Du        
  35194 ****        18.0000   3.0000  30.2500 Du        
  35195 ****        18.0000   3.2500  22.7500 Du        
  35196 ****        18.0000   3.2500  23.0000 Du        
  35197 ****        18.0000   3.2500  23.2500 Du        
  35198 ****        18.0000   3.2500  23.5000 Du        
  35199 ****        18.0000   3.2500  23.7500 Du        
  35200 ****        18.0000   3.2500  24.0000 Du        
  35201 ****        18.0000   3.2500  28.7500 Du        
  35202 ****        18.0000   3.2500  29.0000 Du        
  35203 ****        18.0000   3.2500  29.2500 Du        
  35204 ****        18.0000   3.2500  29.5000 Du        
  35205 ****        18.0000   3.2500  29.7500 Du        
  35206 ****        18.0000   3.2500  30.0000 Du        
  35207 ****        18.0000   3.2500  30.2500 Du        
  35208 ****        18.0000   3.5000  23.2500 Du        
  35209 ****        18.0000   3.5000  23.5000 Du        
  35210 ****        18.0000   3.5000  23.7500 Du        
  35211 ****        18.0000   3.5000  24.0000 Du        
  35212 ****        18.0000   3.5000  29.0000 Du        
  35213 ****        18.0000   3.5000  29.2500 Du        
  35214 ****        18.0000   3.5000  29.5000 Du        
  35215 ****        18.0000   3.5000  29.7500 Du        
  35216 ****        18.0000   3.5000  30.0000 Du        
  35217 ****        18.0000   3.5000  30.2500 Du        
  35218 ****        18.0000   3.7500  23.7500 Du        
  35219 ****        18.0000   3.7500  24.0000 Du        
  35220 ****        18.0000   3.7500  24.2500 Du        
  35221 ****        18.0000   3.7500  29.0000 Du        
  35222 ****        18.0000   3.7500  29.2500 Du        
  35223 ****        18.0000   3.7500  29.5000 Du        
  35224 ****        18.0000   3.7500  29.7500 Du        
  35225 ****        18.0000   3.7500  30.0000 Du        
  35226 ****        18.0000   3.7500  30.2500 Du        
  35227 ****        18.0000   4.0000   3.0000 Du        
  35228 ****        18.0000   4.0000   3.2500 Du        
  35229 ****        18.0000   4.0000   3.5000 Du        
  35230 ****        18.0000   4.0000  24.0000 Du        
  35231 ****        18.0000   4.0000  24.2500 Du        
  35232 ****        18.0000   4.0000  29.2500 Du        
  35233 ****        18.0000   4.0000  29.5000 Du        
  35234 ****        18.0000   4.0000  29.7500 Du        
  35235 ****        18.0000   4.0000  30.0000 Du        
  35236 ****        18.0000   4.0000  30.2500 Du        
  35237 ****        18.0000   4.0000  30.5000 Du        
  35238 ****        18.0000   4.0000  30.7500 Du        
  35239 ****        18.0000   4.2500   3.0000 Du        
  35240 ****        18.0000   4.2500   3.2500 Du        
  35241 ****        18.0000   4.2500   3.5000 Du        
  35242 ****        18.0000   4.2500   3.7500 Du        
  35243 ****        18.0000   4.2500   4.0000 Du        
  35244 ****        18.0000   4.2500  24.2500 Du        
  35245 ****        18.0000   4.2500  30.0000 Du        
  35246 ****        18.0000   4.2500  30.2500 Du        
  35247 ****        18.0000   4.2500  30.5000 Du        
  35248 ****        18.0000   4.2500  30.7500 Du        
  35249 ****        18.0000   4.5000   3.0000 Du        
  35250 ****        18.0000   4.5000   3.2500 Du        
  35251 ****        18.0000   4.5000   3.5000 Du        
  35252 ****        18.0000   4.5000   3.7500 Du        
  35253 ****        18.0000   4.5000  30.2500 Du        
  35254 ****        18.0000   4.5000  30.5000 Du        
  35255 ****        18.0000   4.5000  30.7500 Du        
  35256 ****        18.0000   4.7500   2.7500 Du        
  35257 ****        18.0000   4.7500   3.0000 Du        
  35258 ****        18.0000   4.7500   3.2500 Du        
  35259 ****        18.0000   4.7500   3.5000 Du        
  35260 ****        18.0000   4.7500   3.7500 Du        
  35261 ****        18.0000   4.7500  25.0000 Du        
  35262 ****        18.0000   4.7500  25.2500 Du        
  35263 ****        18.0000   4.7500  25.5000 Du        
  35264 ****        18.0000   4.7500  25.7500 Du        
  35265 ****        18.0000   4.7500  30.7500 Du        
  35266 ****        18.0000   5.0000   2.7500 Du        
  35267 ****        18.0000   5.0000   3.0000 Du        
  35268 ****        18.0000   5.0000   3.2500 Du        
  35269 ****        18.0000   5.0000   3.5000 Du        
  35270 ****        18.0000   5.0000   3.7500 Du        
  35271 ****        18.0000   5.0000  25.2500 Du        
  35272 ****        18.0000   5.0000  25.5000 Du        
  35273 ****        18.0000   5.0000  25.7500 Du        
  35274 ****        18.0000   5.0000  26.0000 Du        
  35275 ****        18.0000   5.0000  26.2500 Du        
  35276 ****        18.0000   5.0000  26.5000 Du        
  35277 ****        18.0000   5.0000  30.7500 Du        
  35278 ****        18.0000   5.2500   2.7500 Du        
  35279 ****        18.0000   5.2500   3.0000 Du        
  35280 ****        18.0000   5.2500   3.2500 Du        
  35281 ****        18.0000   5.2500   3.5000 Du        
  35282 ****        18.0000   5.2500  25.5000 Du        
  35283 ****        18.0000   5.2500  25.7500 Du        
  35284 ****        18.0000   5.2500  26.0000 Du        
  35285 ****        18.0000   5.2500  26.2500 Du        
  35286 ****        18.0000   5.2500  26.5000 Du        
  35287 ****        18.0000   5.2500  26.7500 Du        
  35288 ****        18.0000   5.2500  27.0000 Du        
  35289 ****        18.0000   5.5000   2.5000 Du        
  35290 ****        18.0000   5.5000   2.7500 Du        
  35291 ****        18.0000   5.5000   3.0000 Du        
  35292 ****        18.0000   5.5000   3.2500 Du        
  35293 ****        18.0000   5.5000   3.5000 Du        
  35294 ****        18.0000   5.5000  25.5000 Du        
  35295 ****        18.0000   5.5000  25.7500 Du        
  35296 ****        18.0000   5.5000  26.0000 Du        
  35297 ****        18.0000   5.5000  26.2500 Du        
  35298 ****        18.0000   5.5000  26.5000 Du        
  35299 ****        18.0000   5.5000  26.7500 Du        
  35300 ****        18.0000   5.5000  27.0000 Du        
  35301 ****        18.0000   5.7500   2.7500 Du        
  35302 ****        18.0000   5.7500   3.0000 Du        
  35303 ****        18.0000   5.7500   3.2500 Du        
  35304 ****        18.0000   5.7500   3.5000 Du        
  35305 ****        18.0000   5.7500  25.7500 Du        
  35306 ****        18.0000   5.7500  26.0000 Du        
  35307 ****        18.0000   5.7500  26.2500 Du        
  35308 ****        18.0000   5.7500  26.5000 Du        
  35309 ****        18.0000   5.7500  26.7500 Du        
  35310 ****        18.0000   5.7500  27.0000 Du        
  35311 ****        18.0000   6.0000   2.7500 Du        
  35312 ****        18.0000   6.0000   3.0000 Du        
  35313 ****        18.0000   6.0000   3.2500 Du        
  35314 ****        18.0000   6.0000   3.5000 Du        
  35315 ****        18.0000   6.0000  26.0000 Du        
  35316 ****        18.0000   6.0000  26.2500 Du        
  35317 ****        18.0000   6.0000  26.5000 Du        
  35318 ****        18.0000   6.0000  26.7500 Du        
  35319 ****        18.0000   6.0000  27.0000 Du        
  35320 ****        18.0000   6.2500   2.7500 Du        
  35321 ****        18.0000   6.2500   3.0000 Du        
  35322 ****        18.0000   6.2500   3.2500 Du        
  35323 ****        18.0000   6.2500   3.5000 Du        
  35324 ****        18.0000   6.2500  26.0000 Du        
  35325 ****        18.0000   6.2500  26.2500 Du        
  35326 ****        18.0000   6.2500  26.5000 Du        
  35327 ****        18.0000   6.2500  26.7500 Du        
  35328 ****        18.0000   6.2500  27.0000 Du        
  35329 ****        18.0000   6.2500  27.2500 Du        
  35330 ****        18.0000   6.5000   2.7500 Du        
  35331 ****        18.0000   6.5000   3.0000 Du        
  35332 ****        18.0000   6.5000   3.2500 Du        
  35333 ****        18.0000   6.5000   3.5000 Du        
  35334 ****        18.0000   6.5000  26.2500 Du        
  35335 ****        18.0000   6.5000  26.5000 Du        
  35336 ****        18.0000   6.5000  26.7500 Du        
  35337 ****        18.0000   6.5000  27.0000 Du        
  35338 ****        18.0000   6.5000  27.2500 Du        
  35339 ****        18.0000   6.7500   2.7500 Du        
  35340 ****        18.0000   6.7500   3.0000 Du        
  35341 ****        18.0000   6.7500   3.2500 Du        
  35342 ****        18.0000   6.7500   3.5000 Du        
  35343 ****        18.0000   6.7500  26.2500 Du        
  35344 ****        18.0000   6.7500  26.5000 Du        
  35345 ****        18.0000   6.7500  26.7500 Du        
  35346 ****        18.0000   6.7500  27.0000 Du        
  35347 ****        18.0000   7.0000   2.7500 Du        
  35348 ****        18.0000   7.0000   3.0000 Du        
  35349 ****        18.0000   7.0000   3.2500 Du        
  35350 ****        18.0000   7.0000   3.5000 Du        
  35351 ****        18.0000   7.0000   3.7500 Du        
  35352 ****        18.0000   7.0000  26.5000 Du        
  35353 ****        18.0000   7.0000  26.7500 Du        
  35354 ****        18.0000   7.2500   2.7500 Du        
  35355 ****        18.0000   7.2500   3.0000 Du        
  35356 ****        18.0000   7.2500   3.2500 Du        
  35357 ****        18.0000   7.2500   3.5000 Du        
  35358 ****        18.0000   7.2500   3.7500 Du        
  35359 ****        18.0000   7.5000   3.2500 Du        
  35360 ****        18.0000   7.5000   3.5000 Du        
  35361 ****        18.0000   7.5000   3.7500 Du        
  35362 ****        18.0000  10.2500  35.7500 Du        
  35363 ****        18.0000  10.2500  36.0000 Du        
  35364 ****        18.0000  10.5000  36.0000 Du        
  35365 ****        18.0000  10.7500  36.0000 Du        
  35366 ****        18.0000  10.7500  36.2500 Du        
  35367 ****        18.0000  11.0000  35.7500 Du        
  35368 ****        18.0000  11.0000  36.0000 Du        
  35369 ****        18.0000  11.0000  36.2500 Du        
  35370 ****        18.0000  11.2500  36.5000 Du        
  35371 ****        18.0000  11.2500  37.0000 Du        
  35372 ****        18.0000  11.7500  37.2500 Du        
  35373 ****        18.0000  12.0000  37.2500 Du        
  35374 ****        18.0000  12.0000  37.7500 Du        
  35375 ****        18.0000  12.2500  37.7500 Du        
  35376 ****        18.0000  13.2500  14.7500 Du        
  35377 ****        18.0000  13.2500  15.0000 Du        
  35378 ****        18.0000  13.2500  15.2500 Du        
  35379 ****        18.0000  13.2500  15.5000 Du        
  35380 ****        18.0000  13.2500  15.7500 Du        
  35381 ****        18.0000  13.2500  16.0000 Du        
  35382 ****        18.0000  13.2500  16.2500 Du        
  35383 ****        18.0000  13.2500  38.5000 Du        
  35384 ****        18.0000  13.5000  14.5000 Du        
  35385 ****        18.0000  13.5000  14.7500 Du        
  35386 ****        18.0000  13.5000  15.0000 Du        
  35387 ****        18.0000  13.5000  15.2500 Du        
  35388 ****        18.0000  13.5000  15.5000 Du        
  35389 ****        18.0000  13.5000  15.7500 Du        
  35390 ****        18.0000  13.5000  16.0000 Du        
  35391 ****        18.0000  13.5000  16.2500 Du        
  35392 ****        18.0000  13.5000  38.5000 Du        
  35393 ****        18.0000  13.5000  38.7500 Du        
  35394 ****        18.0000  13.7500  14.5000 Du        
  35395 ****        18.0000  13.7500  14.7500 Du        
  35396 ****        18.0000  13.7500  15.0000 Du        
  35397 ****        18.0000  13.7500  15.2500 Du        
  35398 ****        18.0000  13.7500  15.5000 Du        
  35399 ****        18.0000  13.7500  15.7500 Du        
  35400 ****        18.0000  13.7500  16.0000 Du        
  35401 ****        18.0000  13.7500  16.2500 Du        
  35402 ****        18.0000  13.7500  38.5000 Du        
  35403 ****        18.0000  13.7500  38.7500 Du        
  35404 ****        18.0000  13.7500  39.0000 Du        
  35405 ****        18.0000  14.0000  14.2500 Du        
  35406 ****        18.0000  14.0000  14.5000 Du        
  35407 ****        18.0000  14.0000  14.7500 Du        
  35408 ****        18.0000  14.0000  15.0000 Du        
  35409 ****        18.0000  14.0000  15.2500 Du        
  35410 ****        18.0000  14.0000  15.5000 Du        
  35411 ****        18.0000  14.0000  15.7500 Du        
  35412 ****        18.0000  14.0000  16.0000 Du        
  35413 ****        18.0000  14.0000  16.2500 Du        
  35414 ****        18.0000  14.0000  38.7500 Du        
  35415 ****        18.0000  14.0000  39.0000 Du        
  35416 ****        18.0000  14.2500  14.2500 Du        
  35417 ****        18.0000  14.2500  14.5000 Du        
  35418 ****        18.0000  14.2500  14.7500 Du        
  35419 ****        18.0000  14.2500  15.0000 Du        
  35420 ****        18.0000  14.2500  15.2500 Du        
  35421 ****        18.0000  14.2500  15.5000 Du        
  35422 ****        18.0000  14.2500  15.7500 Du        
  35423 ****        18.0000  14.2500  16.0000 Du        
  35424 ****        18.0000  14.2500  33.2500 Du        
  35425 ****        18.0000  14.2500  39.0000 Du        
  35426 ****        18.0000  14.5000  14.2500 Du        
  35427 ****        18.0000  14.5000  14.5000 Du        
  35428 ****        18.0000  14.5000  14.7500 Du        
  35429 ****        18.0000  14.5000  15.0000 Du        
  35430 ****        18.0000  14.5000  15.2500 Du        
  35431 ****        18.0000  14.5000  15.5000 Du        
  35432 ****        18.0000  14.5000  15.7500 Du        
  35433 ****        18.0000  14.5000  16.0000 Du        
  35434 ****        18.0000  14.5000  32.7500 Du        
  35435 ****        18.0000  14.5000  33.0000 Du        
  35436 ****        18.0000  14.5000  33.2500 Du        
  35437 ****        18.0000  14.7500  14.2500 Du        
  35438 ****        18.0000  14.7500  14.5000 Du        
  35439 ****        18.0000  14.7500  14.7500 Du        
  35440 ****        18.0000  14.7500  15.0000 Du        
  35441 ****        18.0000  14.7500  15.2500 Du        
  35442 ****        18.0000  14.7500  15.5000 Du        
  35443 ****        18.0000  14.7500  15.7500 Du        
  35444 ****        18.0000  14.7500  32.2500 Du        
  35445 ****        18.0000  14.7500  32.5000 Du        
  35446 ****        18.0000  14.7500  32.7500 Du        
  35447 ****        18.0000  14.7500  33.0000 Du        
  35448 ****        18.0000  14.7500  33.2500 Du        
  35449 ****        18.0000  15.0000  14.2500 Du        
  35450 ****        18.0000  15.0000  14.5000 Du        
  35451 ****        18.0000  15.0000  14.7500 Du        
  35452 ****        18.0000  15.0000  15.0000 Du        
  35453 ****        18.0000  15.0000  15.2500 Du        
  35454 ****        18.0000  15.0000  15.5000 Du        
  35455 ****        18.0000  15.0000  32.2500 Du        
  35456 ****        18.0000  15.0000  32.5000 Du        
  35457 ****        18.0000  15.0000  32.7500 Du        
  35458 ****        18.0000  15.0000  33.0000 Du        
  35459 ****        18.0000  15.0000  33.2500 Du        
  35460 ****        18.0000  15.2500  14.2500 Du        
  35461 ****        18.0000  15.2500  14.5000 Du        
  35462 ****        18.0000  15.2500  14.7500 Du        
  35463 ****        18.0000  15.2500  15.0000 Du        
  35464 ****        18.0000  15.2500  15.2500 Du        
  35465 ****        18.0000  15.2500  32.2500 Du        
  35466 ****        18.0000  15.2500  32.5000 Du        
  35467 ****        18.0000  15.2500  32.7500 Du        
  35468 ****        18.0000  15.2500  33.0000 Du        
  35469 ****        18.0000  15.2500  33.2500 Du        
  35470 ****        18.0000  15.5000  14.2500 Du        
  35471 ****        18.0000  15.5000  14.5000 Du        
  35472 ****        18.0000  15.5000  14.7500 Du        
  35473 ****        18.0000  15.5000  32.0000 Du        
  35474 ****        18.0000  15.5000  32.2500 Du        
  35475 ****        18.0000  15.5000  32.5000 Du        
  35476 ****        18.0000  15.5000  32.7500 Du        
  35477 ****        18.0000  15.5000  33.0000 Du        
  35478 ****        18.0000  15.5000  33.2500 Du        
  35479 ****        18.0000  15.7500  14.2500 Du        
  35480 ****        18.0000  15.7500  14.5000 Du        
  35481 ****        18.0000  15.7500  32.0000 Du        
  35482 ****        18.0000  15.7500  32.2500 Du        
  35483 ****        18.0000  15.7500  32.5000 Du        
  35484 ****        18.0000  15.7500  32.7500 Du        
  35485 ****        18.0000  15.7500  33.0000 Du        
  35486 ****        18.0000  15.7500  33.2500 Du        
  35487 ****        18.0000  16.0000  14.0000 Du        
  35488 ****        18.0000  16.0000  14.2500 Du        
  35489 ****        18.0000  16.0000  32.0000 Du        
  35490 ****        18.0000  16.0000  32.2500 Du        
  35491 ****        18.0000  16.0000  32.5000 Du        
  35492 ****        18.0000  16.0000  32.7500 Du        
  35493 ****        18.0000  16.0000  33.0000 Du        
  35494 ****        18.0000  16.0000  33.2500 Du        
  35495 ****        18.0000  16.2500  13.7500 Du        
  35496 ****        18.0000  16.2500  14.0000 Du        
  35497 ****        18.0000  16.2500  32.0000 Du        
  35498 ****        18.0000  16.2500  32.2500 Du        
  35499 ****        18.0000  16.2500  32.5000 Du        
  35500 ****        18.0000  16.2500  32.7500 Du        
  35501 ****        18.0000  16.2500  33.0000 Du        
  35502 ****        18.0000  16.2500  33.2500 Du        
  35503 ****        18.0000  16.5000  13.7500 Du        
  35504 ****        18.0000  16.5000  32.0000 Du        
  35505 ****        18.0000  16.5000  32.2500 Du        
  35506 ****        18.0000  16.5000  32.5000 Du        
  35507 ****        18.0000  16.5000  32.7500 Du        
  35508 ****        18.0000  16.5000  33.0000 Du        
  35509 ****        18.0000  16.5000  33.2500 Du        
  35510 ****        18.0000  16.7500  13.0000 Du        
  35511 ****        18.0000  16.7500  13.2500 Du        
  35512 ****        18.0000  16.7500  13.5000 Du        
  35513 ****        18.0000  16.7500  13.7500 Du        
  35514 ****        18.0000  16.7500  32.2500 Du        
  35515 ****        18.0000  16.7500  32.5000 Du        
  35516 ****        18.0000  16.7500  32.7500 Du        
  35517 ****        18.0000  16.7500  33.0000 Du        
  35518 ****        18.0000  16.7500  33.2500 Du        
  35519 ****        18.0000  17.0000  12.2500 Du        
  35520 ****        18.0000  17.0000  12.5000 Du        
  35521 ****        18.0000  17.0000  12.7500 Du        
  35522 ****        18.0000  17.0000  13.0000 Du        
  35523 ****        18.0000  17.0000  13.2500 Du        
  35524 ****        18.0000  17.0000  13.5000 Du        
  35525 ****        18.0000  17.0000  32.7500 Du        
  35526 ****        18.0000  17.0000  33.0000 Du        
  35527 ****        18.0000  17.0000  33.2500 Du        
  35528 ****        18.0000  17.2500  11.5000 Du        
  35529 ****        18.0000  17.2500  11.7500 Du        
  35530 ****        18.0000  17.2500  12.0000 Du        
  35531 ****        18.0000  17.2500  12.2500 Du        
  35532 ****        18.0000  17.2500  12.5000 Du        
  35533 ****        18.0000  17.2500  12.7500 Du        
  35534 ****        18.0000  17.2500  13.0000 Du        
  35535 ****        18.0000  17.2500  33.2500 Du        
  35536 ****        18.0000  17.5000  11.5000 Du        
  35537 ****        18.0000  17.5000  11.7500 Du        
  35538 ****        18.0000  17.5000  12.0000 Du        
  35539 ****        18.0000  17.5000  12.2500 Du        
  35540 ****        18.0000  17.5000  12.5000 Du        
  35541 ****        18.0000  17.7500  11.5000 Du        
  35542 ****        18.0000  17.7500  11.7500 Du        
  35543 ****        18.0000  17.7500  12.0000 Du        
  35544 ****        18.0000  20.7500  36.2500 Du        
  35545 ****        18.2500  -2.7500  28.0000 Du        
  35546 ****        18.2500   1.2500  29.7500 Du        
  35547 ****        18.2500   1.5000  21.5000 Du        
  35548 ****        18.2500   1.5000  21.7500 Du        
  35549 ****        18.2500   1.5000  22.0000 Du        
  35550 ****        18.2500   1.5000  22.2500 Du        
  35551 ****        18.2500   1.5000  22.5000 Du        
  35552 ****        18.2500   1.5000  22.7500 Du        
  35553 ****        18.2500   1.5000  23.0000 Du        
  35554 ****        18.2500   1.5000  23.2500 Du        
  35555 ****        18.2500   1.5000  23.5000 Du        
  35556 ****        18.2500   1.7500  21.5000 Du        
  35557 ****        18.2500   1.7500  21.7500 Du        
  35558 ****        18.2500   1.7500  22.0000 Du        
  35559 ****        18.2500   1.7500  22.2500 Du        
  35560 ****        18.2500   1.7500  22.5000 Du        
  35561 ****        18.2500   1.7500  22.7500 Du        
  35562 ****        18.2500   1.7500  23.0000 Du        
  35563 ****        18.2500   1.7500  23.2500 Du        
  35564 ****        18.2500   1.7500  23.5000 Du        
  35565 ****        18.2500   1.7500  23.7500 Du        
  35566 ****        18.2500   1.7500  29.5000 Du        
  35567 ****        18.2500   1.7500  29.7500 Du        
  35568 ****        18.2500   1.7500  30.0000 Du        
  35569 ****        18.2500   2.0000  21.7500 Du        
  35570 ****        18.2500   2.0000  22.0000 Du        
  35571 ****        18.2500   2.0000  22.2500 Du        
  35572 ****        18.2500   2.0000  22.5000 Du        
  35573 ****        18.2500   2.0000  22.7500 Du        
  35574 ****        18.2500   2.0000  23.0000 Du        
  35575 ****        18.2500   2.0000  23.2500 Du        
  35576 ****        18.2500   2.0000  23.5000 Du        
  35577 ****        18.2500   2.0000  23.7500 Du        
  35578 ****        18.2500   2.0000  24.0000 Du        
  35579 ****        18.2500   2.0000  29.2500 Du        
  35580 ****        18.2500   2.0000  29.7500 Du        
  35581 ****        18.2500   2.0000  30.0000 Du        
  35582 ****        18.2500   2.2500  21.7500 Du        
  35583 ****        18.2500   2.2500  22.0000 Du        
  35584 ****        18.2500   2.2500  22.2500 Du        
  35585 ****        18.2500   2.2500  22.5000 Du        
  35586 ****        18.2500   2.2500  22.7500 Du        
  35587 ****        18.2500   2.2500  23.0000 Du        
  35588 ****        18.2500   2.2500  23.2500 Du        
  35589 ****        18.2500   2.2500  23.5000 Du        
  35590 ****        18.2500   2.2500  23.7500 Du        
  35591 ****        18.2500   2.2500  24.0000 Du        
  35592 ****        18.2500   2.2500  29.7500 Du        
  35593 ****        18.2500   2.2500  30.0000 Du        
  35594 ****        18.2500   2.5000  22.0000 Du        
  35595 ****        18.2500   2.5000  22.2500 Du        
  35596 ****        18.2500   2.5000  22.5000 Du        
  35597 ****        18.2500   2.5000  22.7500 Du        
  35598 ****        18.2500   2.5000  23.0000 Du        
  35599 ****        18.2500   2.5000  23.2500 Du        
  35600 ****        18.2500   2.5000  23.5000 Du        
  35601 ****        18.2500   2.5000  23.7500 Du        
  35602 ****        18.2500   2.5000  24.0000 Du        
  35603 ****        18.2500   2.7500  22.2500 Du        
  35604 ****        18.2500   2.7500  22.5000 Du        
  35605 ****        18.2500   2.7500  22.7500 Du        
  35606 ****        18.2500   2.7500  23.0000 Du        
  35607 ****        18.2500   2.7500  23.2500 Du        
  35608 ****        18.2500   2.7500  23.5000 Du        
  35609 ****        18.2500   2.7500  23.7500 Du        
  35610 ****        18.2500   2.7500  24.0000 Du        
  35611 ****        18.2500   2.7500  30.2500 Du        
  35612 ****        18.2500   3.0000  22.7500 Du        
  35613 ****        18.2500   3.0000  23.0000 Du        
  35614 ****        18.2500   3.0000  23.2500 Du        
  35615 ****        18.2500   3.0000  23.5000 Du        
  35616 ****        18.2500   3.0000  23.7500 Du        
  35617 ****        18.2500   3.0000  24.0000 Du        
  35618 ****        18.2500   3.0000  24.2500 Du        
  35619 ****        18.2500   3.0000  30.2500 Du        
  35620 ****        18.2500   3.2500  23.0000 Du        
  35621 ****        18.2500   3.2500  23.2500 Du        
  35622 ****        18.2500   3.2500  23.5000 Du        
  35623 ****        18.2500   3.2500  23.7500 Du        
  35624 ****        18.2500   3.2500  24.0000 Du        
  35625 ****        18.2500   3.2500  24.2500 Du        
  35626 ****        18.2500   3.2500  30.0000 Du        
  35627 ****        18.2500   3.2500  30.2500 Du        
  35628 ****        18.2500   3.5000  23.2500 Du        
  35629 ****        18.2500   3.5000  23.5000 Du        
  35630 ****        18.2500   3.5000  23.7500 Du        
  35631 ****        18.2500   3.5000  24.0000 Du        
  35632 ****        18.2500   3.5000  24.2500 Du        
  35633 ****        18.2500   3.5000  24.5000 Du        
  35634 ****        18.2500   3.5000  30.2500 Du        
  35635 ****        18.2500   3.7500  23.5000 Du        
  35636 ****        18.2500   3.7500  23.7500 Du        
  35637 ****        18.2500   3.7500  24.0000 Du        
  35638 ****        18.2500   3.7500  24.2500 Du        
  35639 ****        18.2500   3.7500  24.5000 Du        
  35640 ****        18.2500   3.7500  30.0000 Du        
  35641 ****        18.2500   4.0000   2.7500 Du        
  35642 ****        18.2500   4.0000   3.0000 Du        
  35643 ****        18.2500   4.0000   3.2500 Du        
  35644 ****        18.2500   4.0000   3.5000 Du        
  35645 ****        18.2500   4.0000   3.7500 Du        
  35646 ****        18.2500   4.0000  23.7500 Du        
  35647 ****        18.2500   4.0000  24.0000 Du        
  35648 ****        18.2500   4.0000  24.2500 Du        
  35649 ****        18.2500   4.0000  24.5000 Du        
  35650 ****        18.2500   4.0000  24.7500 Du        
  35651 ****        18.2500   4.0000  29.7500 Du        
  35652 ****        18.2500   4.0000  30.2500 Du        
  35653 ****        18.2500   4.0000  30.5000 Du        
  35654 ****        18.2500   4.0000  30.7500 Du        
  35655 ****        18.2500   4.2500   2.7500 Du        
  35656 ****        18.2500   4.2500   3.0000 Du        
  35657 ****        18.2500   4.2500   3.2500 Du        
  35658 ****        18.2500   4.2500   3.5000 Du        
  35659 ****        18.2500   4.2500   3.7500 Du        
  35660 ****        18.2500   4.2500   4.0000 Du        
  35661 ****        18.2500   4.2500  24.0000 Du        
  35662 ****        18.2500   4.2500  24.2500 Du        
  35663 ****        18.2500   4.2500  24.5000 Du        
  35664 ****        18.2500   4.2500  24.7500 Du        
  35665 ****        18.2500   4.2500  25.0000 Du        
  35666 ****        18.2500   4.2500  30.5000 Du        
  35667 ****        18.2500   4.2500  30.7500 Du        
  35668 ****        18.2500   4.5000   2.7500 Du        
  35669 ****        18.2500   4.5000   3.0000 Du        
  35670 ****        18.2500   4.5000   3.2500 Du        
  35671 ****        18.2500   4.5000   3.5000 Du        
  35672 ****        18.2500   4.5000   3.7500 Du        
  35673 ****        18.2500   4.5000  24.2500 Du        
  35674 ****        18.2500   4.5000  24.5000 Du        
  35675 ****        18.2500   4.5000  24.7500 Du        
  35676 ****        18.2500   4.5000  25.0000 Du        
  35677 ****        18.2500   4.5000  25.2500 Du        
  35678 ****        18.2500   4.5000  30.7500 Du        
  35679 ****        18.2500   4.7500   2.7500 Du        
  35680 ****        18.2500   4.7500   3.0000 Du        
  35681 ****        18.2500   4.7500   3.2500 Du        
  35682 ****        18.2500   4.7500   3.5000 Du        
  35683 ****        18.2500   4.7500  24.7500 Du        
  35684 ****        18.2500   4.7500  25.0000 Du        
  35685 ****        18.2500   4.7500  25.2500 Du        
  35686 ****        18.2500   4.7500  25.5000 Du        
  35687 ****        18.2500   4.7500  25.7500 Du        
  35688 ****        18.2500   4.7500  26.0000 Du        
  35689 ****        18.2500   4.7500  30.7500 Du        
  35690 ****        18.2500   5.0000   2.5000 Du        
  35691 ****        18.2500   5.0000   2.7500 Du        
  35692 ****        18.2500   5.0000   3.0000 Du        
  35693 ****        18.2500   5.0000   3.2500 Du        
  35694 ****        18.2500   5.0000   3.5000 Du        
  35695 ****        18.2500   5.0000  25.0000 Du        
  35696 ****        18.2500   5.0000  25.2500 Du        
  35697 ****        18.2500   5.0000  25.5000 Du        
  35698 ****        18.2500   5.0000  25.7500 Du        
  35699 ****        18.2500   5.0000  26.0000 Du        
  35700 ****        18.2500   5.0000  26.2500 Du        
  35701 ****        18.2500   5.0000  26.5000 Du        
  35702 ****        18.2500   5.0000  30.7500 Du        
  35703 ****        18.2500   5.2500   2.5000 Du        
  35704 ****        18.2500   5.2500   2.7500 Du        
  35705 ****        18.2500   5.2500   3.0000 Du        
  35706 ****        18.2500   5.2500   3.2500 Du        
  35707 ****        18.2500   5.2500   3.5000 Du        
  35708 ****        18.2500   5.2500  25.2500 Du        
  35709 ****        18.2500   5.2500  25.5000 Du        
  35710 ****        18.2500   5.2500  25.7500 Du        
  35711 ****        18.2500   5.2500  26.0000 Du        
  35712 ****        18.2500   5.2500  26.2500 Du        
  35713 ****        18.2500   5.2500  26.5000 Du        
  35714 ****        18.2500   5.2500  26.7500 Du        
  35715 ****        18.2500   5.2500  30.7500 Du        
  35716 ****        18.2500   5.5000   2.5000 Du        
  35717 ****        18.2500   5.5000   2.7500 Du        
  35718 ****        18.2500   5.5000   3.0000 Du        
  35719 ****        18.2500   5.5000   3.2500 Du        
  35720 ****        18.2500   5.5000  25.5000 Du        
  35721 ****        18.2500   5.5000  25.7500 Du        
  35722 ****        18.2500   5.5000  26.0000 Du        
  35723 ****        18.2500   5.5000  26.2500 Du        
  35724 ****        18.2500   5.5000  26.5000 Du        
  35725 ****        18.2500   5.5000  26.7500 Du        
  35726 ****        18.2500   5.7500   2.2500 Du        
  35727 ****        18.2500   5.7500   2.5000 Du        
  35728 ****        18.2500   5.7500   2.7500 Du        
  35729 ****        18.2500   5.7500   3.0000 Du        
  35730 ****        18.2500   5.7500   3.2500 Du        
  35731 ****        18.2500   5.7500   3.5000 Du        
  35732 ****        18.2500   5.7500  25.7500 Du        
  35733 ****        18.2500   5.7500  26.0000 Du        
  35734 ****        18.2500   5.7500  26.2500 Du        
  35735 ****        18.2500   5.7500  26.5000 Du        
  35736 ****        18.2500   5.7500  26.7500 Du        
  35737 ****        18.2500   6.0000   2.5000 Du        
  35738 ****        18.2500   6.0000   2.7500 Du        
  35739 ****        18.2500   6.0000   3.0000 Du        
  35740 ****        18.2500   6.0000   3.2500 Du        
  35741 ****        18.2500   6.0000   3.5000 Du        
  35742 ****        18.2500   6.0000  26.0000 Du        
  35743 ****        18.2500   6.0000  26.2500 Du        
  35744 ****        18.2500   6.0000  26.5000 Du        
  35745 ****        18.2500   6.0000  26.7500 Du        
  35746 ****        18.2500   6.0000  27.0000 Du        
  35747 ****        18.2500   6.2500   2.5000 Du        
  35748 ****        18.2500   6.2500   2.7500 Du        
  35749 ****        18.2500   6.2500   3.0000 Du        
  35750 ****        18.2500   6.2500   3.2500 Du        
  35751 ****        18.2500   6.2500   3.5000 Du        
  35752 ****        18.2500   6.2500  26.0000 Du        
  35753 ****        18.2500   6.2500  26.2500 Du        
  35754 ****        18.2500   6.2500  26.5000 Du        
  35755 ****        18.2500   6.2500  26.7500 Du        
  35756 ****        18.2500   6.2500  27.0000 Du        
  35757 ****        18.2500   6.5000   2.5000 Du        
  35758 ****        18.2500   6.5000   2.7500 Du        
  35759 ****        18.2500   6.5000   3.0000 Du        
  35760 ****        18.2500   6.5000   3.2500 Du        
  35761 ****        18.2500   6.5000   3.5000 Du        
  35762 ****        18.2500   6.5000  26.2500 Du        
  35763 ****        18.2500   6.5000  26.5000 Du        
  35764 ****        18.2500   6.5000  26.7500 Du        
  35765 ****        18.2500   6.5000  27.0000 Du        
  35766 ****        18.2500   6.5000  27.2500 Du        
  35767 ****        18.2500   6.7500   2.5000 Du        
  35768 ****        18.2500   6.7500   2.7500 Du        
  35769 ****        18.2500   6.7500   3.0000 Du        
  35770 ****        18.2500   6.7500   3.2500 Du        
  35771 ****        18.2500   6.7500   3.5000 Du        
  35772 ****        18.2500   6.7500  26.5000 Du        
  35773 ****        18.2500   6.7500  26.7500 Du        
  35774 ****        18.2500   6.7500  27.0000 Du        
  35775 ****        18.2500   7.0000   2.5000 Du        
  35776 ****        18.2500   7.0000   2.7500 Du        
  35777 ****        18.2500   7.0000   3.0000 Du        
  35778 ****        18.2500   7.0000   3.2500 Du        
  35779 ****        18.2500   7.0000   3.5000 Du        
  35780 ****        18.2500   7.2500   3.0000 Du        
  35781 ****        18.2500   7.2500   3.2500 Du        
  35782 ****        18.2500   7.2500   3.5000 Du        
  35783 ****        18.2500  12.2500  38.0000 Du        
  35784 ****        18.2500  13.0000  38.5000 Du        
  35785 ****        18.2500  13.2500  14.7500 Du        
  35786 ****        18.2500  13.2500  15.0000 Du        
  35787 ****        18.2500  13.2500  15.2500 Du        
  35788 ****        18.2500  13.2500  15.5000 Du        
  35789 ****        18.2500  13.2500  15.7500 Du        
  35790 ****        18.2500  13.2500  16.0000 Du        
  35791 ****        18.2500  13.2500  38.5000 Du        
  35792 ****        18.2500  13.5000  14.5000 Du        
  35793 ****        18.2500  13.5000  14.7500 Du        
  35794 ****        18.2500  13.5000  15.0000 Du        
  35795 ****        18.2500  13.5000  15.2500 Du        
  35796 ****        18.2500  13.5000  15.5000 Du        
  35797 ****        18.2500  13.5000  15.7500 Du        
  35798 ****        18.2500  13.5000  16.0000 Du        
  35799 ****        18.2500  13.5000  16.2500 Du        
  35800 ****        18.2500  13.5000  38.5000 Du        
  35801 ****        18.2500  13.5000  38.7500 Du        
  35802 ****        18.2500  13.7500  14.5000 Du        
  35803 ****        18.2500  13.7500  14.7500 Du        
  35804 ****        18.2500  13.7500  15.0000 Du        
  35805 ****        18.2500  13.7500  15.2500 Du        
  35806 ****        18.2500  13.7500  15.5000 Du        
  35807 ****        18.2500  13.7500  15.7500 Du        
  35808 ****        18.2500  13.7500  16.0000 Du        
  35809 ****        18.2500  13.7500  16.2500 Du        
  35810 ****        18.2500  13.7500  38.7500 Du        
  35811 ****        18.2500  14.0000  14.5000 Du        
  35812 ****        18.2500  14.0000  14.7500 Du        
  35813 ****        18.2500  14.0000  15.0000 Du        
  35814 ****        18.2500  14.0000  15.2500 Du        
  35815 ****        18.2500  14.0000  15.5000 Du        
  35816 ****        18.2500  14.0000  15.7500 Du        
  35817 ****        18.2500  14.0000  16.0000 Du        
  35818 ****        18.2500  14.0000  16.2500 Du        
  35819 ****        18.2500  14.0000  38.7500 Du        
  35820 ****        18.2500  14.0000  39.0000 Du        
  35821 ****        18.2500  14.2500  14.5000 Du        
  35822 ****        18.2500  14.2500  14.7500 Du        
  35823 ****        18.2500  14.2500  15.0000 Du        
  35824 ****        18.2500  14.2500  15.2500 Du        
  35825 ****        18.2500  14.2500  15.5000 Du        
  35826 ****        18.2500  14.2500  15.7500 Du        
  35827 ****        18.2500  14.2500  16.0000 Du        
  35828 ****        18.2500  14.2500  39.0000 Du        
  35829 ****        18.2500  14.5000  14.5000 Du        
  35830 ****        18.2500  14.5000  14.7500 Du        
  35831 ****        18.2500  14.5000  15.0000 Du        
  35832 ****        18.2500  14.5000  15.2500 Du        
  35833 ****        18.2500  14.5000  15.5000 Du        
  35834 ****        18.2500  14.5000  15.7500 Du        
  35835 ****        18.2500  14.5000  16.0000 Du        
  35836 ****        18.2500  14.5000  32.7500 Du        
  35837 ****        18.2500  14.5000  33.0000 Du        
  35838 ****        18.2500  14.5000  33.2500 Du        
  35839 ****        18.2500  14.7500  14.5000 Du        
  35840 ****        18.2500  14.7500  14.7500 Du        
  35841 ****        18.2500  14.7500  15.0000 Du        
  35842 ****        18.2500  14.7500  15.2500 Du        
  35843 ****        18.2500  14.7500  15.5000 Du        
  35844 ****        18.2500  14.7500  15.7500 Du        
  35845 ****        18.2500  14.7500  32.2500 Du        
  35846 ****        18.2500  14.7500  32.5000 Du        
  35847 ****        18.2500  14.7500  32.7500 Du        
  35848 ****        18.2500  14.7500  33.0000 Du        
  35849 ****        18.2500  14.7500  33.2500 Du        
  35850 ****        18.2500  15.0000  14.5000 Du        
  35851 ****        18.2500  15.0000  14.7500 Du        
  35852 ****        18.2500  15.0000  15.0000 Du        
  35853 ****        18.2500  15.0000  15.2500 Du        
  35854 ****        18.2500  15.0000  15.5000 Du        
  35855 ****        18.2500  15.0000  32.2500 Du        
  35856 ****        18.2500  15.0000  32.5000 Du        
  35857 ****        18.2500  15.0000  32.7500 Du        
  35858 ****        18.2500  15.0000  33.0000 Du        
  35859 ****        18.2500  15.0000  33.2500 Du        
  35860 ****        18.2500  15.2500  14.2500 Du        
  35861 ****        18.2500  15.2500  14.5000 Du        
  35862 ****        18.2500  15.2500  14.7500 Du        
  35863 ****        18.2500  15.2500  15.0000 Du        
  35864 ****        18.2500  15.2500  32.2500 Du        
  35865 ****        18.2500  15.2500  32.5000 Du        
  35866 ****        18.2500  15.2500  32.7500 Du        
  35867 ****        18.2500  15.2500  33.0000 Du        
  35868 ****        18.2500  15.2500  33.2500 Du        
  35869 ****        18.2500  15.5000  14.5000 Du        
  35870 ****        18.2500  15.5000  32.0000 Du        
  35871 ****        18.2500  15.5000  32.2500 Du        
  35872 ****        18.2500  15.5000  32.5000 Du        
  35873 ****        18.2500  15.5000  32.7500 Du        
  35874 ****        18.2500  15.5000  33.0000 Du        
  35875 ****        18.2500  15.5000  33.2500 Du        
  35876 ****        18.2500  15.7500  32.0000 Du        
  35877 ****        18.2500  15.7500  32.2500 Du        
  35878 ****        18.2500  15.7500  32.5000 Du        
  35879 ****        18.2500  15.7500  32.7500 Du        
  35880 ****        18.2500  15.7500  33.0000 Du        
  35881 ****        18.2500  15.7500  33.2500 Du        
  35882 ****        18.2500  16.0000  32.0000 Du        
  35883 ****        18.2500  16.0000  32.2500 Du        
  35884 ****        18.2500  16.0000  32.5000 Du        
  35885 ****        18.2500  16.0000  32.7500 Du        
  35886 ****        18.2500  16.0000  33.0000 Du        
  35887 ****        18.2500  16.0000  33.2500 Du        
  35888 ****        18.2500  16.2500  32.0000 Du        
  35889 ****        18.2500  16.2500  32.2500 Du        
  35890 ****        18.2500  16.2500  32.5000 Du        
  35891 ****        18.2500  16.2500  32.7500 Du        
  35892 ****        18.2500  16.2500  33.0000 Du        
  35893 ****        18.2500  16.2500  33.2500 Du        
  35894 ****        18.2500  16.5000  13.7500 Du        
  35895 ****        18.2500  16.5000  32.2500 Du        
  35896 ****        18.2500  16.5000  32.5000 Du        
  35897 ****        18.2500  16.5000  32.7500 Du        
  35898 ****        18.2500  16.5000  33.0000 Du        
  35899 ****        18.2500  16.5000  33.2500 Du        
  35900 ****        18.2500  16.7500  13.2500 Du        
  35901 ****        18.2500  16.7500  13.5000 Du        
  35902 ****        18.2500  16.7500  13.7500 Du        
  35903 ****        18.2500  16.7500  32.7500 Du        
  35904 ****        18.2500  16.7500  33.0000 Du        
  35905 ****        18.2500  16.7500  33.2500 Du        
  35906 ****        18.2500  17.0000  12.0000 Du        
  35907 ****        18.2500  17.0000  12.2500 Du        
  35908 ****        18.2500  17.0000  12.5000 Du        
  35909 ****        18.2500  17.0000  12.7500 Du        
  35910 ****        18.2500  17.0000  13.0000 Du        
  35911 ****        18.2500  17.0000  13.2500 Du        
  35912 ****        18.2500  17.0000  13.5000 Du        
  35913 ****        18.2500  17.2500  11.5000 Du        
  35914 ****        18.2500  17.2500  11.7500 Du        
  35915 ****        18.2500  17.2500  12.0000 Du        
  35916 ****        18.2500  17.2500  12.2500 Du        
  35917 ****        18.2500  17.2500  12.5000 Du        
  35918 ****        18.2500  17.2500  12.7500 Du        
  35919 ****        18.2500  17.2500  13.0000 Du        
  35920 ****        18.2500  17.2500  13.2500 Du        
  35921 ****        18.2500  17.5000  11.5000 Du        
  35922 ****        18.2500  17.5000  11.7500 Du        
  35923 ****        18.2500  17.5000  12.0000 Du        
  35924 ****        18.2500  17.5000  12.2500 Du        
  35925 ****        18.2500  17.5000  12.5000 Du        
  35926 ****        18.2500  17.5000  12.7500 Du        
  35927 ****        18.2500  17.5000  13.0000 Du        
  35928 ****        18.2500  17.7500  11.5000 Du        
  35929 ****        18.2500  17.7500  11.7500 Du        
  35930 ****        18.2500  17.7500  12.0000 Du        
  35931 ****        18.2500  17.7500  12.2500 Du        
  35932 ****        18.2500  17.7500  12.5000 Du        
  35933 ****        18.2500  18.0000  11.7500 Du        
  35934 ****        18.2500  18.0000  12.0000 Du        
  35935 ****        18.2500  18.0000  12.2500 Du        
  35936 ****        18.2500  18.2500  11.7500 Du        
  35937 ****        18.2500  20.7500  36.2500 Du        
  35938 ****        18.5000   1.5000  21.7500 Du        
  35939 ****        18.5000   1.5000  22.0000 Du        
  35940 ****        18.5000   1.5000  22.2500 Du        
  35941 ****        18.5000   1.5000  22.5000 Du        
  35942 ****        18.5000   1.5000  22.7500 Du        
  35943 ****        18.5000   1.7500  22.0000 Du        
  35944 ****        18.5000   1.7500  22.2500 Du        
  35945 ****        18.5000   1.7500  22.5000 Du        
  35946 ****        18.5000   1.7500  22.7500 Du        
  35947 ****        18.5000   1.7500  23.0000 Du        
  35948 ****        18.5000   1.7500  23.2500 Du        
  35949 ****        18.5000   1.7500  23.5000 Du        
  35950 ****        18.5000   1.7500  23.7500 Du        
  35951 ****        18.5000   2.0000  22.0000 Du        
  35952 ****        18.5000   2.0000  22.2500 Du        
  35953 ****        18.5000   2.0000  22.5000 Du        
  35954 ****        18.5000   2.0000  22.7500 Du        
  35955 ****        18.5000   2.0000  23.0000 Du        
  35956 ****        18.5000   2.0000  23.2500 Du        
  35957 ****        18.5000   2.0000  23.5000 Du        
  35958 ****        18.5000   2.0000  23.7500 Du        
  35959 ****        18.5000   2.2500  22.2500 Du        
  35960 ****        18.5000   2.2500  22.5000 Du        
  35961 ****        18.5000   2.2500  22.7500 Du        
  35962 ****        18.5000   2.2500  23.0000 Du        
  35963 ****        18.5000   2.2500  23.2500 Du        
  35964 ****        18.5000   2.2500  23.5000 Du        
  35965 ****        18.5000   2.2500  23.7500 Du        
  35966 ****        18.5000   2.2500  24.0000 Du        
  35967 ****        18.5000   2.5000  22.2500 Du        
  35968 ****        18.5000   2.5000  22.5000 Du        
  35969 ****        18.5000   2.5000  22.7500 Du        
  35970 ****        18.5000   2.5000  23.0000 Du        
  35971 ****        18.5000   2.5000  23.2500 Du        
  35972 ****        18.5000   2.5000  23.5000 Du        
  35973 ****        18.5000   2.5000  23.7500 Du        
  35974 ****        18.5000   2.5000  24.0000 Du        
  35975 ****        18.5000   2.5000  24.2500 Du        
  35976 ****        18.5000   2.7500  22.5000 Du        
  35977 ****        18.5000   2.7500  22.7500 Du        
  35978 ****        18.5000   2.7500  23.0000 Du        
  35979 ****        18.5000   2.7500  23.2500 Du        
  35980 ****        18.5000   2.7500  23.5000 Du        
  35981 ****        18.5000   2.7500  23.7500 Du        
  35982 ****        18.5000   2.7500  24.0000 Du        
  35983 ****        18.5000   2.7500  24.2500 Du        
  35984 ****        18.5000   3.0000  23.0000 Du        
  35985 ****        18.5000   3.0000  23.2500 Du        
  35986 ****        18.5000   3.0000  23.5000 Du        
  35987 ****        18.5000   3.0000  23.7500 Du        
  35988 ****        18.5000   3.0000  24.0000 Du        
  35989 ****        18.5000   3.0000  24.2500 Du        
  35990 ****        18.5000   3.2500  23.2500 Du        
  35991 ****        18.5000   3.2500  23.5000 Du        
  35992 ****        18.5000   3.2500  23.7500 Du        
  35993 ****        18.5000   3.2500  24.0000 Du        
  35994 ****        18.5000   3.2500  24.2500 Du        
  35995 ****        18.5000   3.2500  24.5000 Du        
  35996 ****        18.5000   3.5000  23.5000 Du        
  35997 ****        18.5000   3.5000  23.7500 Du        
  35998 ****        18.5000   3.5000  24.0000 Du        
  35999 ****        18.5000   3.5000  24.2500 Du        
  36000 ****        18.5000   3.5000  24.5000 Du        
  36001 ****        18.5000   3.7500   2.7500 Du        
  36002 ****        18.5000   3.7500  23.5000 Du        
  36003 ****        18.5000   3.7500  23.7500 Du        
  36004 ****        18.5000   3.7500  24.0000 Du        
  36005 ****        18.5000   3.7500  24.2500 Du        
  36006 ****        18.5000   3.7500  24.5000 Du        
  36007 ****        18.5000   3.7500  24.7500 Du        
  36008 ****        18.5000   4.0000   2.2500 Du        
  36009 ****        18.5000   4.0000   2.5000 Du        
  36010 ****        18.5000   4.0000   2.7500 Du        
  36011 ****        18.5000   4.0000   3.0000 Du        
  36012 ****        18.5000   4.0000   3.2500 Du        
  36013 ****        18.5000   4.0000   3.5000 Du        
  36014 ****        18.5000   4.0000   3.7500 Du        
  36015 ****        18.5000   4.0000   4.0000 Du        
  36016 ****        18.5000   4.0000  23.7500 Du        
  36017 ****        18.5000   4.0000  24.0000 Du        
  36018 ****        18.5000   4.0000  24.2500 Du        
  36019 ****        18.5000   4.0000  24.5000 Du        
  36020 ****        18.5000   4.0000  24.7500 Du        
  36021 ****        18.5000   4.0000  32.5000 Du        
  36022 ****        18.5000   4.2500   2.2500 Du        
  36023 ****        18.5000   4.2500   2.7500 Du        
  36024 ****        18.5000   4.2500   3.0000 Du        
  36025 ****        18.5000   4.2500   3.2500 Du        
  36026 ****        18.5000   4.2500   3.5000 Du        
  36027 ****        18.5000   4.2500   3.7500 Du        
  36028 ****        18.5000   4.2500  24.0000 Du        
  36029 ****        18.5000   4.2500  24.2500 Du        
  36030 ****        18.5000   4.2500  24.5000 Du        
  36031 ****        18.5000   4.2500  24.7500 Du        
  36032 ****        18.5000   4.2500  25.0000 Du        
  36033 ****        18.5000   4.2500  32.5000 Du        
  36034 ****        18.5000   4.2500  32.7500 Du        
  36035 ****        18.5000   4.5000   2.2500 Du        
  36036 ****        18.5000   4.5000   2.5000 Du        
  36037 ****        18.5000   4.5000   2.7500 Du        
  36038 ****        18.5000   4.5000   3.0000 Du        
  36039 ****        18.5000   4.5000   3.2500 Du        
  36040 ****        18.5000   4.5000   3.5000 Du        
  36041 ****        18.5000   4.5000   3.7500 Du        
  36042 ****        18.5000   4.5000  24.5000 Du        
  36043 ****        18.5000   4.5000  24.7500 Du        
  36044 ****        18.5000   4.5000  25.0000 Du        
  36045 ****        18.5000   4.5000  25.2500 Du        
  36046 ****        18.5000   4.5000  32.5000 Du        
  36047 ****        18.5000   4.5000  32.7500 Du        
  36048 ****        18.5000   4.7500   2.0000 Du        
  36049 ****        18.5000   4.7500   2.2500 Du        
  36050 ****        18.5000   4.7500   2.5000 Du        
  36051 ****        18.5000   4.7500   2.7500 Du        
  36052 ****        18.5000   4.7500   3.0000 Du        
  36053 ****        18.5000   4.7500   3.2500 Du        
  36054 ****        18.5000   4.7500   3.5000 Du        
  36055 ****        18.5000   4.7500  24.7500 Du        
  36056 ****        18.5000   4.7500  25.0000 Du        
  36057 ****        18.5000   4.7500  25.2500 Du        
  36058 ****        18.5000   4.7500  25.5000 Du        
  36059 ****        18.5000   4.7500  32.5000 Du        
  36060 ****        18.5000   4.7500  32.7500 Du        
  36061 ****        18.5000   5.0000   2.0000 Du        
  36062 ****        18.5000   5.0000   2.2500 Du        
  36063 ****        18.5000   5.0000   2.5000 Du        
  36064 ****        18.5000   5.0000   2.7500 Du        
  36065 ****        18.5000   5.0000   3.0000 Du        
  36066 ****        18.5000   5.0000   3.2500 Du        
  36067 ****        18.5000   5.0000   3.5000 Du        
  36068 ****        18.5000   5.0000  25.0000 Du        
  36069 ****        18.5000   5.0000  25.2500 Du        
  36070 ****        18.5000   5.0000  25.5000 Du        
  36071 ****        18.5000   5.0000  25.7500 Du        
  36072 ****        18.5000   5.0000  26.0000 Du        
  36073 ****        18.5000   5.0000  32.5000 Du        
  36074 ****        18.5000   5.2500   2.0000 Du        
  36075 ****        18.5000   5.2500   2.2500 Du        
  36076 ****        18.5000   5.2500   2.5000 Du        
  36077 ****        18.5000   5.2500   2.7500 Du        
  36078 ****        18.5000   5.2500   3.0000 Du        
  36079 ****        18.5000   5.2500   3.2500 Du        
  36080 ****        18.5000   5.2500  25.2500 Du        
  36081 ****        18.5000   5.2500  25.5000 Du        
  36082 ****        18.5000   5.2500  25.7500 Du        
  36083 ****        18.5000   5.2500  26.0000 Du        
  36084 ****        18.5000   5.5000   1.7500 Du        
  36085 ****        18.5000   5.5000   2.0000 Du        
  36086 ****        18.5000   5.5000   2.2500 Du        
  36087 ****        18.5000   5.5000   2.5000 Du        
  36088 ****        18.5000   5.5000   2.7500 Du        
  36089 ****        18.5000   5.5000   3.0000 Du        
  36090 ****        18.5000   5.5000   3.2500 Du        
  36091 ****        18.5000   5.5000   3.5000 Du        
  36092 ****        18.5000   5.7500   1.7500 Du        
  36093 ****        18.5000   5.7500   2.0000 Du        
  36094 ****        18.5000   5.7500   2.2500 Du        
  36095 ****        18.5000   5.7500   2.5000 Du        
  36096 ****        18.5000   5.7500   2.7500 Du        
  36097 ****        18.5000   5.7500   3.0000 Du        
  36098 ****        18.5000   5.7500   3.2500 Du        
  36099 ****        18.5000   5.7500   3.5000 Du        
  36100 ****        18.5000   6.0000   2.0000 Du        
  36101 ****        18.5000   6.0000   2.2500 Du        
  36102 ****        18.5000   6.0000   2.5000 Du        
  36103 ****        18.5000   6.0000   2.7500 Du        
  36104 ****        18.5000   6.0000   3.0000 Du        
  36105 ****        18.5000   6.0000   3.2500 Du        
  36106 ****        18.5000   6.0000   3.5000 Du        
  36107 ****        18.5000   6.2500   2.0000 Du        
  36108 ****        18.5000   6.2500   2.2500 Du        
  36109 ****        18.5000   6.2500   2.5000 Du        
  36110 ****        18.5000   6.2500   2.7500 Du        
  36111 ****        18.5000   6.2500   3.0000 Du        
  36112 ****        18.5000   6.2500   3.2500 Du        
  36113 ****        18.5000   6.2500   3.5000 Du        
  36114 ****        18.5000   6.5000   2.0000 Du        
  36115 ****        18.5000   6.5000   2.2500 Du        
  36116 ****        18.5000   6.5000   2.5000 Du        
  36117 ****        18.5000   6.5000   2.7500 Du        
  36118 ****        18.5000   6.5000   3.0000 Du        
  36119 ****        18.5000   6.5000   3.2500 Du        
  36120 ****        18.5000   6.5000   3.5000 Du        
  36121 ****        18.5000   6.7500   2.0000 Du        
  36122 ****        18.5000   6.7500   2.2500 Du        
  36123 ****        18.5000   6.7500   2.5000 Du        
  36124 ****        18.5000   6.7500   2.7500 Du        
  36125 ****        18.5000   6.7500   3.0000 Du        
  36126 ****        18.5000   6.7500   3.2500 Du        
  36127 ****        18.5000   6.7500   3.5000 Du        
  36128 ****        18.5000   7.0000   2.5000 Du        
  36129 ****        18.5000   7.0000   2.7500 Du        
  36130 ****        18.5000   7.0000   3.0000 Du        
  36131 ****        18.5000   7.0000   3.2500 Du        
  36132 ****        18.5000   7.0000   3.5000 Du        
  36133 ****        18.5000  13.2500  15.0000 Du        
  36134 ****        18.5000  13.2500  15.2500 Du        
  36135 ****        18.5000  13.2500  15.5000 Du        
  36136 ****        18.5000  13.2500  15.7500 Du        
  36137 ****        18.5000  13.5000  14.7500 Du        
  36138 ****        18.5000  13.5000  15.0000 Du        
  36139 ****        18.5000  13.5000  15.2500 Du        
  36140 ****        18.5000  13.5000  15.5000 Du        
  36141 ****        18.5000  13.5000  15.7500 Du        
  36142 ****        18.5000  13.5000  16.0000 Du        
  36143 ****        18.5000  13.7500  14.5000 Du        
  36144 ****        18.5000  13.7500  14.7500 Du        
  36145 ****        18.5000  13.7500  15.0000 Du        
  36146 ****        18.5000  13.7500  15.2500 Du        
  36147 ****        18.5000  13.7500  15.5000 Du        
  36148 ****        18.5000  13.7500  15.7500 Du        
  36149 ****        18.5000  13.7500  16.0000 Du        
  36150 ****        18.5000  14.0000  14.5000 Du        
  36151 ****        18.5000  14.0000  14.7500 Du        
  36152 ****        18.5000  14.0000  15.0000 Du        
  36153 ****        18.5000  14.0000  15.2500 Du        
  36154 ****        18.5000  14.0000  15.5000 Du        
  36155 ****        18.5000  14.0000  15.7500 Du        
  36156 ****        18.5000  14.0000  16.0000 Du        
  36157 ****        18.5000  14.2500  14.5000 Du        
  36158 ****        18.5000  14.2500  14.7500 Du        
  36159 ****        18.5000  14.2500  15.0000 Du        
  36160 ****        18.5000  14.2500  15.2500 Du        
  36161 ****        18.5000  14.2500  15.5000 Du        
  36162 ****        18.5000  14.2500  15.7500 Du        
  36163 ****        18.5000  14.2500  16.0000 Du        
  36164 ****        18.5000  14.5000  14.5000 Du        
  36165 ****        18.5000  14.5000  14.7500 Du        
  36166 ****        18.5000  14.5000  15.0000 Du        
  36167 ****        18.5000  14.5000  15.2500 Du        
  36168 ****        18.5000  14.5000  15.5000 Du        
  36169 ****        18.5000  14.5000  15.7500 Du        
  36170 ****        18.5000  14.5000  16.0000 Du        
  36171 ****        18.5000  14.7500  14.5000 Du        
  36172 ****        18.5000  14.7500  14.7500 Du        
  36173 ****        18.5000  14.7500  15.0000 Du        
  36174 ****        18.5000  14.7500  15.2500 Du        
  36175 ****        18.5000  14.7500  15.5000 Du        
  36176 ****        18.5000  14.7500  15.7500 Du        
  36177 ****        18.5000  14.7500  32.7500 Du        
  36178 ****        18.5000  14.7500  33.0000 Du        
  36179 ****        18.5000  15.0000  14.5000 Du        
  36180 ****        18.5000  15.0000  14.7500 Du        
  36181 ****        18.5000  15.0000  15.0000 Du        
  36182 ****        18.5000  15.0000  15.2500 Du        
  36183 ****        18.5000  15.0000  15.5000 Du        
  36184 ****        18.5000  15.0000  32.2500 Du        
  36185 ****        18.5000  15.0000  32.5000 Du        
  36186 ****        18.5000  15.0000  32.7500 Du        
  36187 ****        18.5000  15.0000  33.0000 Du        
  36188 ****        18.5000  15.2500  14.5000 Du        
  36189 ****        18.5000  15.2500  14.7500 Du        
  36190 ****        18.5000  15.2500  15.0000 Du        
  36191 ****        18.5000  15.2500  32.2500 Du        
  36192 ****        18.5000  15.2500  32.5000 Du        
  36193 ****        18.5000  15.2500  32.7500 Du        
  36194 ****        18.5000  15.2500  33.0000 Du        
  36195 ****        18.5000  15.2500  33.2500 Du        
  36196 ****        18.5000  15.5000  14.5000 Du        
  36197 ****        18.5000  15.5000  32.2500 Du        
  36198 ****        18.5000  15.5000  32.5000 Du        
  36199 ****        18.5000  15.5000  32.7500 Du        
  36200 ****        18.5000  15.5000  33.0000 Du        
  36201 ****        18.5000  15.7500  32.2500 Du        
  36202 ****        18.5000  15.7500  32.5000 Du        
  36203 ****        18.5000  15.7500  32.7500 Du        
  36204 ****        18.5000  15.7500  33.0000 Du        
  36205 ****        18.5000  16.0000  32.2500 Du        
  36206 ****        18.5000  16.0000  32.5000 Du        
  36207 ****        18.5000  16.0000  32.7500 Du        
  36208 ****        18.5000  16.0000  33.0000 Du        
  36209 ****        18.5000  16.2500  32.2500 Du        
  36210 ****        18.5000  16.2500  32.5000 Du        
  36211 ****        18.5000  16.2500  32.7500 Du        
  36212 ****        18.5000  16.2500  33.0000 Du        
  36213 ****        18.5000  16.7500  13.2500 Du        
  36214 ****        18.5000  16.7500  13.5000 Du        
  36215 ****        18.5000  16.7500  13.7500 Du        
  36216 ****        18.5000  17.0000  12.2500 Du        
  36217 ****        18.5000  17.0000  12.5000 Du        
  36218 ****        18.5000  17.0000  12.7500 Du        
  36219 ****        18.5000  17.0000  13.0000 Du        
  36220 ****        18.5000  17.0000  13.2500 Du        
  36221 ****        18.5000  17.0000  13.5000 Du        
  36222 ****        18.5000  17.2500  11.7500 Du        
  36223 ****        18.5000  17.2500  12.0000 Du        
  36224 ****        18.5000  17.2500  12.2500 Du        
  36225 ****        18.5000  17.2500  12.5000 Du        
  36226 ****        18.5000  17.2500  12.7500 Du        
  36227 ****        18.5000  17.2500  13.0000 Du        
  36228 ****        18.5000  17.2500  13.2500 Du        
  36229 ****        18.5000  17.2500  13.5000 Du        
  36230 ****        18.5000  17.5000  11.7500 Du        
  36231 ****        18.5000  17.5000  12.0000 Du        
  36232 ****        18.5000  17.5000  12.2500 Du        
  36233 ****        18.5000  17.5000  12.5000 Du        
  36234 ****        18.5000  17.5000  12.7500 Du        
  36235 ****        18.5000  17.5000  13.0000 Du        
  36236 ****        18.5000  17.5000  13.2500 Du        
  36237 ****        18.5000  17.7500  11.7500 Du        
  36238 ****        18.5000  17.7500  12.0000 Du        
  36239 ****        18.5000  17.7500  12.2500 Du        
  36240 ****        18.5000  17.7500  12.5000 Du        
  36241 ****        18.5000  17.7500  12.7500 Du        
  36242 ****        18.5000  17.7500  13.0000 Du        
  36243 ****        18.5000  18.0000  11.7500 Du        
  36244 ****        18.5000  18.0000  12.0000 Du        
  36245 ****        18.5000  18.0000  12.2500 Du        
  36246 ****        18.5000  18.0000  12.5000 Du        
  36247 ****        18.5000  18.0000  12.7500 Du        
  36248 ****        18.5000  18.2500  11.7500 Du        
  36249 ****        18.5000  18.2500  12.0000 Du        
  36250 ****        18.5000  18.2500  12.2500 Du        
  36251 ****        18.5000  18.5000  12.0000 Du        
  36252 ****        18.7500   1.0000   2.0000 Du        
  36253 ****        18.7500   1.2500   1.7500 Du        
  36254 ****        18.7500   1.2500   2.0000 Du        
  36255 ****        18.7500   1.2500   2.2500 Du        
  36256 ****        18.7500   1.5000   1.5000 Du        
  36257 ****        18.7500   1.5000   1.7500 Du        
  36258 ****        18.7500   1.5000   2.0000 Du        
  36259 ****        18.7500   1.5000  22.2500 Du        
  36260 ****        18.7500   1.5000  22.5000 Du        
  36261 ****        18.7500   1.5000  22.7500 Du        
  36262 ****        18.7500   1.5000  23.0000 Du        
  36263 ****        18.7500   1.5000  23.5000 Du        
  36264 ****        18.7500   1.7500   1.7500 Du        
  36265 ****        18.7500   1.7500   2.0000 Du        
  36266 ****        18.7500   1.7500   2.2500 Du        
  36267 ****        18.7500   1.7500  22.2500 Du        
  36268 ****        18.7500   1.7500  22.5000 Du        
  36269 ****        18.7500   1.7500  22.7500 Du        
  36270 ****        18.7500   1.7500  23.0000 Du        
  36271 ****        18.7500   1.7500  23.2500 Du        
  36272 ****        18.7500   1.7500  23.5000 Du        
  36273 ****        18.7500   1.7500  23.7500 Du        
  36274 ****        18.7500   2.0000   1.0000 Du        
  36275 ****        18.7500   2.0000   1.7500 Du        
  36276 ****        18.7500   2.0000   2.0000 Du        
  36277 ****        18.7500   2.0000   2.2500 Du        
  36278 ****        18.7500   2.0000   2.5000 Du        
  36279 ****        18.7500   2.0000  22.5000 Du        
  36280 ****        18.7500   2.0000  22.7500 Du        
  36281 ****        18.7500   2.0000  23.0000 Du        
  36282 ****        18.7500   2.0000  23.2500 Du        
  36283 ****        18.7500   2.0000  23.5000 Du        
  36284 ****        18.7500   2.0000  23.7500 Du        
  36285 ****        18.7500   2.0000  24.0000 Du        
  36286 ****        18.7500   2.2500   2.0000 Du        
  36287 ****        18.7500   2.2500   2.2500 Du        
  36288 ****        18.7500   2.2500   2.5000 Du        
  36289 ****        18.7500   2.2500  22.5000 Du        
  36290 ****        18.7500   2.2500  22.7500 Du        
  36291 ****        18.7500   2.2500  23.0000 Du        
  36292 ****        18.7500   2.2500  23.2500 Du        
  36293 ****        18.7500   2.2500  23.5000 Du        
  36294 ****        18.7500   2.2500  23.7500 Du        
  36295 ****        18.7500   2.2500  24.0000 Du        
  36296 ****        18.7500   2.5000   1.7500 Du        
  36297 ****        18.7500   2.5000   2.0000 Du        
  36298 ****        18.7500   2.5000   2.2500 Du        
  36299 ****        18.7500   2.5000   2.5000 Du        
  36300 ****        18.7500   2.5000  22.7500 Du        
  36301 ****        18.7500   2.5000  23.0000 Du        
  36302 ****        18.7500   2.5000  23.2500 Du        
  36303 ****        18.7500   2.5000  23.5000 Du        
  36304 ****        18.7500   2.5000  23.7500 Du        
  36305 ****        18.7500   2.5000  24.0000 Du        
  36306 ****        18.7500   2.5000  24.2500 Du        
  36307 ****        18.7500   2.7500   2.0000 Du        
  36308 ****        18.7500   2.7500   2.2500 Du        
  36309 ****        18.7500   2.7500   2.5000 Du        
  36310 ****        18.7500   2.7500   2.7500 Du        
  36311 ****        18.7500   2.7500  22.7500 Du        
  36312 ****        18.7500   2.7500  23.0000 Du        
  36313 ****        18.7500   2.7500  23.2500 Du        
  36314 ****        18.7500   2.7500  23.5000 Du        
  36315 ****        18.7500   2.7500  23.7500 Du        
  36316 ****        18.7500   2.7500  24.0000 Du        
  36317 ****        18.7500   2.7500  24.2500 Du        
  36318 ****        18.7500   2.7500  24.5000 Du        
  36319 ****        18.7500   3.0000   2.0000 Du        
  36320 ****        18.7500   3.0000   2.2500 Du        
  36321 ****        18.7500   3.0000   2.5000 Du        
  36322 ****        18.7500   3.0000   2.7500 Du        
  36323 ****        18.7500   3.0000   3.0000 Du        
  36324 ****        18.7500   3.0000  23.2500 Du        
  36325 ****        18.7500   3.0000  23.5000 Du        
  36326 ****        18.7500   3.0000  23.7500 Du        
  36327 ****        18.7500   3.0000  24.0000 Du        
  36328 ****        18.7500   3.0000  24.2500 Du        
  36329 ****        18.7500   3.0000  24.5000 Du        
  36330 ****        18.7500   3.2500   2.0000 Du        
  36331 ****        18.7500   3.2500   2.5000 Du        
  36332 ****        18.7500   3.2500   2.7500 Du        
  36333 ****        18.7500   3.2500   3.0000 Du        
  36334 ****        18.7500   3.2500   3.2500 Du        
  36335 ****        18.7500   3.2500  23.2500 Du        
  36336 ****        18.7500   3.2500  23.5000 Du        
  36337 ****        18.7500   3.2500  23.7500 Du        
  36338 ****        18.7500   3.2500  24.0000 Du        
  36339 ****        18.7500   3.2500  24.2500 Du        
  36340 ****        18.7500   3.2500  24.5000 Du        
  36341 ****        18.7500   3.5000  -2.5000 Du        
  36342 ****        18.7500   3.5000   2.7500 Du        
  36343 ****        18.7500   3.5000   3.0000 Du        
  36344 ****        18.7500   3.5000  23.5000 Du        
  36345 ****        18.7500   3.5000  23.7500 Du        
  36346 ****        18.7500   3.5000  24.0000 Du        
  36347 ****        18.7500   3.5000  24.2500 Du        
  36348 ****        18.7500   3.5000  24.5000 Du        
  36349 ****        18.7500   3.7500  -2.5000 Du        
  36350 ****        18.7500   3.7500   2.0000 Du        
  36351 ****        18.7500   3.7500   2.5000 Du        
  36352 ****        18.7500   3.7500   2.7500 Du        
  36353 ****        18.7500   3.7500   3.0000 Du        
  36354 ****        18.7500   3.7500   3.2500 Du        
  36355 ****        18.7500   3.7500   3.5000 Du        
  36356 ****        18.7500   3.7500   3.7500 Du        
  36357 ****        18.7500   3.7500  23.7500 Du        
  36358 ****        18.7500   3.7500  24.0000 Du        
  36359 ****        18.7500   3.7500  24.2500 Du        
  36360 ****        18.7500   3.7500  24.5000 Du        
  36361 ****        18.7500   3.7500  24.7500 Du        
  36362 ****        18.7500   4.0000  -2.5000 Du        
  36363 ****        18.7500   4.0000   1.5000 Du        
  36364 ****        18.7500   4.0000   1.7500 Du        
  36365 ****        18.7500   4.0000   2.0000 Du        
  36366 ****        18.7500   4.0000   2.2500 Du        
  36367 ****        18.7500   4.0000   2.5000 Du        
  36368 ****        18.7500   4.0000   2.7500 Du        
  36369 ****        18.7500   4.0000   3.0000 Du        
  36370 ****        18.7500   4.0000   3.2500 Du        
  36371 ****        18.7500   4.0000   3.5000 Du        
  36372 ****        18.7500   4.0000   3.7500 Du        
  36373 ****        18.7500   4.0000   4.0000 Du        
  36374 ****        18.7500   4.0000  23.7500 Du        
  36375 ****        18.7500   4.0000  24.0000 Du        
  36376 ****        18.7500   4.0000  24.2500 Du        
  36377 ****        18.7500   4.0000  24.5000 Du        
  36378 ****        18.7500   4.0000  24.7500 Du        
  36379 ****        18.7500   4.0000  25.0000 Du        
  36380 ****        18.7500   4.0000  32.5000 Du        
  36381 ****        18.7500   4.0000  32.7500 Du        
  36382 ****        18.7500   4.2500   1.5000 Du        
  36383 ****        18.7500   4.2500   1.7500 Du        
  36384 ****        18.7500   4.2500   2.0000 Du        
  36385 ****        18.7500   4.2500   2.2500 Du        
  36386 ****        18.7500   4.2500   2.5000 Du        
  36387 ****        18.7500   4.2500   2.7500 Du        
  36388 ****        18.7500   4.2500   3.0000 Du        
  36389 ****        18.7500   4.2500   3.2500 Du        
  36390 ****        18.7500   4.2500   3.5000 Du        
  36391 ****        18.7500   4.2500   3.7500 Du        
  36392 ****        18.7500   4.2500   4.0000 Du        
  36393 ****        18.7500   4.2500  24.0000 Du        
  36394 ****        18.7500   4.2500  24.2500 Du        
  36395 ****        18.7500   4.2500  24.5000 Du        
  36396 ****        18.7500   4.2500  24.7500 Du        
  36397 ****        18.7500   4.2500  25.0000 Du        
  36398 ****        18.7500   4.2500  25.2500 Du        
  36399 ****        18.7500   4.2500  32.5000 Du        
  36400 ****        18.7500   4.2500  32.7500 Du        
  36401 ****        18.7500   4.5000   1.5000 Du        
  36402 ****        18.7500   4.5000   1.7500 Du        
  36403 ****        18.7500   4.5000   2.0000 Du        
  36404 ****        18.7500   4.5000   2.2500 Du        
  36405 ****        18.7500   4.5000   2.5000 Du        
  36406 ****        18.7500   4.5000   2.7500 Du        
  36407 ****        18.7500   4.5000   3.0000 Du        
  36408 ****        18.7500   4.5000   3.2500 Du        
  36409 ****        18.7500   4.5000   3.5000 Du        
  36410 ****        18.7500   4.5000   3.7500 Du        
  36411 ****        18.7500   4.5000  24.2500 Du        
  36412 ****        18.7500   4.5000  24.5000 Du        
  36413 ****        18.7500   4.5000  24.7500 Du        
  36414 ****        18.7500   4.5000  25.0000 Du        
  36415 ****        18.7500   4.5000  25.2500 Du        
  36416 ****        18.7500   4.5000  32.5000 Du        
  36417 ****        18.7500   4.5000  32.7500 Du        
  36418 ****        18.7500   4.5000  33.0000 Du        
  36419 ****        18.7500   4.7500   1.2500 Du        
  36420 ****        18.7500   4.7500   1.5000 Du        
  36421 ****        18.7500   4.7500   1.7500 Du        
  36422 ****        18.7500   4.7500   2.0000 Du        
  36423 ****        18.7500   4.7500   2.2500 Du        
  36424 ****        18.7500   4.7500   2.5000 Du        
  36425 ****        18.7500   4.7500   2.7500 Du        
  36426 ****        18.7500   4.7500   3.0000 Du        
  36427 ****        18.7500   4.7500   3.2500 Du        
  36428 ****        18.7500   4.7500   3.5000 Du        
  36429 ****        18.7500   4.7500  24.7500 Du        
  36430 ****        18.7500   4.7500  25.0000 Du        
  36431 ****        18.7500   4.7500  25.2500 Du        
  36432 ****        18.7500   4.7500  25.5000 Du        
  36433 ****        18.7500   4.7500  32.5000 Du        
  36434 ****        18.7500   4.7500  32.7500 Du        
  36435 ****        18.7500   5.0000   1.2500 Du        
  36436 ****        18.7500   5.0000   1.5000 Du        
  36437 ****        18.7500   5.0000   1.7500 Du        
  36438 ****        18.7500   5.0000   2.0000 Du        
  36439 ****        18.7500   5.0000   2.2500 Du        
  36440 ****        18.7500   5.0000   2.5000 Du        
  36441 ****        18.7500   5.0000   2.7500 Du        
  36442 ****        18.7500   5.0000   3.0000 Du        
  36443 ****        18.7500   5.0000   3.2500 Du        
  36444 ****        18.7500   5.0000   3.5000 Du        
  36445 ****        18.7500   5.0000  25.0000 Du        
  36446 ****        18.7500   5.0000  25.2500 Du        
  36447 ****        18.7500   5.0000  25.5000 Du        
  36448 ****        18.7500   5.0000  25.7500 Du        
  36449 ****        18.7500   5.0000  26.0000 Du        
  36450 ****        18.7500   5.0000  32.5000 Du        
  36451 ****        18.7500   5.0000  32.7500 Du        
  36452 ****        18.7500   5.2500   1.2500 Du        
  36453 ****        18.7500   5.2500   1.5000 Du        
  36454 ****        18.7500   5.2500   1.7500 Du        
  36455 ****        18.7500   5.2500   2.0000 Du        
  36456 ****        18.7500   5.2500   2.2500 Du        
  36457 ****        18.7500   5.2500   2.5000 Du        
  36458 ****        18.7500   5.2500   2.7500 Du        
  36459 ****        18.7500   5.2500   3.0000 Du        
  36460 ****        18.7500   5.2500   3.2500 Du        
  36461 ****        18.7500   5.2500   3.5000 Du        
  36462 ****        18.7500   5.2500  25.2500 Du        
  36463 ****        18.7500   5.2500  25.5000 Du        
  36464 ****        18.7500   5.2500  25.7500 Du        
  36465 ****        18.7500   5.2500  26.0000 Du        
  36466 ****        18.7500   5.2500  26.2500 Du        
  36467 ****        18.7500   5.2500  32.5000 Du        
  36468 ****        18.7500   5.5000   1.2500 Du        
  36469 ****        18.7500   5.5000   1.5000 Du        
  36470 ****        18.7500   5.5000   1.7500 Du        
  36471 ****        18.7500   5.5000   2.0000 Du        
  36472 ****        18.7500   5.5000   2.2500 Du        
  36473 ****        18.7500   5.5000   2.5000 Du        
  36474 ****        18.7500   5.5000   2.7500 Du        
  36475 ****        18.7500   5.5000   3.0000 Du        
  36476 ****        18.7500   5.5000   3.2500 Du        
  36477 ****        18.7500   5.5000   3.5000 Du        
  36478 ****        18.7500   5.7500   1.2500 Du        
  36479 ****        18.7500   5.7500   1.5000 Du        
  36480 ****        18.7500   5.7500   1.7500 Du        
  36481 ****        18.7500   5.7500   2.0000 Du        
  36482 ****        18.7500   5.7500   2.2500 Du        
  36483 ****        18.7500   5.7500   2.5000 Du        
  36484 ****        18.7500   5.7500   2.7500 Du        
  36485 ****        18.7500   5.7500   3.0000 Du        
  36486 ****        18.7500   5.7500   3.2500 Du        
  36487 ****        18.7500   5.7500   3.5000 Du        
  36488 ****        18.7500   6.0000   1.5000 Du        
  36489 ****        18.7500   6.0000   1.7500 Du        
  36490 ****        18.7500   6.0000   2.0000 Du        
  36491 ****        18.7500   6.0000   2.2500 Du        
  36492 ****        18.7500   6.0000   2.5000 Du        
  36493 ****        18.7500   6.0000   2.7500 Du        
  36494 ****        18.7500   6.0000   3.0000 Du        
  36495 ****        18.7500   6.0000   3.2500 Du        
  36496 ****        18.7500   6.2500   1.5000 Du        
  36497 ****        18.7500   6.2500   1.7500 Du        
  36498 ****        18.7500   6.2500   2.0000 Du        
  36499 ****        18.7500   6.2500   2.2500 Du        
  36500 ****        18.7500   6.2500   2.5000 Du        
  36501 ****        18.7500   6.2500   2.7500 Du        
  36502 ****        18.7500   6.2500   3.0000 Du        
  36503 ****        18.7500   6.2500   3.2500 Du        
  36504 ****        18.7500   6.5000   1.7500 Du        
  36505 ****        18.7500   6.5000   2.0000 Du        
  36506 ****        18.7500   6.5000   2.2500 Du        
  36507 ****        18.7500   6.5000   2.5000 Du        
  36508 ****        18.7500   6.5000   2.7500 Du        
  36509 ****        18.7500   6.5000   3.0000 Du        
  36510 ****        18.7500   6.5000   3.2500 Du        
  36511 ****        18.7500   6.7500   1.7500 Du        
  36512 ****        18.7500   6.7500   2.0000 Du        
  36513 ****        18.7500   6.7500   2.2500 Du        
  36514 ****        18.7500   6.7500   2.5000 Du        
  36515 ****        18.7500   6.7500   2.7500 Du        
  36516 ****        18.7500   6.7500   3.0000 Du        
  36517 ****        18.7500   6.7500   3.2500 Du        
  36518 ****        18.7500   7.0000   3.0000 Du        
  36519 ****        18.7500  13.5000  14.7500 Du        
  36520 ****        18.7500  13.5000  15.0000 Du        
  36521 ****        18.7500  13.5000  15.2500 Du        
  36522 ****        18.7500  13.5000  15.5000 Du        
  36523 ****        18.7500  13.5000  15.7500 Du        
  36524 ****        18.7500  13.7500  14.7500 Du        
  36525 ****        18.7500  13.7500  15.0000 Du        
  36526 ****        18.7500  13.7500  15.2500 Du        
  36527 ****        18.7500  13.7500  15.5000 Du        
  36528 ****        18.7500  13.7500  15.7500 Du        
  36529 ****        18.7500  13.7500  16.0000 Du        
  36530 ****        18.7500  14.0000  14.7500 Du        
  36531 ****        18.7500  14.0000  15.0000 Du        
  36532 ****        18.7500  14.0000  15.2500 Du        
  36533 ****        18.7500  14.0000  15.5000 Du        
  36534 ****        18.7500  14.0000  15.7500 Du        
  36535 ****        18.7500  14.0000  16.0000 Du        
  36536 ****        18.7500  14.2500  14.7500 Du        
  36537 ****        18.7500  14.2500  15.0000 Du        
  36538 ****        18.7500  14.2500  15.2500 Du        
  36539 ****        18.7500  14.2500  15.5000 Du        
  36540 ****        18.7500  14.2500  15.7500 Du        
  36541 ****        18.7500  14.2500  16.0000 Du        
  36542 ****        18.7500  14.5000  14.7500 Du        
  36543 ****        18.7500  14.5000  15.0000 Du        
  36544 ****        18.7500  14.5000  15.2500 Du        
  36545 ****        18.7500  14.5000  15.5000 Du        
  36546 ****        18.7500  14.5000  15.7500 Du        
  36547 ****        18.7500  14.5000  16.0000 Du        
  36548 ****        18.7500  14.7500  14.7500 Du        
  36549 ****        18.7500  14.7500  15.0000 Du        
  36550 ****        18.7500  14.7500  15.2500 Du        
  36551 ****        18.7500  14.7500  15.5000 Du        
  36552 ****        18.7500  14.7500  15.7500 Du        
  36553 ****        18.7500  14.7500  32.2500 Du        
  36554 ****        18.7500  14.7500  32.5000 Du        
  36555 ****        18.7500  14.7500  32.7500 Du        
  36556 ****        18.7500  15.0000  14.7500 Du        
  36557 ****        18.7500  15.0000  15.0000 Du        
  36558 ****        18.7500  15.0000  15.2500 Du        
  36559 ****        18.7500  15.0000  15.5000 Du        
  36560 ****        18.7500  15.0000  32.2500 Du        
  36561 ****        18.7500  15.0000  32.5000 Du        
  36562 ****        18.7500  15.0000  32.7500 Du        
  36563 ****        18.7500  15.0000  33.0000 Du        
  36564 ****        18.7500  15.2500  14.7500 Du        
  36565 ****        18.7500  15.2500  15.0000 Du        
  36566 ****        18.7500  15.2500  15.2500 Du        
  36567 ****        18.7500  15.2500  32.2500 Du        
  36568 ****        18.7500  15.2500  32.5000 Du        
  36569 ****        18.7500  15.2500  32.7500 Du        
  36570 ****        18.7500  15.2500  33.0000 Du        
  36571 ****        18.7500  15.5000  32.2500 Du        
  36572 ****        18.7500  15.5000  32.5000 Du        
  36573 ****        18.7500  15.5000  32.7500 Du        
  36574 ****        18.7500  15.7500  32.2500 Du        
  36575 ****        18.7500  15.7500  32.5000 Du        
  36576 ****        18.7500  15.7500  32.7500 Du        
  36577 ****        18.7500  15.7500  33.0000 Du        
  36578 ****        18.7500  16.0000  32.2500 Du        
  36579 ****        18.7500  16.0000  32.5000 Du        
  36580 ****        18.7500  16.0000  32.7500 Du        
  36581 ****        18.7500  16.0000  33.0000 Du        
  36582 ****        18.7500  16.2500  32.2500 Du        
  36583 ****        18.7500  16.2500  32.5000 Du        
  36584 ****        18.7500  16.2500  32.7500 Du        
  36585 ****        18.7500  16.7500  13.5000 Du        
  36586 ****        18.7500  16.7500  13.7500 Du        
  36587 ****        18.7500  17.0000  12.7500 Du        
  36588 ****        18.7500  17.0000  13.0000 Du        
  36589 ****        18.7500  17.0000  13.2500 Du        
  36590 ****        18.7500  17.0000  13.5000 Du        
  36591 ****        18.7500  17.0000  13.7500 Du        
  36592 ****        18.7500  17.2500  11.7500 Du        
  36593 ****        18.7500  17.2500  12.0000 Du        
  36594 ****        18.7500  17.2500  12.2500 Du        
  36595 ****        18.7500  17.2500  12.5000 Du        
  36596 ****        18.7500  17.2500  12.7500 Du        
  36597 ****        18.7500  17.2500  13.0000 Du        
  36598 ****        18.7500  17.2500  13.2500 Du        
  36599 ****        18.7500  17.2500  13.5000 Du        
  36600 ****        18.7500  17.2500  13.7500 Du        
  36601 ****        18.7500  17.5000  11.7500 Du        
  36602 ****        18.7500  17.5000  12.0000 Du        
  36603 ****        18.7500  17.5000  12.2500 Du        
  36604 ****        18.7500  17.5000  12.5000 Du        
  36605 ****        18.7500  17.5000  12.7500 Du        
  36606 ****        18.7500  17.5000  13.0000 Du        
  36607 ****        18.7500  17.5000  13.2500 Du        
  36608 ****        18.7500  17.5000  13.5000 Du        
  36609 ****        18.7500  17.7500  11.7500 Du        
  36610 ****        18.7500  17.7500  12.0000 Du        
  36611 ****        18.7500  17.7500  12.2500 Du        
  36612 ****        18.7500  17.7500  12.5000 Du        
  36613 ****        18.7500  17.7500  12.7500 Du        
  36614 ****        18.7500  17.7500  13.0000 Du        
  36615 ****        18.7500  17.7500  13.2500 Du        
  36616 ****        18.7500  18.0000  11.7500 Du        
  36617 ****        18.7500  18.0000  12.0000 Du        
  36618 ****        18.7500  18.0000  12.2500 Du        
  36619 ****        18.7500  18.0000  12.5000 Du        
  36620 ****        18.7500  18.0000  12.7500 Du        
  36621 ****        18.7500  18.0000  13.0000 Du        
  36622 ****        18.7500  18.2500  11.7500 Du        
  36623 ****        18.7500  18.2500  12.0000 Du        
  36624 ****        18.7500  18.2500  12.2500 Du        
  36625 ****        18.7500  18.2500  12.5000 Du        
  36626 ****        18.7500  18.2500  12.7500 Du        
  36627 ****        18.7500  18.5000  12.0000 Du        
  36628 ****        18.7500  18.5000  12.2500 Du        
  36629 ****        18.7500  18.5000  12.5000 Du        
  36630 ****        18.7500  18.7500  12.0000 Du        
  36631 ****        18.7500  18.7500  12.2500 Du        
  36632 ****        19.0000   0.7500   1.7500 Du        
  36633 ****        19.0000   0.7500   2.0000 Du        
  36634 ****        19.0000   0.7500   2.2500 Du        
  36635 ****        19.0000   0.7500   2.5000 Du        
  36636 ****        19.0000   1.0000   1.5000 Du        
  36637 ****        19.0000   1.0000   1.7500 Du        
  36638 ****        19.0000   1.0000   2.0000 Du        
  36639 ****        19.0000   1.0000   2.2500 Du        
  36640 ****        19.0000   1.0000   2.5000 Du        
  36641 ****        19.0000   1.2500   1.5000 Du        
  36642 ****        19.0000   1.2500   1.7500 Du        
  36643 ****        19.0000   1.2500   2.0000 Du        
  36644 ****        19.0000   1.2500   2.2500 Du        
  36645 ****        19.0000   1.2500   2.5000 Du        
  36646 ****        19.0000   1.5000   1.0000 Du        
  36647 ****        19.0000   1.5000   1.2500 Du        
  36648 ****        19.0000   1.5000   1.5000 Du        
  36649 ****        19.0000   1.5000   1.7500 Du        
  36650 ****        19.0000   1.5000   2.0000 Du        
  36651 ****        19.0000   1.5000   2.2500 Du        
  36652 ****        19.0000   1.5000   2.5000 Du        
  36653 ****        19.0000   1.7500   1.0000 Du        
  36654 ****        19.0000   1.7500   1.2500 Du        
  36655 ****        19.0000   1.7500   1.5000 Du        
  36656 ****        19.0000   1.7500   1.7500 Du        
  36657 ****        19.0000   1.7500   2.0000 Du        
  36658 ****        19.0000   1.7500   2.2500 Du        
  36659 ****        19.0000   1.7500   2.5000 Du        
  36660 ****        19.0000   1.7500  22.7500 Du        
  36661 ****        19.0000   1.7500  23.0000 Du        
  36662 ****        19.0000   1.7500  23.2500 Du        
  36663 ****        19.0000   1.7500  23.5000 Du        
  36664 ****        19.0000   1.7500  23.7500 Du        
  36665 ****        19.0000   2.0000   0.7500 Du        
  36666 ****        19.0000   2.0000   1.0000 Du        
  36667 ****        19.0000   2.0000   1.2500 Du        
  36668 ****        19.0000   2.0000   1.5000 Du        
  36669 ****        19.0000   2.0000   1.7500 Du        
  36670 ****        19.0000   2.0000   2.0000 Du        
  36671 ****        19.0000   2.0000   2.2500 Du        
  36672 ****        19.0000   2.0000   2.5000 Du        
  36673 ****        19.0000   2.0000  22.7500 Du        
  36674 ****        19.0000   2.0000  23.0000 Du        
  36675 ****        19.0000   2.0000  23.2500 Du        
  36676 ****        19.0000   2.0000  23.5000 Du        
  36677 ****        19.0000   2.0000  23.7500 Du        
  36678 ****        19.0000   2.0000  24.0000 Du        
  36679 ****        19.0000   2.2500   0.7500 Du        
  36680 ****        19.0000   2.2500   1.0000 Du        
  36681 ****        19.0000   2.2500   1.2500 Du        
  36682 ****        19.0000   2.2500   1.5000 Du        
  36683 ****        19.0000   2.2500   1.7500 Du        
  36684 ****        19.0000   2.2500   2.0000 Du        
  36685 ****        19.0000   2.2500   2.2500 Du        
  36686 ****        19.0000   2.2500   2.5000 Du        
  36687 ****        19.0000   2.2500   2.7500 Du        
  36688 ****        19.0000   2.2500  23.0000 Du        
  36689 ****        19.0000   2.2500  23.2500 Du        
  36690 ****        19.0000   2.2500  23.5000 Du        
  36691 ****        19.0000   2.2500  23.7500 Du        
  36692 ****        19.0000   2.2500  24.0000 Du        
  36693 ****        19.0000   2.2500  24.2500 Du        
  36694 ****        19.0000   2.5000   0.7500 Du        
  36695 ****        19.0000   2.5000   1.0000 Du        
  36696 ****        19.0000   2.5000   1.2500 Du        
  36697 ****        19.0000   2.5000   1.5000 Du        
  36698 ****        19.0000   2.5000   1.7500 Du        
  36699 ****        19.0000   2.5000   2.0000 Du        
  36700 ****        19.0000   2.5000   2.2500 Du        
  36701 ****        19.0000   2.5000   2.5000 Du        
  36702 ****        19.0000   2.5000   2.7500 Du        
  36703 ****        19.0000   2.5000  23.0000 Du        
  36704 ****        19.0000   2.5000  23.2500 Du        
  36705 ****        19.0000   2.5000  23.5000 Du        
  36706 ****        19.0000   2.5000  23.7500 Du        
  36707 ****        19.0000   2.5000  24.0000 Du        
  36708 ****        19.0000   2.5000  24.2500 Du        
  36709 ****        19.0000   2.7500   0.7500 Du        
  36710 ****        19.0000   2.7500   1.0000 Du        
  36711 ****        19.0000   2.7500   1.2500 Du        
  36712 ****        19.0000   2.7500   1.5000 Du        
  36713 ****        19.0000   2.7500   1.7500 Du        
  36714 ****        19.0000   2.7500   2.0000 Du        
  36715 ****        19.0000   2.7500   2.2500 Du        
  36716 ****        19.0000   2.7500   2.5000 Du        
  36717 ****        19.0000   2.7500   2.7500 Du        
  36718 ****        19.0000   2.7500   3.0000 Du        
  36719 ****        19.0000   2.7500  23.2500 Du        
  36720 ****        19.0000   2.7500  23.5000 Du        
  36721 ****        19.0000   2.7500  23.7500 Du        
  36722 ****        19.0000   2.7500  24.0000 Du        
  36723 ****        19.0000   2.7500  24.2500 Du        
  36724 ****        19.0000   3.0000   0.5000 Du        
  36725 ****        19.0000   3.0000   0.7500 Du        
  36726 ****        19.0000   3.0000   1.0000 Du        
  36727 ****        19.0000   3.0000   1.2500 Du        
  36728 ****        19.0000   3.0000   1.5000 Du        
  36729 ****        19.0000   3.0000   1.7500 Du        
  36730 ****        19.0000   3.0000   2.0000 Du        
  36731 ****        19.0000   3.0000   2.2500 Du        
  36732 ****        19.0000   3.0000   2.5000 Du        
  36733 ****        19.0000   3.0000   2.7500 Du        
  36734 ****        19.0000   3.0000   3.0000 Du        
  36735 ****        19.0000   3.0000   3.2500 Du        
  36736 ****        19.0000   3.0000  23.2500 Du        
  36737 ****        19.0000   3.0000  23.5000 Du        
  36738 ****        19.0000   3.0000  23.7500 Du        
  36739 ****        19.0000   3.0000  24.0000 Du        
  36740 ****        19.0000   3.0000  24.2500 Du        
  36741 ****        19.0000   3.0000  24.5000 Du        
  36742 ****        19.0000   3.2500   0.2500 Du        
  36743 ****        19.0000   3.2500   0.5000 Du        
  36744 ****        19.0000   3.2500   0.7500 Du        
  36745 ****        19.0000   3.2500   1.0000 Du        
  36746 ****        19.0000   3.2500   1.2500 Du        
  36747 ****        19.0000   3.2500   1.5000 Du        
  36748 ****        19.0000   3.2500   1.7500 Du        
  36749 ****        19.0000   3.2500   2.0000 Du        
  36750 ****        19.0000   3.2500   2.2500 Du        
  36751 ****        19.0000   3.2500   2.5000 Du        
  36752 ****        19.0000   3.2500   2.7500 Du        
  36753 ****        19.0000   3.2500   3.0000 Du        
  36754 ****        19.0000   3.2500   3.2500 Du        
  36755 ****        19.0000   3.2500  23.5000 Du        
  36756 ****        19.0000   3.2500  23.7500 Du        
  36757 ****        19.0000   3.2500  24.0000 Du        
  36758 ****        19.0000   3.2500  24.2500 Du        
  36759 ****        19.0000   3.2500  24.5000 Du        
  36760 ****        19.0000   3.2500  24.7500 Du        
  36761 ****        19.0000   3.5000  -2.5000 Du        
  36762 ****        19.0000   3.5000  -2.2500 Du        
  36763 ****        19.0000   3.5000  -2.0000 Du        
  36764 ****        19.0000   3.5000   0.5000 Du        
  36765 ****        19.0000   3.5000   0.7500 Du        
  36766 ****        19.0000   3.5000   1.0000 Du        
  36767 ****        19.0000   3.5000   1.2500 Du        
  36768 ****        19.0000   3.5000   1.5000 Du        
  36769 ****        19.0000   3.5000   1.7500 Du        
  36770 ****        19.0000   3.5000   2.0000 Du        
  36771 ****        19.0000   3.5000   2.2500 Du        
  36772 ****        19.0000   3.5000   2.5000 Du        
  36773 ****        19.0000   3.5000   2.7500 Du        
  36774 ****        19.0000   3.5000   3.0000 Du        
  36775 ****        19.0000   3.5000   3.2500 Du        
  36776 ****        19.0000   3.5000   3.5000 Du        
  36777 ****        19.0000   3.5000   3.7500 Du        
  36778 ****        19.0000   3.5000  23.7500 Du        
  36779 ****        19.0000   3.5000  24.0000 Du        
  36780 ****        19.0000   3.5000  24.2500 Du        
  36781 ****        19.0000   3.5000  24.5000 Du        
  36782 ****        19.0000   3.5000  24.7500 Du        
  36783 ****        19.0000   3.7500  -2.5000 Du        
  36784 ****        19.0000   3.7500  -2.2500 Du        
  36785 ****        19.0000   3.7500  -2.0000 Du        
  36786 ****        19.0000   3.7500  -1.7500 Du        
  36787 ****        19.0000   3.7500   0.7500 Du        
  36788 ****        19.0000   3.7500   1.0000 Du        
  36789 ****        19.0000   3.7500   1.2500 Du        
  36790 ****        19.0000   3.7500   1.5000 Du        
  36791 ****        19.0000   3.7500   1.7500 Du        
  36792 ****        19.0000   3.7500   2.0000 Du        
  36793 ****        19.0000   3.7500   2.2500 Du        
  36794 ****        19.0000   3.7500   2.5000 Du        
  36795 ****        19.0000   3.7500   2.7500 Du        
  36796 ****        19.0000   3.7500   3.0000 Du        
  36797 ****        19.0000   3.7500   3.2500 Du        
  36798 ****        19.0000   3.7500   3.5000 Du        
  36799 ****        19.0000   3.7500   3.7500 Du        
  36800 ****        19.0000   3.7500   4.0000 Du        
  36801 ****        19.0000   3.7500  23.7500 Du        
  36802 ****        19.0000   3.7500  24.0000 Du        
  36803 ****        19.0000   3.7500  24.2500 Du        
  36804 ****        19.0000   3.7500  24.5000 Du        
  36805 ****        19.0000   3.7500  24.7500 Du        
  36806 ****        19.0000   4.0000  -2.5000 Du        
  36807 ****        19.0000   4.0000  -2.2500 Du        
  36808 ****        19.0000   4.0000  -2.0000 Du        
  36809 ****        19.0000   4.0000   0.5000 Du        
  36810 ****        19.0000   4.0000   0.7500 Du        
  36811 ****        19.0000   4.0000   1.0000 Du        
  36812 ****        19.0000   4.0000   1.2500 Du        
  36813 ****        19.0000   4.0000   1.5000 Du        
  36814 ****        19.0000   4.0000   1.7500 Du        
  36815 ****        19.0000   4.0000   2.0000 Du        
  36816 ****        19.0000   4.0000   2.2500 Du        
  36817 ****        19.0000   4.0000   2.5000 Du        
  36818 ****        19.0000   4.0000   2.7500 Du        
  36819 ****        19.0000   4.0000   3.0000 Du        
  36820 ****        19.0000   4.0000   3.2500 Du        
  36821 ****        19.0000   4.0000   3.5000 Du        
  36822 ****        19.0000   4.0000   3.7500 Du        
  36823 ****        19.0000   4.0000   4.0000 Du        
  36824 ****        19.0000   4.0000   4.2500 Du        
  36825 ****        19.0000   4.0000  24.0000 Du        
  36826 ****        19.0000   4.0000  24.2500 Du        
  36827 ****        19.0000   4.0000  24.5000 Du        
  36828 ****        19.0000   4.0000  24.7500 Du        
  36829 ****        19.0000   4.0000  25.0000 Du        
  36830 ****        19.0000   4.0000  32.5000 Du        
  36831 ****        19.0000   4.2500  -2.5000 Du        
  36832 ****        19.0000   4.2500  -2.2500 Du        
  36833 ****        19.0000   4.2500   0.7500 Du        
  36834 ****        19.0000   4.2500   1.0000 Du        
  36835 ****        19.0000   4.2500   1.2500 Du        
  36836 ****        19.0000   4.2500   1.5000 Du        
  36837 ****        19.0000   4.2500   1.7500 Du        
  36838 ****        19.0000   4.2500   2.0000 Du        
  36839 ****        19.0000   4.2500   2.2500 Du        
  36840 ****        19.0000   4.2500   2.5000 Du        
  36841 ****        19.0000   4.2500   2.7500 Du        
  36842 ****        19.0000   4.2500   3.0000 Du        
  36843 ****        19.0000   4.2500   3.2500 Du        
  36844 ****        19.0000   4.2500   3.5000 Du        
  36845 ****        19.0000   4.2500   3.7500 Du        
  36846 ****        19.0000   4.2500   4.0000 Du        
  36847 ****        19.0000   4.2500  24.2500 Du        
  36848 ****        19.0000   4.2500  24.5000 Du        
  36849 ****        19.0000   4.2500  24.7500 Du        
  36850 ****        19.0000   4.2500  25.0000 Du        
  36851 ****        19.0000   4.2500  25.2500 Du        
  36852 ****        19.0000   4.2500  32.7500 Du        
  36853 ****        19.0000   4.5000  -2.5000 Du        
  36854 ****        19.0000   4.5000  -2.2500 Du        
  36855 ****        19.0000   4.5000   0.7500 Du        
  36856 ****        19.0000   4.5000   1.0000 Du        
  36857 ****        19.0000   4.5000   1.2500 Du        
  36858 ****        19.0000   4.5000   1.5000 Du        
  36859 ****        19.0000   4.5000   1.7500 Du        
  36860 ****        19.0000   4.5000   2.0000 Du        
  36861 ****        19.0000   4.5000   2.2500 Du        
  36862 ****        19.0000   4.5000   2.5000 Du        
  36863 ****        19.0000   4.5000   2.7500 Du        
  36864 ****        19.0000   4.5000   3.0000 Du        
  36865 ****        19.0000   4.5000   3.2500 Du        
  36866 ****        19.0000   4.5000   3.5000 Du        
  36867 ****        19.0000   4.5000   3.7500 Du        
  36868 ****        19.0000   4.5000   4.0000 Du        
  36869 ****        19.0000   4.5000  24.5000 Du        
  36870 ****        19.0000   4.5000  24.7500 Du        
  36871 ****        19.0000   4.5000  25.0000 Du        
  36872 ****        19.0000   4.5000  25.2500 Du        
  36873 ****        19.0000   4.5000  32.5000 Du        
  36874 ****        19.0000   4.5000  32.7500 Du        
  36875 ****        19.0000   4.5000  33.0000 Du        
  36876 ****        19.0000   4.7500   0.7500 Du        
  36877 ****        19.0000   4.7500   1.0000 Du        
  36878 ****        19.0000   4.7500   1.2500 Du        
  36879 ****        19.0000   4.7500   1.5000 Du        
  36880 ****        19.0000   4.7500   1.7500 Du        
  36881 ****        19.0000   4.7500   2.0000 Du        
  36882 ****        19.0000   4.7500   2.2500 Du        
  36883 ****        19.0000   4.7500   2.5000 Du        
  36884 ****        19.0000   4.7500   2.7500 Du        
  36885 ****        19.0000   4.7500   3.0000 Du        
  36886 ****        19.0000   4.7500   3.2500 Du        
  36887 ****        19.0000   4.7500   3.5000 Du        
  36888 ****        19.0000   4.7500   3.7500 Du        
  36889 ****        19.0000   4.7500  24.7500 Du        
  36890 ****        19.0000   4.7500  25.0000 Du        
  36891 ****        19.0000   4.7500  25.2500 Du        
  36892 ****        19.0000   4.7500  32.5000 Du        
  36893 ****        19.0000   4.7500  32.7500 Du        
  36894 ****        19.0000   4.7500  33.0000 Du        
  36895 ****        19.0000   5.0000   0.7500 Du        
  36896 ****        19.0000   5.0000   1.0000 Du        
  36897 ****        19.0000   5.0000   1.2500 Du        
  36898 ****        19.0000   5.0000   1.5000 Du        
  36899 ****        19.0000   5.0000   1.7500 Du        
  36900 ****        19.0000   5.0000   2.0000 Du        
  36901 ****        19.0000   5.0000   2.2500 Du        
  36902 ****        19.0000   5.0000   2.5000 Du        
  36903 ****        19.0000   5.0000   2.7500 Du        
  36904 ****        19.0000   5.0000   3.0000 Du        
  36905 ****        19.0000   5.0000   3.2500 Du        
  36906 ****        19.0000   5.0000   3.5000 Du        
  36907 ****        19.0000   5.0000  25.0000 Du        
  36908 ****        19.0000   5.0000  25.2500 Du        
  36909 ****        19.0000   5.0000  25.5000 Du        
  36910 ****        19.0000   5.0000  32.5000 Du        
  36911 ****        19.0000   5.0000  32.7500 Du        
  36912 ****        19.0000   5.2500   0.7500 Du        
  36913 ****        19.0000   5.2500   1.0000 Du        
  36914 ****        19.0000   5.2500   1.2500 Du        
  36915 ****        19.0000   5.2500   1.5000 Du        
  36916 ****        19.0000   5.2500   1.7500 Du        
  36917 ****        19.0000   5.2500   2.0000 Du        
  36918 ****        19.0000   5.2500   2.2500 Du        
  36919 ****        19.0000   5.2500   2.5000 Du        
  36920 ****        19.0000   5.2500   2.7500 Du        
  36921 ****        19.0000   5.2500   3.0000 Du        
  36922 ****        19.0000   5.2500   3.2500 Du        
  36923 ****        19.0000   5.2500   3.5000 Du        
  36924 ****        19.0000   5.2500  32.7500 Du        
  36925 ****        19.0000   5.5000   0.7500 Du        
  36926 ****        19.0000   5.5000   1.0000 Du        
  36927 ****        19.0000   5.5000   1.2500 Du        
  36928 ****        19.0000   5.5000   1.5000 Du        
  36929 ****        19.0000   5.5000   1.7500 Du        
  36930 ****        19.0000   5.5000   2.0000 Du        
  36931 ****        19.0000   5.5000   2.2500 Du        
  36932 ****        19.0000   5.5000   2.5000 Du        
  36933 ****        19.0000   5.5000   2.7500 Du        
  36934 ****        19.0000   5.5000   3.0000 Du        
  36935 ****        19.0000   5.5000   3.2500 Du        
  36936 ****        19.0000   5.5000   3.5000 Du        
  36937 ****        19.0000   5.5000  32.5000 Du        
  36938 ****        19.0000   5.7500   0.7500 Du        
  36939 ****        19.0000   5.7500   1.0000 Du        
  36940 ****        19.0000   5.7500   1.2500 Du        
  36941 ****        19.0000   5.7500   1.5000 Du        
  36942 ****        19.0000   5.7500   1.7500 Du        
  36943 ****        19.0000   5.7500   2.0000 Du        
  36944 ****        19.0000   5.7500   2.2500 Du        
  36945 ****        19.0000   5.7500   2.5000 Du        
  36946 ****        19.0000   5.7500   2.7500 Du        
  36947 ****        19.0000   5.7500   3.0000 Du        
  36948 ****        19.0000   5.7500   3.2500 Du        
  36949 ****        19.0000   5.7500   3.5000 Du        
  36950 ****        19.0000   5.7500  32.5000 Du        
  36951 ****        19.0000   6.0000   1.0000 Du        
  36952 ****        19.0000   6.0000   1.2500 Du        
  36953 ****        19.0000   6.0000   1.5000 Du        
  36954 ****        19.0000   6.0000   1.7500 Du        
  36955 ****        19.0000   6.0000   2.0000 Du        
  36956 ****        19.0000   6.0000   2.2500 Du        
  36957 ****        19.0000   6.0000   2.5000 Du        
  36958 ****        19.0000   6.0000   2.7500 Du        
  36959 ****        19.0000   6.0000   3.0000 Du        
  36960 ****        19.0000   6.0000   3.2500 Du        
  36961 ****        19.0000   6.2500   1.2500 Du        
  36962 ****        19.0000   6.2500   1.5000 Du        
  36963 ****        19.0000   6.2500   1.7500 Du        
  36964 ****        19.0000   6.2500   2.0000 Du        
  36965 ****        19.0000   6.2500   2.2500 Du        
  36966 ****        19.0000   6.2500   2.5000 Du        
  36967 ****        19.0000   6.2500   2.7500 Du        
  36968 ****        19.0000   6.2500   3.0000 Du        
  36969 ****        19.0000   6.2500   3.2500 Du        
  36970 ****        19.0000   6.5000   1.5000 Du        
  36971 ****        19.0000   6.5000   1.7500 Du        
  36972 ****        19.0000   6.5000   2.0000 Du        
  36973 ****        19.0000   6.5000   2.2500 Du        
  36974 ****        19.0000   6.5000   2.5000 Du        
  36975 ****        19.0000   6.5000   2.7500 Du        
  36976 ****        19.0000   6.5000   3.0000 Du        
  36977 ****        19.0000   6.5000   3.2500 Du        
  36978 ****        19.0000   6.7500   1.7500 Du        
  36979 ****        19.0000   6.7500   2.0000 Du        
  36980 ****        19.0000   6.7500   2.2500 Du        
  36981 ****        19.0000   6.7500   2.5000 Du        
  36982 ****        19.0000   6.7500   2.7500 Du        
  36983 ****        19.0000   6.7500   3.0000 Du        
  36984 ****        19.0000   6.7500   3.2500 Du        
  36985 ****        19.0000   9.7500  25.5000 Du        
  36986 ****        19.0000  10.0000  25.2500 Du        
  36987 ****        19.0000  10.0000  25.5000 Du        
  36988 ****        19.0000  13.7500  15.0000 Du        
  36989 ****        19.0000  13.7500  15.2500 Du        
  36990 ****        19.0000  13.7500  15.5000 Du        
  36991 ****        19.0000  13.7500  15.7500 Du        
  36992 ****        19.0000  14.0000  14.7500 Du        
  36993 ****        19.0000  14.0000  15.0000 Du        
  36994 ****        19.0000  14.0000  15.2500 Du        
  36995 ****        19.0000  14.0000  15.5000 Du        
  36996 ****        19.0000  14.0000  15.7500 Du        
  36997 ****        19.0000  14.0000  16.0000 Du        
  36998 ****        19.0000  14.2500  14.7500 Du        
  36999 ****        19.0000  14.2500  15.0000 Du        
  37000 ****        19.0000  14.2500  15.2500 Du        
  37001 ****        19.0000  14.2500  15.5000 Du        
  37002 ****        19.0000  14.2500  15.7500 Du        
  37003 ****        19.0000  14.2500  16.0000 Du        
  37004 ****        19.0000  14.5000  14.7500 Du        
  37005 ****        19.0000  14.5000  15.0000 Du        
  37006 ****        19.0000  14.5000  15.2500 Du        
  37007 ****        19.0000  14.5000  15.5000 Du        
  37008 ****        19.0000  14.5000  15.7500 Du        
  37009 ****        19.0000  14.7500  14.7500 Du        
  37010 ****        19.0000  14.7500  15.0000 Du        
  37011 ****        19.0000  14.7500  15.2500 Du        
  37012 ****        19.0000  14.7500  15.5000 Du        
  37013 ****        19.0000  14.7500  15.7500 Du        
  37014 ****        19.0000  14.7500  32.2500 Du        
  37015 ****        19.0000  15.0000  14.7500 Du        
  37016 ****        19.0000  15.0000  15.0000 Du        
  37017 ****        19.0000  15.0000  15.2500 Du        
  37018 ****        19.0000  15.0000  15.5000 Du        
  37019 ****        19.0000  15.0000  15.7500 Du        
  37020 ****        19.0000  15.0000  32.0000 Du        
  37021 ****        19.0000  15.0000  32.2500 Du        
  37022 ****        19.0000  15.0000  32.5000 Du        
  37023 ****        19.0000  15.2500  14.7500 Du        
  37024 ****        19.0000  15.2500  15.0000 Du        
  37025 ****        19.0000  15.2500  15.2500 Du        
  37026 ****        19.0000  15.2500  32.2500 Du        
  37027 ****        19.0000  15.5000  32.2500 Du        
  37028 ****        19.0000  15.5000  32.5000 Du        
  37029 ****        19.0000  15.5000  32.7500 Du        
  37030 ****        19.0000  15.7500  32.2500 Du        
  37031 ****        19.0000  15.7500  32.5000 Du        
  37032 ****        19.0000  15.7500  32.7500 Du        
  37033 ****        19.0000  16.0000  32.2500 Du        
  37034 ****        19.0000  16.0000  32.5000 Du        
  37035 ****        19.0000  16.0000  32.7500 Du        
  37036 ****        19.0000  16.7500  13.7500 Du        
  37037 ****        19.0000  17.0000  13.0000 Du        
  37038 ****        19.0000  17.0000  13.2500 Du        
  37039 ****        19.0000  17.0000  13.5000 Du        
  37040 ****        19.0000  17.0000  13.7500 Du        
  37041 ****        19.0000  17.2500  11.7500 Du        
  37042 ****        19.0000  17.2500  12.0000 Du        
  37043 ****        19.0000  17.2500  12.2500 Du        
  37044 ****        19.0000  17.2500  12.5000 Du        
  37045 ****        19.0000  17.2500  12.7500 Du        
  37046 ****        19.0000  17.2500  13.0000 Du        
  37047 ****        19.0000  17.2500  13.2500 Du        
  37048 ****        19.0000  17.2500  13.5000 Du        
  37049 ****        19.0000  17.2500  13.7500 Du        
  37050 ****        19.0000  17.5000  11.7500 Du        
  37051 ****        19.0000  17.5000  12.0000 Du        
  37052 ****        19.0000  17.5000  12.2500 Du        
  37053 ****        19.0000  17.5000  12.5000 Du        
  37054 ****        19.0000  17.5000  12.7500 Du        
  37055 ****        19.0000  17.5000  13.0000 Du        
  37056 ****        19.0000  17.5000  13.2500 Du        
  37057 ****        19.0000  17.5000  13.5000 Du        
  37058 ****        19.0000  17.5000  13.7500 Du        
  37059 ****        19.0000  17.7500  11.7500 Du        
  37060 ****        19.0000  17.7500  12.0000 Du        
  37061 ****        19.0000  17.7500  12.2500 Du        
  37062 ****        19.0000  17.7500  12.5000 Du        
  37063 ****        19.0000  17.7500  12.7500 Du        
  37064 ****        19.0000  17.7500  13.0000 Du        
  37065 ****        19.0000  17.7500  13.2500 Du        
  37066 ****        19.0000  17.7500  13.5000 Du        
  37067 ****        19.0000  18.0000  11.7500 Du        
  37068 ****        19.0000  18.0000  12.0000 Du        
  37069 ****        19.0000  18.0000  12.2500 Du        
  37070 ****        19.0000  18.0000  12.5000 Du        
  37071 ****        19.0000  18.0000  12.7500 Du        
  37072 ****        19.0000  18.0000  13.0000 Du        
  37073 ****        19.0000  18.0000  13.2500 Du        
  37074 ****        19.0000  18.2500  11.7500 Du        
  37075 ****        19.0000  18.2500  12.0000 Du        
  37076 ****        19.0000  18.2500  12.2500 Du        
  37077 ****        19.0000  18.2500  12.5000 Du        
  37078 ****        19.0000  18.2500  12.7500 Du        
  37079 ****        19.0000  18.2500  13.0000 Du        
  37080 ****        19.0000  18.5000  12.0000 Du        
  37081 ****        19.0000  18.5000  12.2500 Du        
  37082 ****        19.0000  18.5000  12.5000 Du        
  37083 ****        19.0000  18.5000  12.7500 Du        
  37084 ****        19.0000  18.5000  13.0000 Du        
  37085 ****        19.0000  18.7500  12.0000 Du        
  37086 ****        19.0000  18.7500  12.2500 Du        
  37087 ****        19.0000  18.7500  12.5000 Du        
  37088 ****        19.0000  18.7500  12.7500 Du        
  37089 ****        19.0000  19.0000  12.0000 Du        
  37090 ****        19.0000  19.0000  12.2500 Du        
  37091 ****        19.0000  19.0000  12.5000 Du        
  37092 ****        19.0000  19.2500  12.2500 Du        
  37093 ****        19.0000  20.2500  36.2500 Du        
  37094 ****        19.2500   0.7500   1.7500 Du        
  37095 ****        19.2500   0.7500   2.0000 Du        
  37096 ****        19.2500   0.7500   2.2500 Du        
  37097 ****        19.2500   0.7500   2.5000 Du        
  37098 ****        19.2500   1.0000   1.5000 Du        
  37099 ****        19.2500   1.0000   1.7500 Du        
  37100 ****        19.2500   1.0000   2.0000 Du        
  37101 ****        19.2500   1.0000   2.2500 Du        
  37102 ****        19.2500   1.0000   2.5000 Du        
  37103 ****        19.2500   1.2500   1.5000 Du        
  37104 ****        19.2500   1.2500   1.7500 Du        
  37105 ****        19.2500   1.2500   2.0000 Du        
  37106 ****        19.2500   1.2500   2.2500 Du        
  37107 ****        19.2500   1.2500   2.5000 Du        
  37108 ****        19.2500   1.5000   1.0000 Du        
  37109 ****        19.2500   1.5000   1.2500 Du        
  37110 ****        19.2500   1.5000   1.5000 Du        
  37111 ****        19.2500   1.5000   1.7500 Du        
  37112 ****        19.2500   1.5000   2.0000 Du        
  37113 ****        19.2500   1.5000   2.2500 Du        
  37114 ****        19.2500   1.5000   2.5000 Du        
  37115 ****        19.2500   1.7500   1.0000 Du        
  37116 ****        19.2500   1.7500   1.2500 Du        
  37117 ****        19.2500   1.7500   1.5000 Du        
  37118 ****        19.2500   1.7500   1.7500 Du        
  37119 ****        19.2500   1.7500   2.0000 Du        
  37120 ****        19.2500   1.7500   2.2500 Du        
  37121 ****        19.2500   1.7500   2.5000 Du        
  37122 ****        19.2500   1.7500   2.7500 Du        
  37123 ****        19.2500   2.0000   0.7500 Du        
  37124 ****        19.2500   2.0000   1.0000 Du        
  37125 ****        19.2500   2.0000   1.2500 Du        
  37126 ****        19.2500   2.0000   1.5000 Du        
  37127 ****        19.2500   2.0000   1.7500 Du        
  37128 ****        19.2500   2.0000   2.0000 Du        
  37129 ****        19.2500   2.0000   2.2500 Du        
  37130 ****        19.2500   2.0000   2.5000 Du        
  37131 ****        19.2500   2.0000   2.7500 Du        
  37132 ****        19.2500   2.2500   0.7500 Du        
  37133 ****        19.2500   2.2500   1.0000 Du        
  37134 ****        19.2500   2.2500   1.2500 Du        
  37135 ****        19.2500   2.2500   1.5000 Du        
  37136 ****        19.2500   2.2500   1.7500 Du        
  37137 ****        19.2500   2.2500   2.0000 Du        
  37138 ****        19.2500   2.2500   2.2500 Du        
  37139 ****        19.2500   2.2500   2.5000 Du        
  37140 ****        19.2500   2.2500   2.7500 Du        
  37141 ****        19.2500   2.2500  23.2500 Du        
  37142 ****        19.2500   2.2500  23.5000 Du        
  37143 ****        19.2500   2.2500  23.7500 Du        
  37144 ****        19.2500   2.2500  24.0000 Du        
  37145 ****        19.2500   2.2500  24.2500 Du        
  37146 ****        19.2500   2.5000   0.7500 Du        
  37147 ****        19.2500   2.5000   1.0000 Du        
  37148 ****        19.2500   2.5000   1.2500 Du        
  37149 ****        19.2500   2.5000   1.5000 Du        
  37150 ****        19.2500   2.5000   1.7500 Du        
  37151 ****        19.2500   2.5000   2.0000 Du        
  37152 ****        19.2500   2.5000   2.2500 Du        
  37153 ****        19.2500   2.5000   2.5000 Du        
  37154 ****        19.2500   2.5000   2.7500 Du        
  37155 ****        19.2500   2.5000  23.5000 Du        
  37156 ****        19.2500   2.5000  23.7500 Du        
  37157 ****        19.2500   2.5000  24.0000 Du        
  37158 ****        19.2500   2.5000  24.2500 Du        
  37159 ****        19.2500   2.7500   0.5000 Du        
  37160 ****        19.2500   2.7500   0.7500 Du        
  37161 ****        19.2500   2.7500   1.0000 Du        
  37162 ****        19.2500   2.7500   1.2500 Du        
  37163 ****        19.2500   2.7500   1.5000 Du        
  37164 ****        19.2500   2.7500   1.7500 Du        
  37165 ****        19.2500   2.7500   2.0000 Du        
  37166 ****        19.2500   2.7500   2.2500 Du        
  37167 ****        19.2500   2.7500   2.5000 Du        
  37168 ****        19.2500   2.7500   2.7500 Du        
  37169 ****        19.2500   2.7500   3.0000 Du        
  37170 ****        19.2500   2.7500  23.5000 Du        
  37171 ****        19.2500   2.7500  23.7500 Du        
  37172 ****        19.2500   2.7500  24.0000 Du        
  37173 ****        19.2500   2.7500  24.2500 Du        
  37174 ****        19.2500   3.0000  -0.2500 Du        
  37175 ****        19.2500   3.0000   0.0000 Du        
  37176 ****        19.2500   3.0000   0.2500 Du        
  37177 ****        19.2500   3.0000   0.5000 Du        
  37178 ****        19.2500   3.0000   0.7500 Du        
  37179 ****        19.2500   3.0000   1.0000 Du        
  37180 ****        19.2500   3.0000   1.2500 Du        
  37181 ****        19.2500   3.0000   1.5000 Du        
  37182 ****        19.2500   3.0000   1.7500 Du        
  37183 ****        19.2500   3.0000   2.0000 Du        
  37184 ****        19.2500   3.0000   2.2500 Du        
  37185 ****        19.2500   3.0000   2.5000 Du        
  37186 ****        19.2500   3.0000   2.7500 Du        
  37187 ****        19.2500   3.0000   3.0000 Du        
  37188 ****        19.2500   3.0000   3.2500 Du        
  37189 ****        19.2500   3.0000  23.5000 Du        
  37190 ****        19.2500   3.0000  23.7500 Du        
  37191 ****        19.2500   3.0000  24.0000 Du        
  37192 ****        19.2500   3.0000  24.2500 Du        
  37193 ****        19.2500   3.2500  -0.2500 Du        
  37194 ****        19.2500   3.2500   0.0000 Du        
  37195 ****        19.2500   3.2500   0.2500 Du        
  37196 ****        19.2500   3.2500   0.5000 Du        
  37197 ****        19.2500   3.2500   0.7500 Du        
  37198 ****        19.2500   3.2500   1.0000 Du        
  37199 ****        19.2500   3.2500   1.2500 Du        
  37200 ****        19.2500   3.2500   1.5000 Du        
  37201 ****        19.2500   3.2500   1.7500 Du        
  37202 ****        19.2500   3.2500   2.0000 Du        
  37203 ****        19.2500   3.2500   2.2500 Du        
  37204 ****        19.2500   3.2500   2.5000 Du        
  37205 ****        19.2500   3.2500   2.7500 Du        
  37206 ****        19.2500   3.2500   3.0000 Du        
  37207 ****        19.2500   3.2500   3.2500 Du        
  37208 ****        19.2500   3.2500   3.5000 Du        
  37209 ****        19.2500   3.2500  23.7500 Du        
  37210 ****        19.2500   3.2500  24.0000 Du        
  37211 ****        19.2500   3.2500  24.2500 Du        
  37212 ****        19.2500   3.2500  24.5000 Du        
  37213 ****        19.2500   3.5000  -2.5000 Du        
  37214 ****        19.2500   3.5000  -2.2500 Du        
  37215 ****        19.2500   3.5000  -2.0000 Du        
  37216 ****        19.2500   3.5000  -1.7500 Du        
  37217 ****        19.2500   3.5000  -1.5000 Du        
  37218 ****        19.2500   3.5000  -1.2500 Du        
  37219 ****        19.2500   3.5000  -0.7500 Du        
  37220 ****        19.2500   3.5000  -0.5000 Du        
  37221 ****        19.2500   3.5000  -0.2500 Du        
  37222 ****        19.2500   3.5000   0.0000 Du        
  37223 ****        19.2500   3.5000   0.2500 Du        
  37224 ****        19.2500   3.5000   0.5000 Du        
  37225 ****        19.2500   3.5000   0.7500 Du        
  37226 ****        19.2500   3.5000   1.0000 Du        
  37227 ****        19.2500   3.5000   1.2500 Du        
  37228 ****        19.2500   3.5000   1.5000 Du        
  37229 ****        19.2500   3.5000   1.7500 Du        
  37230 ****        19.2500   3.5000   2.0000 Du        
  37231 ****        19.2500   3.5000   2.2500 Du        
  37232 ****        19.2500   3.5000   2.5000 Du        
  37233 ****        19.2500   3.5000   2.7500 Du        
  37234 ****        19.2500   3.5000   3.0000 Du        
  37235 ****        19.2500   3.5000   3.2500 Du        
  37236 ****        19.2500   3.5000   3.5000 Du        
  37237 ****        19.2500   3.5000   3.7500 Du        
  37238 ****        19.2500   3.5000  23.7500 Du        
  37239 ****        19.2500   3.5000  24.0000 Du        
  37240 ****        19.2500   3.5000  24.2500 Du        
  37241 ****        19.2500   3.5000  24.5000 Du        
  37242 ****        19.2500   3.5000  24.7500 Du        
  37243 ****        19.2500   3.7500  -2.5000 Du        
  37244 ****        19.2500   3.7500  -2.2500 Du        
  37245 ****        19.2500   3.7500  -2.0000 Du        
  37246 ****        19.2500   3.7500  -1.7500 Du        
  37247 ****        19.2500   3.7500  -1.5000 Du        
  37248 ****        19.2500   3.7500  -1.2500 Du        
  37249 ****        19.2500   3.7500  -1.0000 Du        
  37250 ****        19.2500   3.7500  -0.7500 Du        
  37251 ****        19.2500   3.7500  -0.5000 Du        
  37252 ****        19.2500   3.7500  -0.2500 Du        
  37253 ****        19.2500   3.7500   0.0000 Du        
  37254 ****        19.2500   3.7500   0.2500 Du        
  37255 ****        19.2500   3.7500   0.5000 Du        
  37256 ****        19.2500   3.7500   0.7500 Du        
  37257 ****        19.2500   3.7500   1.0000 Du        
  37258 ****        19.2500   3.7500   1.2500 Du        
  37259 ****        19.2500   3.7500   1.5000 Du        
  37260 ****        19.2500   3.7500   1.7500 Du        
  37261 ****        19.2500   3.7500   2.0000 Du        
  37262 ****        19.2500   3.7500   2.2500 Du        
  37263 ****        19.2500   3.7500   2.5000 Du        
  37264 ****        19.2500   3.7500   2.7500 Du        
  37265 ****        19.2500   3.7500   3.0000 Du        
  37266 ****        19.2500   3.7500   3.2500 Du        
  37267 ****        19.2500   3.7500   3.5000 Du        
  37268 ****        19.2500   3.7500   3.7500 Du        
  37269 ****        19.2500   3.7500   4.0000 Du        
  37270 ****        19.2500   3.7500  24.0000 Du        
  37271 ****        19.2500   3.7500  24.2500 Du        
  37272 ****        19.2500   3.7500  24.5000 Du        
  37273 ****        19.2500   3.7500  24.7500 Du        
  37274 ****        19.2500   3.7500  25.0000 Du        
  37275 ****        19.2500   4.0000  -2.5000 Du        
  37276 ****        19.2500   4.0000  -2.2500 Du        
  37277 ****        19.2500   4.0000  -2.0000 Du        
  37278 ****        19.2500   4.0000  -1.7500 Du        
  37279 ****        19.2500   4.0000  -1.5000 Du        
  37280 ****        19.2500   4.0000  -1.2500 Du        
  37281 ****        19.2500   4.0000  -1.0000 Du        
  37282 ****        19.2500   4.0000  -0.7500 Du        
  37283 ****        19.2500   4.0000  -0.5000 Du        
  37284 ****        19.2500   4.0000  -0.2500 Du        
  37285 ****        19.2500   4.0000   0.0000 Du        
  37286 ****        19.2500   4.0000   0.2500 Du        
  37287 ****        19.2500   4.0000   0.5000 Du        
  37288 ****        19.2500   4.0000   0.7500 Du        
  37289 ****        19.2500   4.0000   1.0000 Du        
  37290 ****        19.2500   4.0000   1.2500 Du        
  37291 ****        19.2500   4.0000   1.5000 Du        
  37292 ****        19.2500   4.0000   1.7500 Du        
  37293 ****        19.2500   4.0000   2.0000 Du        
  37294 ****        19.2500   4.0000   2.2500 Du        
  37295 ****        19.2500   4.0000   2.5000 Du        
  37296 ****        19.2500   4.0000   2.7500 Du        
  37297 ****        19.2500   4.0000   3.0000 Du        
  37298 ****        19.2500   4.0000   3.2500 Du        
  37299 ****        19.2500   4.0000   3.5000 Du        
  37300 ****        19.2500   4.0000   3.7500 Du        
  37301 ****        19.2500   4.0000   4.0000 Du        
  37302 ****        19.2500   4.0000   4.2500 Du        
  37303 ****        19.2500   4.0000  24.0000 Du        
  37304 ****        19.2500   4.0000  24.2500 Du        
  37305 ****        19.2500   4.0000  24.5000 Du        
  37306 ****        19.2500   4.0000  24.7500 Du        
  37307 ****        19.2500   4.0000  25.0000 Du        
  37308 ****        19.2500   4.2500  -2.5000 Du        
  37309 ****        19.2500   4.2500  -2.2500 Du        
  37310 ****        19.2500   4.2500  -2.0000 Du        
  37311 ****        19.2500   4.2500  -1.7500 Du        
  37312 ****        19.2500   4.2500  -1.5000 Du        
  37313 ****        19.2500   4.2500  -1.2500 Du        
  37314 ****        19.2500   4.2500  -1.0000 Du        
  37315 ****        19.2500   4.2500  -0.7500 Du        
  37316 ****        19.2500   4.2500  -0.2500 Du        
  37317 ****        19.2500   4.2500   0.0000 Du        
  37318 ****        19.2500   4.2500   0.2500 Du        
  37319 ****        19.2500   4.2500   0.5000 Du        
  37320 ****        19.2500   4.2500   0.7500 Du        
  37321 ****        19.2500   4.2500   1.0000 Du        
  37322 ****        19.2500   4.2500   1.2500 Du        
  37323 ****        19.2500   4.2500   1.5000 Du        
  37324 ****        19.2500   4.2500   1.7500 Du        
  37325 ****        19.2500   4.2500   2.0000 Du        
  37326 ****        19.2500   4.2500   2.2500 Du        
  37327 ****        19.2500   4.2500   2.5000 Du        
  37328 ****        19.2500   4.2500   2.7500 Du        
  37329 ****        19.2500   4.2500   3.0000 Du        
  37330 ****        19.2500   4.2500   3.2500 Du        
  37331 ****        19.2500   4.2500   3.5000 Du        
  37332 ****        19.2500   4.2500   3.7500 Du        
  37333 ****        19.2500   4.2500   4.0000 Du        
  37334 ****        19.2500   4.2500  24.2500 Du        
  37335 ****        19.2500   4.2500  24.5000 Du        
  37336 ****        19.2500   4.2500  24.7500 Du        
  37337 ****        19.2500   4.2500  25.0000 Du        
  37338 ****        19.2500   4.2500  25.2500 Du        
  37339 ****        19.2500   4.5000  -2.2500 Du        
  37340 ****        19.2500   4.5000  -2.0000 Du        
  37341 ****        19.2500   4.5000  -1.7500 Du        
  37342 ****        19.2500   4.5000  -1.5000 Du        
  37343 ****        19.2500   4.5000  -1.2500 Du        
  37344 ****        19.2500   4.5000  -1.0000 Du        
  37345 ****        19.2500   4.5000  -0.7500 Du        
  37346 ****        19.2500   4.5000  -0.5000 Du        
  37347 ****        19.2500   4.5000  -0.2500 Du        
  37348 ****        19.2500   4.5000   0.0000 Du        
  37349 ****        19.2500   4.5000   0.2500 Du        
  37350 ****        19.2500   4.5000   0.5000 Du        
  37351 ****        19.2500   4.5000   0.7500 Du        
  37352 ****        19.2500   4.5000   1.0000 Du        
  37353 ****        19.2500   4.5000   1.2500 Du        
  37354 ****        19.2500   4.5000   1.5000 Du        
  37355 ****        19.2500   4.5000   1.7500 Du        
  37356 ****        19.2500   4.5000   2.0000 Du        
  37357 ****        19.2500   4.5000   2.2500 Du        
  37358 ****        19.2500   4.5000   2.5000 Du        
  37359 ****        19.2500   4.5000   2.7500 Du        
  37360 ****        19.2500   4.5000   3.0000 Du        
  37361 ****        19.2500   4.5000   3.2500 Du        
  37362 ****        19.2500   4.5000   3.5000 Du        
  37363 ****        19.2500   4.5000   3.7500 Du        
  37364 ****        19.2500   4.5000   4.0000 Du        
  37365 ****        19.2500   4.5000  24.7500 Du        
  37366 ****        19.2500   4.5000  25.0000 Du        
  37367 ****        19.2500   4.5000  25.2500 Du        
  37368 ****        19.2500   4.7500  -2.0000 Du        
  37369 ****        19.2500   4.7500  -1.7500 Du        
  37370 ****        19.2500   4.7500  -1.5000 Du        
  37371 ****        19.2500   4.7500  -1.2500 Du        
  37372 ****        19.2500   4.7500  -1.0000 Du        
  37373 ****        19.2500   4.7500  -0.7500 Du        
  37374 ****        19.2500   4.7500  -0.5000 Du        
  37375 ****        19.2500   4.7500  -0.2500 Du        
  37376 ****        19.2500   4.7500   0.0000 Du        
  37377 ****        19.2500   4.7500   0.2500 Du        
  37378 ****        19.2500   4.7500   0.5000 Du        
  37379 ****        19.2500   4.7500   0.7500 Du        
  37380 ****        19.2500   4.7500   1.0000 Du        
  37381 ****        19.2500   4.7500   1.2500 Du        
  37382 ****        19.2500   4.7500   1.5000 Du        
  37383 ****        19.2500   4.7500   1.7500 Du        
  37384 ****        19.2500   4.7500   2.0000 Du        
  37385 ****        19.2500   4.7500   2.2500 Du        
  37386 ****        19.2500   4.7500   2.5000 Du        
  37387 ****        19.2500   4.7500   2.7500 Du        
  37388 ****        19.2500   4.7500   3.0000 Du        
  37389 ****        19.2500   4.7500   3.2500 Du        
  37390 ****        19.2500   4.7500   3.5000 Du        
  37391 ****        19.2500   4.7500   3.7500 Du        
  37392 ****        19.2500   4.7500  25.0000 Du        
  37393 ****        19.2500   4.7500  25.2500 Du        
  37394 ****        19.2500   5.0000  -1.5000 Du        
  37395 ****        19.2500   5.0000  -1.2500 Du        
  37396 ****        19.2500   5.0000  -1.0000 Du        
  37397 ****        19.2500   5.0000  -0.7500 Du        
  37398 ****        19.2500   5.0000  -0.5000 Du        
  37399 ****        19.2500   5.0000  -0.2500 Du        
  37400 ****        19.2500   5.0000   0.0000 Du        
  37401 ****        19.2500   5.0000   0.2500 Du        
  37402 ****        19.2500   5.0000   0.5000 Du        
  37403 ****        19.2500   5.0000   0.7500 Du        
  37404 ****        19.2500   5.0000   1.0000 Du        
  37405 ****        19.2500   5.0000   1.2500 Du        
  37406 ****        19.2500   5.0000   1.5000 Du        
  37407 ****        19.2500   5.0000   1.7500 Du        
  37408 ****        19.2500   5.0000   2.0000 Du        
  37409 ****        19.2500   5.0000   2.2500 Du        
  37410 ****        19.2500   5.0000   2.5000 Du        
  37411 ****        19.2500   5.0000   2.7500 Du        
  37412 ****        19.2500   5.0000   3.0000 Du        
  37413 ****        19.2500   5.0000   3.2500 Du        
  37414 ****        19.2500   5.0000   3.5000 Du        
  37415 ****        19.2500   5.0000  25.2500 Du        
  37416 ****        19.2500   5.2500  -0.2500 Du        
  37417 ****        19.2500   5.2500   0.0000 Du        
  37418 ****        19.2500   5.2500   0.2500 Du        
  37419 ****        19.2500   5.2500   0.5000 Du        
  37420 ****        19.2500   5.2500   0.7500 Du        
  37421 ****        19.2500   5.2500   1.0000 Du        
  37422 ****        19.2500   5.2500   1.2500 Du        
  37423 ****        19.2500   5.2500   1.5000 Du        
  37424 ****        19.2500   5.2500   1.7500 Du        
  37425 ****        19.2500   5.2500   2.0000 Du        
  37426 ****        19.2500   5.2500   2.2500 Du        
  37427 ****        19.2500   5.2500   2.5000 Du        
  37428 ****        19.2500   5.2500   2.7500 Du        
  37429 ****        19.2500   5.2500   3.0000 Du        
  37430 ****        19.2500   5.2500   3.2500 Du        
  37431 ****        19.2500   5.2500   3.5000 Du        
  37432 ****        19.2500   5.5000   0.2500 Du        
  37433 ****        19.2500   5.5000   0.5000 Du        
  37434 ****        19.2500   5.5000   0.7500 Du        
  37435 ****        19.2500   5.5000   1.0000 Du        
  37436 ****        19.2500   5.5000   1.2500 Du        
  37437 ****        19.2500   5.5000   1.5000 Du        
  37438 ****        19.2500   5.5000   1.7500 Du        
  37439 ****        19.2500   5.5000   2.0000 Du        
  37440 ****        19.2500   5.5000   2.2500 Du        
  37441 ****        19.2500   5.5000   2.5000 Du        
  37442 ****        19.2500   5.5000   2.7500 Du        
  37443 ****        19.2500   5.5000   3.0000 Du        
  37444 ****        19.2500   5.5000   3.2500 Du        
  37445 ****        19.2500   5.5000   3.5000 Du        
  37446 ****        19.2500   5.7500   0.7500 Du        
  37447 ****        19.2500   5.7500   1.0000 Du        
  37448 ****        19.2500   5.7500   1.2500 Du        
  37449 ****        19.2500   5.7500   1.5000 Du        
  37450 ****        19.2500   5.7500   1.7500 Du        
  37451 ****        19.2500   5.7500   2.0000 Du        
  37452 ****        19.2500   5.7500   2.2500 Du        
  37453 ****        19.2500   5.7500   2.5000 Du        
  37454 ****        19.2500   5.7500   2.7500 Du        
  37455 ****        19.2500   5.7500   3.0000 Du        
  37456 ****        19.2500   5.7500   3.2500 Du        
  37457 ****        19.2500   5.7500   3.5000 Du        
  37458 ****        19.2500   5.7500  32.5000 Du        
  37459 ****        19.2500   6.0000   1.0000 Du        
  37460 ****        19.2500   6.0000   1.2500 Du        
  37461 ****        19.2500   6.0000   1.5000 Du        
  37462 ****        19.2500   6.0000   1.7500 Du        
  37463 ****        19.2500   6.0000   2.0000 Du        
  37464 ****        19.2500   6.0000   2.2500 Du        
  37465 ****        19.2500   6.0000   2.5000 Du        
  37466 ****        19.2500   6.0000   2.7500 Du        
  37467 ****        19.2500   6.0000   3.0000 Du        
  37468 ****        19.2500   6.0000   3.2500 Du        
  37469 ****        19.2500   6.2500   1.2500 Du        
  37470 ****        19.2500   6.2500   1.5000 Du        
  37471 ****        19.2500   6.2500   1.7500 Du        
  37472 ****        19.2500   6.2500   2.0000 Du        
  37473 ****        19.2500   6.2500   2.2500 Du        
  37474 ****        19.2500   6.2500   2.5000 Du        
  37475 ****        19.2500   6.2500   2.7500 Du        
  37476 ****        19.2500   6.2500   3.0000 Du        
  37477 ****        19.2500   6.2500   3.2500 Du        
  37478 ****        19.2500   6.5000   1.5000 Du        
  37479 ****        19.2500   6.5000   1.7500 Du        
  37480 ****        19.2500   6.5000   2.0000 Du        
  37481 ****        19.2500   6.5000   2.2500 Du        
  37482 ****        19.2500   6.5000   2.5000 Du        
  37483 ****        19.2500   6.5000   2.7500 Du        
  37484 ****        19.2500   6.5000   3.0000 Du        
  37485 ****        19.2500   6.5000   3.2500 Du        
  37486 ****        19.2500   6.7500   1.7500 Du        
  37487 ****        19.2500   6.7500   2.0000 Du        
  37488 ****        19.2500   6.7500   2.2500 Du        
  37489 ****        19.2500   6.7500   2.5000 Du        
  37490 ****        19.2500   9.2500  25.5000 Du        
  37491 ****        19.2500   9.5000  25.5000 Du        
  37492 ****        19.2500   9.7500  25.2500 Du        
  37493 ****        19.2500   9.7500  25.5000 Du        
  37494 ****        19.2500  10.0000  25.2500 Du        
  37495 ****        19.2500  10.0000  25.5000 Du        
  37496 ****        19.2500  14.0000  15.0000 Du        
  37497 ****        19.2500  14.0000  15.2500 Du        
  37498 ****        19.2500  14.0000  15.5000 Du        
  37499 ****        19.2500  14.0000  15.7500 Du        
  37500 ****        19.2500  14.2500  15.0000 Du        
  37501 ****        19.2500  14.2500  15.2500 Du        
  37502 ****        19.2500  14.2500  15.5000 Du        
  37503 ****        19.2500  14.2500  15.7500 Du        
  37504 ****        19.2500  14.5000  15.0000 Du        
  37505 ****        19.2500  14.5000  15.2500 Du        
  37506 ****        19.2500  14.5000  15.5000 Du        
  37507 ****        19.2500  14.5000  15.7500 Du        
  37508 ****        19.2500  14.7500  14.7500 Du        
  37509 ****        19.2500  14.7500  15.0000 Du        
  37510 ****        19.2500  14.7500  15.2500 Du        
  37511 ****        19.2500  14.7500  15.5000 Du        
  37512 ****        19.2500  14.7500  15.7500 Du        
  37513 ****        19.2500  14.7500  32.2500 Du        
  37514 ****        19.2500  15.0000  14.7500 Du        
  37515 ****        19.2500  15.0000  15.0000 Du        
  37516 ****        19.2500  15.0000  15.2500 Du        
  37517 ****        19.2500  15.0000  15.5000 Du        
  37518 ****        19.2500  15.0000  15.7500 Du        
  37519 ****        19.2500  15.0000  32.2500 Du        
  37520 ****        19.2500  15.2500  14.7500 Du        
  37521 ****        19.2500  15.2500  15.0000 Du        
  37522 ****        19.2500  15.2500  15.2500 Du        
  37523 ****        19.2500  15.2500  32.2500 Du        
  37524 ****        19.2500  15.2500  32.5000 Du        
  37525 ****        19.2500  15.5000  32.2500 Du        
  37526 ****        19.2500  15.5000  32.5000 Du        
  37527 ****        19.2500  15.7500  32.2500 Du        
  37528 ****        19.2500  15.7500  32.5000 Du        
  37529 ****        19.2500  17.0000  13.5000 Du        
  37530 ****        19.2500  17.0000  13.7500 Du        
  37531 ****        19.2500  17.2500  12.0000 Du        
  37532 ****        19.2500  17.2500  12.2500 Du        
  37533 ****        19.2500  17.2500  12.5000 Du        
  37534 ****        19.2500  17.2500  12.7500 Du        
  37535 ****        19.2500  17.2500  13.0000 Du        
  37536 ****        19.2500  17.2500  13.2500 Du        
  37537 ****        19.2500  17.2500  13.5000 Du        
  37538 ****        19.2500  17.2500  13.7500 Du        
  37539 ****        19.2500  17.5000  11.7500 Du        
  37540 ****        19.2500  17.5000  12.0000 Du        
  37541 ****        19.2500  17.5000  12.2500 Du        
  37542 ****        19.2500  17.5000  12.5000 Du        
  37543 ****        19.2500  17.5000  12.7500 Du        
  37544 ****        19.2500  17.5000  13.0000 Du        
  37545 ****        19.2500  17.5000  13.2500 Du        
  37546 ****        19.2500  17.5000  13.5000 Du        
  37547 ****        19.2500  17.5000  13.7500 Du        
  37548 ****        19.2500  17.7500  11.7500 Du        
  37549 ****        19.2500  17.7500  12.0000 Du        
  37550 ****        19.2500  17.7500  12.2500 Du        
  37551 ****        19.2500  17.7500  12.5000 Du        
  37552 ****        19.2500  17.7500  12.7500 Du        
  37553 ****        19.2500  17.7500  13.0000 Du        
  37554 ****        19.2500  17.7500  13.2500 Du        
  37555 ****        19.2500  17.7500  13.5000 Du        
  37556 ****        19.2500  17.7500  13.7500 Du        
  37557 ****        19.2500  18.0000  11.7500 Du        
  37558 ****        19.2500  18.0000  12.0000 Du        
  37559 ****        19.2500  18.0000  12.2500 Du        
  37560 ****        19.2500  18.0000  12.5000 Du        
  37561 ****        19.2500  18.0000  12.7500 Du        
  37562 ****        19.2500  18.0000  13.0000 Du        
  37563 ****        19.2500  18.0000  13.2500 Du        
  37564 ****        19.2500  18.0000  13.5000 Du        
  37565 ****        19.2500  18.2500  11.7500 Du        
  37566 ****        19.2500  18.2500  12.0000 Du        
  37567 ****        19.2500  18.2500  12.2500 Du        
  37568 ****        19.2500  18.2500  12.5000 Du        
  37569 ****        19.2500  18.2500  12.7500 Du        
  37570 ****        19.2500  18.2500  13.0000 Du        
  37571 ****        19.2500  18.2500  13.2500 Du        
  37572 ****        19.2500  18.2500  13.5000 Du        
  37573 ****        19.2500  18.5000  12.0000 Du        
  37574 ****        19.2500  18.5000  12.2500 Du        
  37575 ****        19.2500  18.5000  12.5000 Du        
  37576 ****        19.2500  18.5000  12.7500 Du        
  37577 ****        19.2500  18.5000  13.0000 Du        
  37578 ****        19.2500  18.5000  13.2500 Du        
  37579 ****        19.2500  18.7500  12.0000 Du        
  37580 ****        19.2500  18.7500  12.2500 Du        
  37581 ****        19.2500  18.7500  12.5000 Du        
  37582 ****        19.2500  18.7500  12.7500 Du        
  37583 ****        19.2500  18.7500  13.0000 Du        
  37584 ****        19.2500  19.0000  12.0000 Du        
  37585 ****        19.2500  19.0000  12.2500 Du        
  37586 ****        19.2500  19.0000  12.5000 Du        
  37587 ****        19.2500  19.0000  12.7500 Du        
  37588 ****        19.2500  19.2500  12.2500 Du        
  37589 ****        19.2500  19.2500  12.5000 Du        
  37590 ****        19.2500  20.2500  36.2500 Du        
  37591 ****        19.5000  -0.2500  18.2500 Du        
  37592 ****        19.5000   0.0000  18.2500 Du        
  37593 ****        19.5000   0.7500   2.0000 Du        
  37594 ****        19.5000   0.7500   2.2500 Du        
  37595 ****        19.5000   0.7500   2.5000 Du        
  37596 ****        19.5000   0.7500   2.7500 Du        
  37597 ****        19.5000   1.0000   1.5000 Du        
  37598 ****        19.5000   1.0000   1.7500 Du        
  37599 ****        19.5000   1.0000   2.0000 Du        
  37600 ****        19.5000   1.0000   2.2500 Du        
  37601 ****        19.5000   1.0000   2.5000 Du        
  37602 ****        19.5000   1.0000   2.7500 Du        
  37603 ****        19.5000   1.2500   1.2500 Du        
  37604 ****        19.5000   1.2500   1.5000 Du        
  37605 ****        19.5000   1.2500   1.7500 Du        
  37606 ****        19.5000   1.2500   2.0000 Du        
  37607 ****        19.5000   1.2500   2.2500 Du        
  37608 ****        19.5000   1.2500   2.5000 Du        
  37609 ****        19.5000   1.2500   2.7500 Du        
  37610 ****        19.5000   1.5000   1.2500 Du        
  37611 ****        19.5000   1.5000   1.5000 Du        
  37612 ****        19.5000   1.5000   1.7500 Du        
  37613 ****        19.5000   1.5000   2.0000 Du        
  37614 ****        19.5000   1.5000   2.2500 Du        
  37615 ****        19.5000   1.5000   2.5000 Du        
  37616 ****        19.5000   1.5000   2.7500 Du        
  37617 ****        19.5000   1.7500   1.0000 Du        
  37618 ****        19.5000   1.7500   1.2500 Du        
  37619 ****        19.5000   1.7500   1.5000 Du        
  37620 ****        19.5000   1.7500   1.7500 Du        
  37621 ****        19.5000   1.7500   2.0000 Du        
  37622 ****        19.5000   1.7500   2.2500 Du        
  37623 ****        19.5000   1.7500   2.5000 Du        
  37624 ****        19.5000   1.7500   2.7500 Du        
  37625 ****        19.5000   2.0000   1.0000 Du        
  37626 ****        19.5000   2.0000   1.2500 Du        
  37627 ****        19.5000   2.0000   1.5000 Du        
  37628 ****        19.5000   2.0000   1.7500 Du        
  37629 ****        19.5000   2.0000   2.0000 Du        
  37630 ****        19.5000   2.0000   2.2500 Du        
  37631 ****        19.5000   2.0000   2.5000 Du        
  37632 ****        19.5000   2.0000   2.7500 Du        
  37633 ****        19.5000   2.2500   1.0000 Du        
  37634 ****        19.5000   2.2500   1.2500 Du        
  37635 ****        19.5000   2.2500   1.5000 Du        
  37636 ****        19.5000   2.2500   1.7500 Du        
  37637 ****        19.5000   2.2500   2.0000 Du        
  37638 ****        19.5000   2.2500   2.2500 Du        
  37639 ****        19.5000   2.2500   2.5000 Du        
  37640 ****        19.5000   2.2500   2.7500 Du        
  37641 ****        19.5000   2.2500   3.0000 Du        
  37642 ****        19.5000   2.5000   0.7500 Du        
  37643 ****        19.5000   2.5000   1.0000 Du        
  37644 ****        19.5000   2.5000   1.2500 Du        
  37645 ****        19.5000   2.5000   1.5000 Du        
  37646 ****        19.5000   2.5000   1.7500 Du        
  37647 ****        19.5000   2.5000   2.0000 Du        
  37648 ****        19.5000   2.5000   2.2500 Du        
  37649 ****        19.5000   2.5000   2.5000 Du        
  37650 ****        19.5000   2.5000   2.7500 Du        
  37651 ****        19.5000   2.5000   3.0000 Du        
  37652 ****        19.5000   2.7500   0.7500 Du        
  37653 ****        19.5000   2.7500   1.0000 Du        
  37654 ****        19.5000   2.7500   1.2500 Du        
  37655 ****        19.5000   2.7500   1.5000 Du        
  37656 ****        19.5000   2.7500   1.7500 Du        
  37657 ****        19.5000   2.7500   2.0000 Du        
  37658 ****        19.5000   2.7500   2.2500 Du        
  37659 ****        19.5000   2.7500   2.5000 Du        
  37660 ****        19.5000   2.7500   2.7500 Du        
  37661 ****        19.5000   2.7500   3.0000 Du        
  37662 ****        19.5000   2.7500   3.2500 Du        
  37663 ****        19.5000   3.0000   0.2500 Du        
  37664 ****        19.5000   3.0000   0.5000 Du        
  37665 ****        19.5000   3.0000   0.7500 Du        
  37666 ****        19.5000   3.0000   1.0000 Du        
  37667 ****        19.5000   3.0000   1.2500 Du        
  37668 ****        19.5000   3.0000   1.5000 Du        
  37669 ****        19.5000   3.0000   1.7500 Du        
  37670 ****        19.5000   3.0000   2.0000 Du        
  37671 ****        19.5000   3.0000   2.2500 Du        
  37672 ****        19.5000   3.0000   2.5000 Du        
  37673 ****        19.5000   3.0000   2.7500 Du        
  37674 ****        19.5000   3.0000   3.0000 Du        
  37675 ****        19.5000   3.0000   3.2500 Du        
  37676 ****        19.5000   3.0000   3.5000 Du        
  37677 ****        19.5000   3.2500  -0.5000 Du        
  37678 ****        19.5000   3.2500  -0.2500 Du        
  37679 ****        19.5000   3.2500   0.0000 Du        
  37680 ****        19.5000   3.2500   0.2500 Du        
  37681 ****        19.5000   3.2500   0.5000 Du        
  37682 ****        19.5000   3.2500   0.7500 Du        
  37683 ****        19.5000   3.2500   1.0000 Du        
  37684 ****        19.5000   3.2500   1.2500 Du        
  37685 ****        19.5000   3.2500   1.5000 Du        
  37686 ****        19.5000   3.2500   1.7500 Du        
  37687 ****        19.5000   3.2500   2.0000 Du        
  37688 ****        19.5000   3.2500   2.2500 Du        
  37689 ****        19.5000   3.2500   2.5000 Du        
  37690 ****        19.5000   3.2500   2.7500 Du        
  37691 ****        19.5000   3.2500   3.0000 Du        
  37692 ****        19.5000   3.2500   3.2500 Du        
  37693 ****        19.5000   3.2500   3.5000 Du        
  37694 ****        19.5000   3.2500   3.7500 Du        
  37695 ****        19.5000   3.5000  -2.0000 Du        
  37696 ****        19.5000   3.5000  -1.7500 Du        
  37697 ****        19.5000   3.5000  -1.5000 Du        
  37698 ****        19.5000   3.5000  -1.2500 Du        
  37699 ****        19.5000   3.5000  -1.0000 Du        
  37700 ****        19.5000   3.5000  -0.7500 Du        
  37701 ****        19.5000   3.5000  -0.5000 Du        
  37702 ****        19.5000   3.5000  -0.2500 Du        
  37703 ****        19.5000   3.5000   0.0000 Du        
  37704 ****        19.5000   3.5000   0.2500 Du        
  37705 ****        19.5000   3.5000   0.5000 Du        
  37706 ****        19.5000   3.5000   0.7500 Du        
  37707 ****        19.5000   3.5000   1.0000 Du        
  37708 ****        19.5000   3.5000   1.2500 Du        
  37709 ****        19.5000   3.5000   1.5000 Du        
  37710 ****        19.5000   3.5000   1.7500 Du        
  37711 ****        19.5000   3.5000   2.0000 Du        
  37712 ****        19.5000   3.5000   2.2500 Du        
  37713 ****        19.5000   3.5000   2.5000 Du        
  37714 ****        19.5000   3.5000   2.7500 Du        
  37715 ****        19.5000   3.5000   3.0000 Du        
  37716 ****        19.5000   3.5000   3.2500 Du        
  37717 ****        19.5000   3.5000   3.5000 Du        
  37718 ****        19.5000   3.5000   3.7500 Du        
  37719 ****        19.5000   3.5000  24.0000 Du        
  37720 ****        19.5000   3.5000  24.2500 Du        
  37721 ****        19.5000   3.7500  -2.0000 Du        
  37722 ****        19.5000   3.7500  -1.7500 Du        
  37723 ****        19.5000   3.7500  -1.5000 Du        
  37724 ****        19.5000   3.7500  -1.2500 Du        
  37725 ****        19.5000   3.7500  -1.0000 Du        
  37726 ****        19.5000   3.7500  -0.7500 Du        
  37727 ****        19.5000   3.7500  -0.5000 Du        
  37728 ****        19.5000   3.7500  -0.2500 Du        
  37729 ****        19.5000   3.7500   0.0000 Du        
  37730 ****        19.5000   3.7500   0.2500 Du        
  37731 ****        19.5000   3.7500   0.5000 Du        
  37732 ****        19.5000   3.7500   0.7500 Du        
  37733 ****        19.5000   3.7500   1.0000 Du        
  37734 ****        19.5000   3.7500   1.2500 Du        
  37735 ****        19.5000   3.7500   1.5000 Du        
  37736 ****        19.5000   3.7500   1.7500 Du        
  37737 ****        19.5000   3.7500   2.0000 Du        
  37738 ****        19.5000   3.7500   2.2500 Du        
  37739 ****        19.5000   3.7500   2.5000 Du        
  37740 ****        19.5000   3.7500   2.7500 Du        
  37741 ****        19.5000   3.7500   3.0000 Du        
  37742 ****        19.5000   3.7500   3.2500 Du        
  37743 ****        19.5000   3.7500   3.5000 Du        
  37744 ****        19.5000   3.7500   3.7500 Du        
  37745 ****        19.5000   3.7500   4.0000 Du        
  37746 ****        19.5000   3.7500   4.2500 Du        
  37747 ****        19.5000   3.7500  24.2500 Du        
  37748 ****        19.5000   4.0000  -2.0000 Du        
  37749 ****        19.5000   4.0000  -1.7500 Du        
  37750 ****        19.5000   4.0000  -1.5000 Du        
  37751 ****        19.5000   4.0000  -1.2500 Du        
  37752 ****        19.5000   4.0000  -1.0000 Du        
  37753 ****        19.5000   4.0000  -0.7500 Du        
  37754 ****        19.5000   4.0000  -0.5000 Du        
  37755 ****        19.5000   4.0000  -0.2500 Du        
  37756 ****        19.5000   4.0000   0.0000 Du        
  37757 ****        19.5000   4.0000   0.2500 Du        
  37758 ****        19.5000   4.0000   0.5000 Du        
  37759 ****        19.5000   4.0000   0.7500 Du        
  37760 ****        19.5000   4.0000   1.0000 Du        
  37761 ****        19.5000   4.0000   1.2500 Du        
  37762 ****        19.5000   4.0000   1.5000 Du        
  37763 ****        19.5000   4.0000   1.7500 Du        
  37764 ****        19.5000   4.0000   2.0000 Du        
  37765 ****        19.5000   4.0000   2.2500 Du        
  37766 ****        19.5000   4.0000   2.5000 Du        
  37767 ****        19.5000   4.0000   2.7500 Du        
  37768 ****        19.5000   4.0000   3.0000 Du        
  37769 ****        19.5000   4.0000   3.2500 Du        
  37770 ****        19.5000   4.0000   3.5000 Du        
  37771 ****        19.5000   4.0000   3.7500 Du        
  37772 ****        19.5000   4.0000   4.0000 Du        
  37773 ****        19.5000   4.0000   4.2500 Du        
  37774 ****        19.5000   4.0000  24.2500 Du        
  37775 ****        19.5000   4.2500  -2.0000 Du        
  37776 ****        19.5000   4.2500  -1.7500 Du        
  37777 ****        19.5000   4.2500  -1.5000 Du        
  37778 ****        19.5000   4.2500  -1.2500 Du        
  37779 ****        19.5000   4.2500  -1.0000 Du        
  37780 ****        19.5000   4.2500  -0.7500 Du        
  37781 ****        19.5000   4.2500  -0.5000 Du        
  37782 ****        19.5000   4.2500  -0.2500 Du        
  37783 ****        19.5000   4.2500   0.0000 Du        
  37784 ****        19.5000   4.2500   0.2500 Du        
  37785 ****        19.5000   4.2500   0.5000 Du        
  37786 ****        19.5000   4.2500   0.7500 Du        
  37787 ****        19.5000   4.2500   1.0000 Du        
  37788 ****        19.5000   4.2500   1.2500 Du        
  37789 ****        19.5000   4.2500   1.5000 Du        
  37790 ****        19.5000   4.2500   1.7500 Du        
  37791 ****        19.5000   4.2500   2.0000 Du        
  37792 ****        19.5000   4.2500   2.2500 Du        
  37793 ****        19.5000   4.2500   2.5000 Du        
  37794 ****        19.5000   4.2500   2.7500 Du        
  37795 ****        19.5000   4.2500   3.0000 Du        
  37796 ****        19.5000   4.2500   3.2500 Du        
  37797 ****        19.5000   4.2500   3.5000 Du        
  37798 ****        19.5000   4.2500   3.7500 Du        
  37799 ****        19.5000   4.2500   4.0000 Du        
  37800 ****        19.5000   4.2500   4.2500 Du        
  37801 ****        19.5000   4.5000  -2.0000 Du        
  37802 ****        19.5000   4.5000  -1.7500 Du        
  37803 ****        19.5000   4.5000  -1.5000 Du        
  37804 ****        19.5000   4.5000  -1.2500 Du        
  37805 ****        19.5000   4.5000  -1.0000 Du        
  37806 ****        19.5000   4.5000  -0.7500 Du        
  37807 ****        19.5000   4.5000  -0.5000 Du        
  37808 ****        19.5000   4.5000  -0.2500 Du        
  37809 ****        19.5000   4.5000   0.0000 Du        
  37810 ****        19.5000   4.5000   0.2500 Du        
  37811 ****        19.5000   4.5000   0.5000 Du        
  37812 ****        19.5000   4.5000   0.7500 Du        
  37813 ****        19.5000   4.5000   1.0000 Du        
  37814 ****        19.5000   4.5000   1.2500 Du        
  37815 ****        19.5000   4.5000   1.5000 Du        
  37816 ****        19.5000   4.5000   1.7500 Du        
  37817 ****        19.5000   4.5000   2.0000 Du        
  37818 ****        19.5000   4.5000   2.2500 Du        
  37819 ****        19.5000   4.5000   2.5000 Du        
  37820 ****        19.5000   4.5000   2.7500 Du        
  37821 ****        19.5000   4.5000   3.0000 Du        
  37822 ****        19.5000   4.5000   3.2500 Du        
  37823 ****        19.5000   4.5000   3.5000 Du        
  37824 ****        19.5000   4.5000   3.7500 Du        
  37825 ****        19.5000   4.5000   4.0000 Du        
  37826 ****        19.5000   4.7500  -1.7500 Du        
  37827 ****        19.5000   4.7500  -1.5000 Du        
  37828 ****        19.5000   4.7500  -1.2500 Du        
  37829 ****        19.5000   4.7500  -1.0000 Du        
  37830 ****        19.5000   4.7500  -0.7500 Du        
  37831 ****        19.5000   4.7500  -0.5000 Du        
  37832 ****        19.5000   4.7500  -0.2500 Du        
  37833 ****        19.5000   4.7500   0.0000 Du        
  37834 ****        19.5000   4.7500   0.2500 Du        
  37835 ****        19.5000   4.7500   0.5000 Du        
  37836 ****        19.5000   4.7500   0.7500 Du        
  37837 ****        19.5000   4.7500   1.0000 Du        
  37838 ****        19.5000   4.7500   1.2500 Du        
  37839 ****        19.5000   4.7500   1.5000 Du        
  37840 ****        19.5000   4.7500   1.7500 Du        
  37841 ****        19.5000   4.7500   2.0000 Du        
  37842 ****        19.5000   4.7500   2.2500 Du        
  37843 ****        19.5000   4.7500   2.5000 Du        
  37844 ****        19.5000   4.7500   2.7500 Du        
  37845 ****        19.5000   4.7500   3.0000 Du        
  37846 ****        19.5000   4.7500   3.2500 Du        
  37847 ****        19.5000   4.7500   3.5000 Du        
  37848 ****        19.5000   4.7500   3.7500 Du        
  37849 ****        19.5000   5.0000  -1.5000 Du        
  37850 ****        19.5000   5.0000  -1.2500 Du        
  37851 ****        19.5000   5.0000  -1.0000 Du        
  37852 ****        19.5000   5.0000  -0.7500 Du        
  37853 ****        19.5000   5.0000  -0.5000 Du        
  37854 ****        19.5000   5.0000  -0.2500 Du        
  37855 ****        19.5000   5.0000   0.0000 Du        
  37856 ****        19.5000   5.0000   0.2500 Du        
  37857 ****        19.5000   5.0000   0.5000 Du        
  37858 ****        19.5000   5.0000   0.7500 Du        
  37859 ****        19.5000   5.0000   1.0000 Du        
  37860 ****        19.5000   5.0000   1.2500 Du        
  37861 ****        19.5000   5.0000   1.5000 Du        
  37862 ****        19.5000   5.0000   1.7500 Du        
  37863 ****        19.5000   5.0000   2.0000 Du        
  37864 ****        19.5000   5.0000   2.2500 Du        
  37865 ****        19.5000   5.0000   2.5000 Du        
  37866 ****        19.5000   5.0000   2.7500 Du        
  37867 ****        19.5000   5.0000   3.0000 Du        
  37868 ****        19.5000   5.0000   3.2500 Du        
  37869 ****        19.5000   5.0000   3.5000 Du        
  37870 ****        19.5000   5.0000   3.7500 Du        
  37871 ****        19.5000   5.2500  -1.2500 Du        
  37872 ****        19.5000   5.2500  -1.0000 Du        
  37873 ****        19.5000   5.2500  -0.7500 Du        
  37874 ****        19.5000   5.2500  -0.5000 Du        
  37875 ****        19.5000   5.2500  -0.2500 Du        
  37876 ****        19.5000   5.2500   0.0000 Du        
  37877 ****        19.5000   5.2500   0.2500 Du        
  37878 ****        19.5000   5.2500   0.5000 Du        
  37879 ****        19.5000   5.2500   0.7500 Du        
  37880 ****        19.5000   5.2500   1.0000 Du        
  37881 ****        19.5000   5.2500   1.2500 Du        
  37882 ****        19.5000   5.2500   1.5000 Du        
  37883 ****        19.5000   5.2500   1.7500 Du        
  37884 ****        19.5000   5.2500   2.0000 Du        
  37885 ****        19.5000   5.2500   2.2500 Du        
  37886 ****        19.5000   5.2500   2.5000 Du        
  37887 ****        19.5000   5.2500   2.7500 Du        
  37888 ****        19.5000   5.2500   3.0000 Du        
  37889 ****        19.5000   5.2500   3.2500 Du        
  37890 ****        19.5000   5.2500   3.5000 Du        
  37891 ****        19.5000   5.5000   0.0000 Du        
  37892 ****        19.5000   5.5000   0.2500 Du        
  37893 ****        19.5000   5.5000   0.5000 Du        
  37894 ****        19.5000   5.5000   0.7500 Du        
  37895 ****        19.5000   5.5000   1.0000 Du        
  37896 ****        19.5000   5.5000   1.2500 Du        
  37897 ****        19.5000   5.5000   1.5000 Du        
  37898 ****        19.5000   5.5000   1.7500 Du        
  37899 ****        19.5000   5.5000   2.0000 Du        
  37900 ****        19.5000   5.5000   2.2500 Du        
  37901 ****        19.5000   5.5000   2.5000 Du        
  37902 ****        19.5000   5.5000   2.7500 Du        
  37903 ****        19.5000   5.5000   3.0000 Du        
  37904 ****        19.5000   5.5000   3.2500 Du        
  37905 ****        19.5000   5.5000   3.5000 Du        
  37906 ****        19.5000   5.7500   0.5000 Du        
  37907 ****        19.5000   5.7500   0.7500 Du        
  37908 ****        19.5000   5.7500   1.0000 Du        
  37909 ****        19.5000   5.7500   1.2500 Du        
  37910 ****        19.5000   5.7500   1.5000 Du        
  37911 ****        19.5000   5.7500   1.7500 Du        
  37912 ****        19.5000   5.7500   2.0000 Du        
  37913 ****        19.5000   5.7500   2.2500 Du        
  37914 ****        19.5000   5.7500   2.5000 Du        
  37915 ****        19.5000   5.7500   2.7500 Du        
  37916 ****        19.5000   5.7500   3.0000 Du        
  37917 ****        19.5000   5.7500   3.2500 Du        
  37918 ****        19.5000   5.7500   3.5000 Du        
  37919 ****        19.5000   6.0000   0.7500 Du        
  37920 ****        19.5000   6.0000   1.0000 Du        
  37921 ****        19.5000   6.0000   1.2500 Du        
  37922 ****        19.5000   6.0000   1.5000 Du        
  37923 ****        19.5000   6.0000   1.7500 Du        
  37924 ****        19.5000   6.0000   2.0000 Du        
  37925 ****        19.5000   6.0000   2.2500 Du        
  37926 ****        19.5000   6.0000   2.5000 Du        
  37927 ****        19.5000   6.0000   2.7500 Du        
  37928 ****        19.5000   6.0000   3.0000 Du        
  37929 ****        19.5000   6.0000   3.2500 Du        
  37930 ****        19.5000   6.2500   1.2500 Du        
  37931 ****        19.5000   6.2500   1.5000 Du        
  37932 ****        19.5000   6.2500   1.7500 Du        
  37933 ****        19.5000   6.2500   2.0000 Du        
  37934 ****        19.5000   6.2500   2.2500 Du        
  37935 ****        19.5000   6.2500   2.5000 Du        
  37936 ****        19.5000   6.2500   2.7500 Du        
  37937 ****        19.5000   6.2500   3.0000 Du        
  37938 ****        19.5000   6.2500   3.2500 Du        
  37939 ****        19.5000   6.5000   1.2500 Du        
  37940 ****        19.5000   6.5000   1.5000 Du        
  37941 ****        19.5000   6.5000   1.7500 Du        
  37942 ****        19.5000   6.5000   2.0000 Du        
  37943 ****        19.5000   6.5000   2.2500 Du        
  37944 ****        19.5000   6.5000   2.5000 Du        
  37945 ****        19.5000   6.5000   2.7500 Du        
  37946 ****        19.5000   6.5000   3.0000 Du        
  37947 ****        19.5000   6.5000   3.2500 Du        
  37948 ****        19.5000   6.7500   1.7500 Du        
  37949 ****        19.5000   6.7500   2.0000 Du        
  37950 ****        19.5000   6.7500   2.2500 Du        
  37951 ****        19.5000   8.7500  25.7500 Du        
  37952 ****        19.5000   9.0000  25.5000 Du        
  37953 ****        19.5000   9.0000  25.7500 Du        
  37954 ****        19.5000   9.2500  25.2500 Du        
  37955 ****        19.5000   9.2500  25.5000 Du        
  37956 ****        19.5000   9.2500  25.7500 Du        
  37957 ****        19.5000   9.5000  25.2500 Du        
  37958 ****        19.5000   9.5000  25.5000 Du        
  37959 ****        19.5000   9.5000  25.7500 Du        
  37960 ****        19.5000   9.7500  25.2500 Du        
  37961 ****        19.5000   9.7500  25.5000 Du        
  37962 ****        19.5000   9.7500  25.7500 Du        
  37963 ****        19.5000  10.0000  25.5000 Du        
  37964 ****        19.5000  14.2500  15.0000 Du        
  37965 ****        19.5000  14.2500  15.2500 Du        
  37966 ****        19.5000  14.2500  15.5000 Du        
  37967 ****        19.5000  14.2500  15.7500 Du        
  37968 ****        19.5000  14.5000  15.0000 Du        
  37969 ****        19.5000  14.5000  15.2500 Du        
  37970 ****        19.5000  14.5000  15.5000 Du        
  37971 ****        19.5000  14.5000  15.7500 Du        
  37972 ****        19.5000  14.7500  15.0000 Du        
  37973 ****        19.5000  14.7500  15.2500 Du        
  37974 ****        19.5000  14.7500  15.5000 Du        
  37975 ****        19.5000  14.7500  15.7500 Du        
  37976 ****        19.5000  14.7500  32.0000 Du        
  37977 ****        19.5000  14.7500  32.2500 Du        
  37978 ****        19.5000  15.0000  15.0000 Du        
  37979 ****        19.5000  15.0000  15.2500 Du        
  37980 ****        19.5000  15.0000  15.5000 Du        
  37981 ****        19.5000  15.0000  15.7500 Du        
  37982 ****        19.5000  15.0000  32.0000 Du        
  37983 ****        19.5000  15.0000  32.2500 Du        
  37984 ****        19.5000  15.2500  15.0000 Du        
  37985 ****        19.5000  15.2500  15.2500 Du        
  37986 ****        19.5000  15.2500  15.5000 Du        
  37987 ****        19.5000  15.2500  32.0000 Du        
  37988 ****        19.5000  15.2500  32.2500 Du        
  37989 ****        19.5000  15.5000  15.0000 Du        
  37990 ****        19.5000  17.0000  13.5000 Du        
  37991 ****        19.5000  17.0000  13.7500 Du        
  37992 ****        19.5000  17.0000  14.0000 Du        
  37993 ****        19.5000  17.2500  13.0000 Du        
  37994 ****        19.5000  17.2500  13.2500 Du        
  37995 ****        19.5000  17.2500  13.5000 Du        
  37996 ****        19.5000  17.2500  13.7500 Du        
  37997 ****        19.5000  17.2500  14.0000 Du        
  37998 ****        19.5000  17.5000  12.0000 Du        
  37999 ****        19.5000  17.5000  12.2500 Du        
  38000 ****        19.5000  17.5000  12.5000 Du        
  38001 ****        19.5000  17.5000  12.7500 Du        
  38002 ****        19.5000  17.5000  13.0000 Du        
  38003 ****        19.5000  17.5000  13.2500 Du        
  38004 ****        19.5000  17.5000  13.5000 Du        
  38005 ****        19.5000  17.5000  13.7500 Du        
  38006 ****        19.5000  17.5000  14.0000 Du        
  38007 ****        19.5000  17.7500  12.0000 Du        
  38008 ****        19.5000  17.7500  12.2500 Du        
  38009 ****        19.5000  17.7500  12.5000 Du        
  38010 ****        19.5000  17.7500  12.7500 Du        
  38011 ****        19.5000  17.7500  13.0000 Du        
  38012 ****        19.5000  17.7500  13.2500 Du        
  38013 ****        19.5000  17.7500  13.5000 Du        
  38014 ****        19.5000  17.7500  13.7500 Du        
  38015 ****        19.5000  17.7500  14.0000 Du        
  38016 ****        19.5000  18.0000  12.0000 Du        
  38017 ****        19.5000  18.0000  12.2500 Du        
  38018 ****        19.5000  18.0000  12.5000 Du        
  38019 ****        19.5000  18.0000  12.7500 Du        
  38020 ****        19.5000  18.0000  13.0000 Du        
  38021 ****        19.5000  18.0000  13.2500 Du        
  38022 ****        19.5000  18.0000  13.5000 Du        
  38023 ****        19.5000  18.0000  13.7500 Du        
  38024 ****        19.5000  18.2500  12.0000 Du        
  38025 ****        19.5000  18.2500  12.2500 Du        
  38026 ****        19.5000  18.2500  12.5000 Du        
  38027 ****        19.5000  18.2500  12.7500 Du        
  38028 ****        19.5000  18.2500  13.0000 Du        
  38029 ****        19.5000  18.2500  13.2500 Du        
  38030 ****        19.5000  18.2500  13.5000 Du        
  38031 ****        19.5000  18.2500  13.7500 Du        
  38032 ****        19.5000  18.5000  12.0000 Du        
  38033 ****        19.5000  18.5000  12.2500 Du        
  38034 ****        19.5000  18.5000  12.5000 Du        
  38035 ****        19.5000  18.5000  12.7500 Du        
  38036 ****        19.5000  18.5000  13.0000 Du        
  38037 ****        19.5000  18.5000  13.2500 Du        
  38038 ****        19.5000  18.5000  13.5000 Du        
  38039 ****        19.5000  18.7500  12.0000 Du        
  38040 ****        19.5000  18.7500  12.2500 Du        
  38041 ****        19.5000  18.7500  12.5000 Du        
  38042 ****        19.5000  18.7500  12.7500 Du        
  38043 ****        19.5000  18.7500  13.0000 Du        
  38044 ****        19.5000  18.7500  13.2500 Du        
  38045 ****        19.5000  19.0000  12.0000 Du        
  38046 ****        19.5000  19.0000  12.2500 Du        
  38047 ****        19.5000  19.0000  12.5000 Du        
  38048 ****        19.5000  19.0000  12.7500 Du        
  38049 ****        19.5000  19.0000  13.0000 Du        
  38050 ****        19.5000  19.0000  13.2500 Du        
  38051 ****        19.5000  19.2500  12.2500 Du        
  38052 ****        19.5000  19.2500  12.5000 Du        
  38053 ****        19.5000  19.2500  12.7500 Du        
  38054 ****        19.5000  19.2500  13.0000 Du        
  38055 ****        19.5000  19.7500  36.2500 Du        
  38056 ****        19.5000  20.0000  36.2500 Du        
  38057 ****        19.5000  20.2500  36.2500 Du        
  38058 ****        19.7500  -4.0000  31.5000 Du        
  38059 ****        19.7500  -4.0000  31.7500 Du        
  38060 ****        19.7500  -4.0000  32.0000 Du        
  38061 ****        19.7500  -3.7500  31.5000 Du        
  38062 ****        19.7500  -3.7500  31.7500 Du        
  38063 ****        19.7500  -3.7500  32.0000 Du        
  38064 ****        19.7500  -3.7500  32.2500 Du        
  38065 ****        19.7500  -3.5000  31.7500 Du        
  38066 ****        19.7500  -3.5000  32.0000 Du        
  38067 ****        19.7500  -3.5000  32.2500 Du        
  38068 ****        19.7500  -3.2500  31.7500 Du        
  38069 ****        19.7500  -3.2500  32.0000 Du        
  38070 ****        19.7500  -3.2500  32.2500 Du        
  38071 ****        19.7500  -3.0000  32.0000 Du        
  38072 ****        19.7500  -3.0000  32.2500 Du        
  38073 ****        19.7500  -3.0000  32.5000 Du        
  38074 ****        19.7500  -2.7500  32.0000 Du        
  38075 ****        19.7500  -2.7500  32.2500 Du        
  38076 ****        19.7500  -2.7500  32.5000 Du        
  38077 ****        19.7500  -0.2500  18.2500 Du        
  38078 ****        19.7500   0.0000  18.2500 Du        
  38079 ****        19.7500   1.0000   1.7500 Du        
  38080 ****        19.7500   1.0000   2.0000 Du        
  38081 ****        19.7500   1.0000   2.2500 Du        
  38082 ****        19.7500   1.0000   2.5000 Du        
  38083 ****        19.7500   1.0000   2.7500 Du        
  38084 ****        19.7500   1.2500   1.5000 Du        
  38085 ****        19.7500   1.2500   1.7500 Du        
  38086 ****        19.7500   1.2500   2.0000 Du        
  38087 ****        19.7500   1.2500   2.2500 Du        
  38088 ****        19.7500   1.2500   2.5000 Du        
  38089 ****        19.7500   1.2500   2.7500 Du        
  38090 ****        19.7500   1.5000   1.5000 Du        
  38091 ****        19.7500   1.5000   1.7500 Du        
  38092 ****        19.7500   1.5000   2.0000 Du        
  38093 ****        19.7500   1.5000   2.2500 Du        
  38094 ****        19.7500   1.5000   2.5000 Du        
  38095 ****        19.7500   1.5000   2.7500 Du        
  38096 ****        19.7500   1.7500   1.2500 Du        
  38097 ****        19.7500   1.7500   1.5000 Du        
  38098 ****        19.7500   1.7500   1.7500 Du        
  38099 ****        19.7500   1.7500   2.0000 Du        
  38100 ****        19.7500   1.7500   2.2500 Du        
  38101 ****        19.7500   1.7500   2.5000 Du        
  38102 ****        19.7500   1.7500   2.7500 Du        
  38103 ****        19.7500   2.0000   1.2500 Du        
  38104 ****        19.7500   2.0000   1.5000 Du        
  38105 ****        19.7500   2.0000   1.7500 Du        
  38106 ****        19.7500   2.0000   2.0000 Du        
  38107 ****        19.7500   2.0000   2.2500 Du        
  38108 ****        19.7500   2.0000   2.5000 Du        
  38109 ****        19.7500   2.0000   2.7500 Du        
  38110 ****        19.7500   2.2500   1.0000 Du        
  38111 ****        19.7500   2.2500   1.2500 Du        
  38112 ****        19.7500   2.2500   1.5000 Du        
  38113 ****        19.7500   2.2500   1.7500 Du        
  38114 ****        19.7500   2.2500   2.0000 Du        
  38115 ****        19.7500   2.2500   2.2500 Du        
  38116 ****        19.7500   2.2500   2.5000 Du        
  38117 ****        19.7500   2.2500   2.7500 Du        
  38118 ****        19.7500   2.2500   3.0000 Du        
  38119 ****        19.7500   2.5000   1.0000 Du        
  38120 ****        19.7500   2.5000   1.2500 Du        
  38121 ****        19.7500   2.5000   1.5000 Du        
  38122 ****        19.7500   2.5000   1.7500 Du        
  38123 ****        19.7500   2.5000   2.0000 Du        
  38124 ****        19.7500   2.5000   2.2500 Du        
  38125 ****        19.7500   2.5000   2.5000 Du        
  38126 ****        19.7500   2.5000   2.7500 Du        
  38127 ****        19.7500   2.5000   3.0000 Du        
  38128 ****        19.7500   2.7500   1.0000 Du        
  38129 ****        19.7500   2.7500   1.2500 Du        
  38130 ****        19.7500   2.7500   1.5000 Du        
  38131 ****        19.7500   2.7500   1.7500 Du        
  38132 ****        19.7500   2.7500   2.0000 Du        
  38133 ****        19.7500   2.7500   2.2500 Du        
  38134 ****        19.7500   2.7500   2.5000 Du        
  38135 ****        19.7500   2.7500   2.7500 Du        
  38136 ****        19.7500   2.7500   3.0000 Du        
  38137 ****        19.7500   2.7500   3.2500 Du        
  38138 ****        19.7500   3.0000   0.7500 Du        
  38139 ****        19.7500   3.0000   1.0000 Du        
  38140 ****        19.7500   3.0000   1.2500 Du        
  38141 ****        19.7500   3.0000   1.5000 Du        
  38142 ****        19.7500   3.0000   1.7500 Du        
  38143 ****        19.7500   3.0000   2.0000 Du        
  38144 ****        19.7500   3.0000   2.2500 Du        
  38145 ****        19.7500   3.0000   2.5000 Du        
  38146 ****        19.7500   3.0000   2.7500 Du        
  38147 ****        19.7500   3.0000   3.0000 Du        
  38148 ****        19.7500   3.0000   3.2500 Du        
  38149 ****        19.7500   3.0000   3.5000 Du        
  38150 ****        19.7500   3.2500   0.2500 Du        
  38151 ****        19.7500   3.2500   0.5000 Du        
  38152 ****        19.7500   3.2500   0.7500 Du        
  38153 ****        19.7500   3.2500   1.0000 Du        
  38154 ****        19.7500   3.2500   1.2500 Du        
  38155 ****        19.7500   3.2500   1.5000 Du        
  38156 ****        19.7500   3.2500   1.7500 Du        
  38157 ****        19.7500   3.2500   2.0000 Du        
  38158 ****        19.7500   3.2500   2.2500 Du        
  38159 ****        19.7500   3.2500   2.5000 Du        
  38160 ****        19.7500   3.2500   2.7500 Du        
  38161 ****        19.7500   3.2500   3.0000 Du        
  38162 ****        19.7500   3.2500   3.2500 Du        
  38163 ****        19.7500   3.2500   3.5000 Du        
  38164 ****        19.7500   3.2500   3.7500 Du        
  38165 ****        19.7500   3.5000  -0.7500 Du        
  38166 ****        19.7500   3.5000  -0.5000 Du        
  38167 ****        19.7500   3.5000  -0.2500 Du        
  38168 ****        19.7500   3.5000   0.0000 Du        
  38169 ****        19.7500   3.5000   0.2500 Du        
  38170 ****        19.7500   3.5000   0.5000 Du        
  38171 ****        19.7500   3.5000   0.7500 Du        
  38172 ****        19.7500   3.5000   1.0000 Du        
  38173 ****        19.7500   3.5000   1.2500 Du        
  38174 ****        19.7500   3.5000   1.5000 Du        
  38175 ****        19.7500   3.5000   1.7500 Du        
  38176 ****        19.7500   3.5000   2.0000 Du        
  38177 ****        19.7500   3.5000   2.2500 Du        
  38178 ****        19.7500   3.5000   2.5000 Du        
  38179 ****        19.7500   3.5000   2.7500 Du        
  38180 ****        19.7500   3.5000   3.0000 Du        
  38181 ****        19.7500   3.5000   3.2500 Du        
  38182 ****        19.7500   3.5000   3.5000 Du        
  38183 ****        19.7500   3.5000   3.7500 Du        
  38184 ****        19.7500   3.5000   4.0000 Du        
  38185 ****        19.7500   3.7500  -1.5000 Du        
  38186 ****        19.7500   3.7500  -1.2500 Du        
  38187 ****        19.7500   3.7500  -1.0000 Du        
  38188 ****        19.7500   3.7500  -0.7500 Du        
  38189 ****        19.7500   3.7500  -0.5000 Du        
  38190 ****        19.7500   3.7500  -0.2500 Du        
  38191 ****        19.7500   3.7500   0.0000 Du        
  38192 ****        19.7500   3.7500   0.2500 Du        
  38193 ****        19.7500   3.7500   0.5000 Du        
  38194 ****        19.7500   3.7500   0.7500 Du        
  38195 ****        19.7500   3.7500   1.0000 Du        
  38196 ****        19.7500   3.7500   1.2500 Du        
  38197 ****        19.7500   3.7500   1.5000 Du        
  38198 ****        19.7500   3.7500   1.7500 Du        
  38199 ****        19.7500   3.7500   2.0000 Du        
  38200 ****        19.7500   3.7500   2.2500 Du        
  38201 ****        19.7500   3.7500   2.5000 Du        
  38202 ****        19.7500   3.7500   2.7500 Du        
  38203 ****        19.7500   3.7500   3.0000 Du        
  38204 ****        19.7500   3.7500   3.2500 Du        
  38205 ****        19.7500   3.7500   3.5000 Du        
  38206 ****        19.7500   3.7500   3.7500 Du        
  38207 ****        19.7500   3.7500   4.0000 Du        
  38208 ****        19.7500   3.7500   4.2500 Du        
  38209 ****        19.7500   4.0000  -1.5000 Du        
  38210 ****        19.7500   4.0000  -1.2500 Du        
  38211 ****        19.7500   4.0000  -1.0000 Du        
  38212 ****        19.7500   4.0000  -0.7500 Du        
  38213 ****        19.7500   4.0000  -0.5000 Du        
  38214 ****        19.7500   4.0000  -0.2500 Du        
  38215 ****        19.7500   4.0000   0.0000 Du        
  38216 ****        19.7500   4.0000   0.2500 Du        
  38217 ****        19.7500   4.0000   0.5000 Du        
  38218 ****        19.7500   4.0000   0.7500 Du        
  38219 ****        19.7500   4.0000   1.0000 Du        
  38220 ****        19.7500   4.0000   1.2500 Du        
  38221 ****        19.7500   4.0000   1.5000 Du        
  38222 ****        19.7500   4.0000   1.7500 Du        
  38223 ****        19.7500   4.0000   2.0000 Du        
  38224 ****        19.7500   4.0000   2.2500 Du        
  38225 ****        19.7500   4.0000   2.5000 Du        
  38226 ****        19.7500   4.0000   2.7500 Du        
  38227 ****        19.7500   4.0000   3.0000 Du        
  38228 ****        19.7500   4.0000   3.2500 Du        
  38229 ****        19.7500   4.0000   3.5000 Du        
  38230 ****        19.7500   4.0000   3.7500 Du        
  38231 ****        19.7500   4.0000   4.0000 Du        
  38232 ****        19.7500   4.0000   4.2500 Du        
  38233 ****        19.7500   4.2500  -1.5000 Du        
  38234 ****        19.7500   4.2500  -1.2500 Du        
  38235 ****        19.7500   4.2500  -1.0000 Du        
  38236 ****        19.7500   4.2500  -0.7500 Du        
  38237 ****        19.7500   4.2500  -0.5000 Du        
  38238 ****        19.7500   4.2500  -0.2500 Du        
  38239 ****        19.7500   4.2500   0.0000 Du        
  38240 ****        19.7500   4.2500   0.2500 Du        
  38241 ****        19.7500   4.2500   0.5000 Du        
  38242 ****        19.7500   4.2500   0.7500 Du        
  38243 ****        19.7500   4.2500   1.0000 Du        
  38244 ****        19.7500   4.2500   1.2500 Du        
  38245 ****        19.7500   4.2500   1.5000 Du        
  38246 ****        19.7500   4.2500   1.7500 Du        
  38247 ****        19.7500   4.2500   2.0000 Du        
  38248 ****        19.7500   4.2500   2.2500 Du        
  38249 ****        19.7500   4.2500   2.5000 Du        
  38250 ****        19.7500   4.2500   2.7500 Du        
  38251 ****        19.7500   4.2500   3.0000 Du        
  38252 ****        19.7500   4.2500   3.2500 Du        
  38253 ****        19.7500   4.2500   3.5000 Du        
  38254 ****        19.7500   4.2500   3.7500 Du        
  38255 ****        19.7500   4.2500   4.0000 Du        
  38256 ****        19.7500   4.2500   4.2500 Du        
  38257 ****        19.7500   4.5000  -1.5000 Du        
  38258 ****        19.7500   4.5000  -1.2500 Du        
  38259 ****        19.7500   4.5000  -1.0000 Du        
  38260 ****        19.7500   4.5000  -0.7500 Du        
  38261 ****        19.7500   4.5000  -0.5000 Du        
  38262 ****        19.7500   4.5000  -0.2500 Du        
  38263 ****        19.7500   4.5000   0.0000 Du        
  38264 ****        19.7500   4.5000   0.2500 Du        
  38265 ****        19.7500   4.5000   0.5000 Du        
  38266 ****        19.7500   4.5000   0.7500 Du        
  38267 ****        19.7500   4.5000   1.0000 Du        
  38268 ****        19.7500   4.5000   1.2500 Du        
  38269 ****        19.7500   4.5000   1.5000 Du        
  38270 ****        19.7500   4.5000   1.7500 Du        
  38271 ****        19.7500   4.5000   2.0000 Du        
  38272 ****        19.7500   4.5000   2.2500 Du        
  38273 ****        19.7500   4.5000   2.5000 Du        
  38274 ****        19.7500   4.5000   2.7500 Du        
  38275 ****        19.7500   4.5000   3.0000 Du        
  38276 ****        19.7500   4.5000   3.2500 Du        
  38277 ****        19.7500   4.5000   3.5000 Du        
  38278 ****        19.7500   4.5000   3.7500 Du        
  38279 ****        19.7500   4.5000   4.0000 Du        
  38280 ****        19.7500   4.5000   4.2500 Du        
  38281 ****        19.7500   4.7500  -1.5000 Du        
  38282 ****        19.7500   4.7500  -1.2500 Du        
  38283 ****        19.7500   4.7500  -1.0000 Du        
  38284 ****        19.7500   4.7500  -0.7500 Du        
  38285 ****        19.7500   4.7500  -0.5000 Du        
  38286 ****        19.7500   4.7500  -0.2500 Du        
  38287 ****        19.7500   4.7500   0.0000 Du        
  38288 ****        19.7500   4.7500   0.2500 Du        
  38289 ****        19.7500   4.7500   0.5000 Du        
  38290 ****        19.7500   4.7500   0.7500 Du        
  38291 ****        19.7500   4.7500   1.0000 Du        
  38292 ****        19.7500   4.7500   1.2500 Du        
  38293 ****        19.7500   4.7500   1.5000 Du        
  38294 ****        19.7500   4.7500   1.7500 Du        
  38295 ****        19.7500   4.7500   2.0000 Du        
  38296 ****        19.7500   4.7500   2.2500 Du        
  38297 ****        19.7500   4.7500   2.5000 Du        
  38298 ****        19.7500   4.7500   2.7500 Du        
  38299 ****        19.7500   4.7500   3.0000 Du        
  38300 ****        19.7500   4.7500   3.2500 Du        
  38301 ****        19.7500   4.7500   3.5000 Du        
  38302 ****        19.7500   4.7500   3.7500 Du        
  38303 ****        19.7500   4.7500   4.0000 Du        
  38304 ****        19.7500   5.0000  -1.5000 Du        
  38305 ****        19.7500   5.0000  -1.2500 Du        
  38306 ****        19.7500   5.0000  -1.0000 Du        
  38307 ****        19.7500   5.0000  -0.7500 Du        
  38308 ****        19.7500   5.0000  -0.5000 Du        
  38309 ****        19.7500   5.0000  -0.2500 Du        
  38310 ****        19.7500   5.0000   0.0000 Du        
  38311 ****        19.7500   5.0000   0.2500 Du        
  38312 ****        19.7500   5.0000   0.5000 Du        
  38313 ****        19.7500   5.0000   0.7500 Du        
  38314 ****        19.7500   5.0000   1.0000 Du        
  38315 ****        19.7500   5.0000   1.2500 Du        
  38316 ****        19.7500   5.0000   1.5000 Du        
  38317 ****        19.7500   5.0000   1.7500 Du        
  38318 ****        19.7500   5.0000   2.0000 Du        
  38319 ****        19.7500   5.0000   2.2500 Du        
  38320 ****        19.7500   5.0000   2.5000 Du        
  38321 ****        19.7500   5.0000   2.7500 Du        
  38322 ****        19.7500   5.0000   3.0000 Du        
  38323 ****        19.7500   5.0000   3.2500 Du        
  38324 ****        19.7500   5.0000   3.5000 Du        
  38325 ****        19.7500   5.0000   3.7500 Du        
  38326 ****        19.7500   5.2500  -1.2500 Du        
  38327 ****        19.7500   5.2500  -1.0000 Du        
  38328 ****        19.7500   5.2500  -0.7500 Du        
  38329 ****        19.7500   5.2500  -0.5000 Du        
  38330 ****        19.7500   5.2500  -0.2500 Du        
  38331 ****        19.7500   5.2500   0.0000 Du        
  38332 ****        19.7500   5.2500   0.2500 Du        
  38333 ****        19.7500   5.2500   0.5000 Du        
  38334 ****        19.7500   5.2500   0.7500 Du        
  38335 ****        19.7500   5.2500   1.0000 Du        
  38336 ****        19.7500   5.2500   1.2500 Du        
  38337 ****        19.7500   5.2500   1.5000 Du        
  38338 ****        19.7500   5.2500   1.7500 Du        
  38339 ****        19.7500   5.2500   2.0000 Du        
  38340 ****        19.7500   5.2500   2.2500 Du        
  38341 ****        19.7500   5.2500   2.5000 Du        
  38342 ****        19.7500   5.2500   2.7500 Du        
  38343 ****        19.7500   5.2500   3.0000 Du        
  38344 ****        19.7500   5.2500   3.2500 Du        
  38345 ****        19.7500   5.2500   3.5000 Du        
  38346 ****        19.7500   5.2500   3.7500 Du        
  38347 ****        19.7500   5.5000  -0.2500 Du        
  38348 ****        19.7500   5.5000   0.0000 Du        
  38349 ****        19.7500   5.5000   0.2500 Du        
  38350 ****        19.7500   5.5000   0.5000 Du        
  38351 ****        19.7500   5.5000   0.7500 Du        
  38352 ****        19.7500   5.5000   1.0000 Du        
  38353 ****        19.7500   5.5000   1.2500 Du        
  38354 ****        19.7500   5.5000   1.5000 Du        
  38355 ****        19.7500   5.5000   1.7500 Du        
  38356 ****        19.7500   5.5000   2.0000 Du        
  38357 ****        19.7500   5.5000   2.2500 Du        
  38358 ****        19.7500   5.5000   2.5000 Du        
  38359 ****        19.7500   5.5000   2.7500 Du        
  38360 ****        19.7500   5.5000   3.0000 Du        
  38361 ****        19.7500   5.5000   3.2500 Du        
  38362 ****        19.7500   5.5000   3.5000 Du        
  38363 ****        19.7500   5.7500   0.5000 Du        
  38364 ****        19.7500   5.7500   0.7500 Du        
  38365 ****        19.7500   5.7500   1.0000 Du        
  38366 ****        19.7500   5.7500   1.2500 Du        
  38367 ****        19.7500   5.7500   1.5000 Du        
  38368 ****        19.7500   5.7500   1.7500 Du        
  38369 ****        19.7500   5.7500   2.0000 Du        
  38370 ****        19.7500   5.7500   2.2500 Du        
  38371 ****        19.7500   5.7500   2.5000 Du        
  38372 ****        19.7500   5.7500   2.7500 Du        
  38373 ****        19.7500   5.7500   3.0000 Du        
  38374 ****        19.7500   5.7500   3.2500 Du        
  38375 ****        19.7500   5.7500   3.5000 Du        
  38376 ****        19.7500   6.0000   1.0000 Du        
  38377 ****        19.7500   6.0000   1.2500 Du        
  38378 ****        19.7500   6.0000   1.5000 Du        
  38379 ****        19.7500   6.0000   1.7500 Du        
  38380 ****        19.7500   6.0000   2.0000 Du        
  38381 ****        19.7500   6.0000   2.2500 Du        
  38382 ****        19.7500   6.0000   2.5000 Du        
  38383 ****        19.7500   6.0000   2.7500 Du        
  38384 ****        19.7500   6.0000   3.0000 Du        
  38385 ****        19.7500   6.0000   3.2500 Du        
  38386 ****        19.7500   6.0000   3.5000 Du        
  38387 ****        19.7500   6.2500   1.2500 Du        
  38388 ****        19.7500   6.2500   1.5000 Du        
  38389 ****        19.7500   6.2500   1.7500 Du        
  38390 ****        19.7500   6.2500   2.0000 Du        
  38391 ****        19.7500   6.2500   2.2500 Du        
  38392 ****        19.7500   6.2500   2.5000 Du        
  38393 ****        19.7500   6.2500   2.7500 Du        
  38394 ****        19.7500   6.2500   3.0000 Du        
  38395 ****        19.7500   6.2500   3.2500 Du        
  38396 ****        19.7500   6.5000   1.5000 Du        
  38397 ****        19.7500   6.5000   1.7500 Du        
  38398 ****        19.7500   6.5000   2.0000 Du        
  38399 ****        19.7500   6.5000   2.2500 Du        
  38400 ****        19.7500   6.5000   2.5000 Du        
  38401 ****        19.7500   6.5000   2.7500 Du        
  38402 ****        19.7500   6.5000   3.0000 Du        
  38403 ****        19.7500   6.5000   3.2500 Du        
  38404 ****        19.7500   6.7500   1.7500 Du        
  38405 ****        19.7500   7.7500  25.7500 Du        
  38406 ****        19.7500   7.7500  26.0000 Du        
  38407 ****        19.7500   7.7500  26.2500 Du        
  38408 ****        19.7500   8.0000  25.7500 Du        
  38409 ****        19.7500   8.0000  26.0000 Du        
  38410 ****        19.7500   8.0000  26.2500 Du        
  38411 ****        19.7500   8.2500  25.7500 Du        
  38412 ****        19.7500   8.2500  26.0000 Du        
  38413 ****        19.7500   8.5000  25.5000 Du        
  38414 ****        19.7500   8.5000  25.7500 Du        
  38415 ****        19.7500   8.5000  26.0000 Du        
  38416 ****        19.7500   8.7500  25.5000 Du        
  38417 ****        19.7500   8.7500  25.7500 Du        
  38418 ****        19.7500   8.7500  26.0000 Du        
  38419 ****        19.7500   9.0000  25.2500 Du        
  38420 ****        19.7500   9.0000  25.5000 Du        
  38421 ****        19.7500   9.0000  25.7500 Du        
  38422 ****        19.7500   9.0000  26.0000 Du        
  38423 ****        19.7500   9.2500  25.2500 Du        
  38424 ****        19.7500   9.2500  25.5000 Du        
  38425 ****        19.7500   9.2500  25.7500 Du        
  38426 ****        19.7500   9.2500  26.0000 Du        
  38427 ****        19.7500   9.5000  25.2500 Du        
  38428 ****        19.7500   9.5000  25.5000 Du        
  38429 ****        19.7500   9.5000  25.7500 Du        
  38430 ****        19.7500   9.5000  26.0000 Du        
  38431 ****        19.7500   9.7500  25.5000 Du        
  38432 ****        19.7500   9.7500  25.7500 Du        
  38433 ****        19.7500   9.7500  26.0000 Du        
  38434 ****        19.7500  14.2500  15.5000 Du        
  38435 ****        19.7500  14.2500  15.7500 Du        
  38436 ****        19.7500  14.2500  32.0000 Du        
  38437 ****        19.7500  14.5000  15.0000 Du        
  38438 ****        19.7500  14.5000  15.2500 Du        
  38439 ****        19.7500  14.5000  15.5000 Du        
  38440 ****        19.7500  14.5000  15.7500 Du        
  38441 ****        19.7500  14.5000  31.7500 Du        
  38442 ****        19.7500  14.5000  32.0000 Du        
  38443 ****        19.7500  14.7500  15.0000 Du        
  38444 ****        19.7500  14.7500  15.2500 Du        
  38445 ****        19.7500  14.7500  15.5000 Du        
  38446 ****        19.7500  14.7500  15.7500 Du        
  38447 ****        19.7500  14.7500  16.0000 Du        
  38448 ****        19.7500  14.7500  31.7500 Du        
  38449 ****        19.7500  14.7500  32.0000 Du        
  38450 ****        19.7500  14.7500  32.2500 Du        
  38451 ****        19.7500  15.0000  15.0000 Du        
  38452 ****        19.7500  15.0000  15.2500 Du        
  38453 ****        19.7500  15.0000  15.5000 Du        
  38454 ****        19.7500  15.0000  15.7500 Du        
  38455 ****        19.7500  15.0000  31.7500 Du        
  38456 ****        19.7500  15.0000  32.0000 Du        
  38457 ****        19.7500  15.0000  32.2500 Du        
  38458 ****        19.7500  15.2500  15.0000 Du        
  38459 ****        19.7500  15.2500  15.2500 Du        
  38460 ****        19.7500  15.2500  15.5000 Du        
  38461 ****        19.7500  15.2500  15.7500 Du        
  38462 ****        19.7500  15.2500  32.0000 Du        
  38463 ****        19.7500  15.2500  32.2500 Du        
  38464 ****        19.7500  15.5000  15.0000 Du        
  38465 ****        19.7500  15.5000  15.2500 Du        
  38466 ****        19.7500  15.7500  15.0000 Du        
  38467 ****        19.7500  16.7500  14.0000 Du        
  38468 ****        19.7500  17.0000  13.7500 Du        
  38469 ****        19.7500  17.0000  14.0000 Du        
  38470 ****        19.7500  17.2500  13.5000 Du        
  38471 ****        19.7500  17.2500  13.7500 Du        
  38472 ****        19.7500  17.2500  14.0000 Du        
  38473 ****        19.7500  17.5000  13.0000 Du        
  38474 ****        19.7500  17.5000  13.2500 Du        
  38475 ****        19.7500  17.5000  13.5000 Du        
  38476 ****        19.7500  17.5000  13.7500 Du        
  38477 ****        19.7500  17.5000  14.0000 Du        
  38478 ****        19.7500  17.7500  12.2500 Du        
  38479 ****        19.7500  17.7500  12.5000 Du        
  38480 ****        19.7500  17.7500  12.7500 Du        
  38481 ****        19.7500  17.7500  13.0000 Du        
  38482 ****        19.7500  17.7500  13.2500 Du        
  38483 ****        19.7500  17.7500  13.5000 Du        
  38484 ****        19.7500  17.7500  13.7500 Du        
  38485 ****        19.7500  17.7500  14.0000 Du        
  38486 ****        19.7500  18.0000  12.2500 Du        
  38487 ****        19.7500  18.0000  12.5000 Du        
  38488 ****        19.7500  18.0000  12.7500 Du        
  38489 ****        19.7500  18.0000  13.0000 Du        
  38490 ****        19.7500  18.0000  13.2500 Du        
  38491 ****        19.7500  18.0000  13.5000 Du        
  38492 ****        19.7500  18.0000  13.7500 Du        
  38493 ****        19.7500  18.0000  14.0000 Du        
  38494 ****        19.7500  18.2500  12.0000 Du        
  38495 ****        19.7500  18.2500  12.2500 Du        
  38496 ****        19.7500  18.2500  12.5000 Du        
  38497 ****        19.7500  18.2500  12.7500 Du        
  38498 ****        19.7500  18.2500  13.0000 Du        
  38499 ****        19.7500  18.2500  13.2500 Du        
  38500 ****        19.7500  18.2500  13.5000 Du        
  38501 ****        19.7500  18.2500  13.7500 Du        
  38502 ****        19.7500  18.2500  14.0000 Du        
  38503 ****        19.7500  18.5000  12.0000 Du        
  38504 ****        19.7500  18.5000  12.2500 Du        
  38505 ****        19.7500  18.5000  12.5000 Du        
  38506 ****        19.7500  18.5000  12.7500 Du        
  38507 ****        19.7500  18.5000  13.0000 Du        
  38508 ****        19.7500  18.5000  13.2500 Du        
  38509 ****        19.7500  18.5000  13.5000 Du        
  38510 ****        19.7500  18.5000  13.7500 Du        
  38511 ****        19.7500  18.5000  14.0000 Du        
  38512 ****        19.7500  18.7500  12.2500 Du        
  38513 ****        19.7500  18.7500  12.5000 Du        
  38514 ****        19.7500  18.7500  12.7500 Du        
  38515 ****        19.7500  18.7500  13.0000 Du        
  38516 ****        19.7500  18.7500  13.2500 Du        
  38517 ****        19.7500  18.7500  13.5000 Du        
  38518 ****        19.7500  18.7500  13.7500 Du        
  38519 ****        19.7500  19.0000  12.2500 Du        
  38520 ****        19.7500  19.0000  12.5000 Du        
  38521 ****        19.7500  19.0000  12.7500 Du        
  38522 ****        19.7500  19.0000  13.0000 Du        
  38523 ****        19.7500  19.0000  13.2500 Du        
  38524 ****        19.7500  19.0000  13.5000 Du        
  38525 ****        19.7500  19.2500  12.2500 Du        
  38526 ****        19.7500  19.2500  12.5000 Du        
  38527 ****        19.7500  19.2500  12.7500 Du        
  38528 ****        19.7500  19.2500  13.0000 Du        
  38529 ****        19.7500  19.2500  13.2500 Du        
  38530 ****        19.7500  19.5000  12.5000 Du        
  38531 ****        19.7500  19.5000  36.0000 Du        
  38532 ****        19.7500  19.5000  36.2500 Du        
  38533 ****        19.7500  19.7500  36.0000 Du        
  38534 ****        19.7500  19.7500  36.2500 Du        
  38535 ****        19.7500  20.0000  36.0000 Du        
  38536 ****        19.7500  20.0000  36.2500 Du        
  38537 ****        19.7500  20.2500  36.0000 Du        
  38538 ****        19.7500  20.2500  36.2500 Du        
  38539 ****        20.0000  -4.0000  31.5000 Du        
  38540 ****        20.0000  -4.0000  31.7500 Du        
  38541 ****        20.0000  -4.0000  32.0000 Du        
  38542 ****        20.0000  -4.0000  32.2500 Du        
  38543 ****        20.0000  -3.7500  31.5000 Du        
  38544 ****        20.0000  -3.7500  31.7500 Du        
  38545 ****        20.0000  -3.7500  32.0000 Du        
  38546 ****        20.0000  -3.7500  32.2500 Du        
  38547 ****        20.0000  -3.5000  31.5000 Du        
  38548 ****        20.0000  -3.5000  31.7500 Du        
  38549 ****        20.0000  -3.5000  32.0000 Du        
  38550 ****        20.0000  -3.5000  32.2500 Du        
  38551 ****        20.0000  -3.2500  31.5000 Du        
  38552 ****        20.0000  -3.2500  31.7500 Du        
  38553 ****        20.0000  -3.2500  32.0000 Du        
  38554 ****        20.0000  -3.2500  32.2500 Du        
  38555 ****        20.0000  -3.2500  32.5000 Du        
  38556 ****        20.0000  -3.0000  31.7500 Du        
  38557 ****        20.0000  -3.0000  32.0000 Du        
  38558 ****        20.0000  -3.0000  32.2500 Du        
  38559 ****        20.0000  -3.0000  32.5000 Du        
  38560 ****        20.0000  -2.7500  31.7500 Du        
  38561 ****        20.0000  -2.7500  32.0000 Du        
  38562 ****        20.0000  -2.7500  32.2500 Du        
  38563 ****        20.0000  -2.7500  32.5000 Du        
  38564 ****        20.0000  -2.7500  32.7500 Du        
  38565 ****        20.0000  -2.5000  32.5000 Du        
  38566 ****        20.0000  -2.5000  32.7500 Du        
  38567 ****        20.0000  -2.2500  32.7500 Du        
  38568 ****        20.0000  -0.2500  18.0000 Du        
  38569 ****        20.0000  -0.2500  18.2500 Du        
  38570 ****        20.0000   1.2500   1.7500 Du        
  38571 ****        20.0000   1.2500   2.0000 Du        
  38572 ****        20.0000   1.2500   2.2500 Du        
  38573 ****        20.0000   1.2500   2.5000 Du        
  38574 ****        20.0000   1.5000   1.7500 Du        
  38575 ****        20.0000   1.5000   2.0000 Du        
  38576 ****        20.0000   1.5000   2.2500 Du        
  38577 ****        20.0000   1.5000   2.5000 Du        
  38578 ****        20.0000   1.7500   1.5000 Du        
  38579 ****        20.0000   1.7500   1.7500 Du        
  38580 ****        20.0000   1.7500   2.0000 Du        
  38581 ****        20.0000   1.7500   2.2500 Du        
  38582 ****        20.0000   1.7500   2.5000 Du        
  38583 ****        20.0000   2.0000   1.5000 Du        
  38584 ****        20.0000   2.0000   1.7500 Du        
  38585 ****        20.0000   2.0000   2.0000 Du        
  38586 ****        20.0000   2.0000   2.2500 Du        
  38587 ****        20.0000   2.2500   1.5000 Du        
  38588 ****        20.0000   2.2500   1.7500 Du        
  38589 ****        20.0000   2.2500   2.0000 Du        
  38590 ****        20.0000   2.2500   2.2500 Du        
  38591 ****        20.0000   2.5000   1.5000 Du        
  38592 ****        20.0000   2.5000   1.7500 Du        
  38593 ****        20.0000   2.5000   2.0000 Du        
  38594 ****        20.0000   2.5000   2.2500 Du        
  38595 ****        20.0000   2.5000   2.5000 Du        
  38596 ****        20.0000   2.7500   1.2500 Du        
  38597 ****        20.0000   2.7500   1.5000 Du        
  38598 ****        20.0000   2.7500   1.7500 Du        
  38599 ****        20.0000   2.7500   2.0000 Du        
  38600 ****        20.0000   2.7500   2.2500 Du        
  38601 ****        20.0000   2.7500   2.5000 Du        
  38602 ****        20.0000   2.7500   2.7500 Du        
  38603 ****        20.0000   2.7500   3.0000 Du        
  38604 ****        20.0000   3.0000   1.2500 Du        
  38605 ****        20.0000   3.0000   1.5000 Du        
  38606 ****        20.0000   3.0000   1.7500 Du        
  38607 ****        20.0000   3.0000   2.0000 Du        
  38608 ****        20.0000   3.0000   2.2500 Du        
  38609 ****        20.0000   3.0000   2.5000 Du        
  38610 ****        20.0000   3.0000   2.7500 Du        
  38611 ****        20.0000   3.0000   3.0000 Du        
  38612 ****        20.0000   3.0000   3.2500 Du        
  38613 ****        20.0000   3.2500   1.0000 Du        
  38614 ****        20.0000   3.2500   1.2500 Du        
  38615 ****        20.0000   3.2500   1.5000 Du        
  38616 ****        20.0000   3.2500   1.7500 Du        
  38617 ****        20.0000   3.2500   2.0000 Du        
  38618 ****        20.0000   3.2500   2.2500 Du        
  38619 ****        20.0000   3.2500   2.5000 Du        
  38620 ****        20.0000   3.2500   2.7500 Du        
  38621 ****        20.0000   3.2500   3.0000 Du        
  38622 ****        20.0000   3.2500   3.2500 Du        
  38623 ****        20.0000   3.2500   3.5000 Du        
  38624 ****        20.0000   3.5000   1.0000 Du        
  38625 ****        20.0000   3.5000   1.2500 Du        
  38626 ****        20.0000   3.5000   1.5000 Du        
  38627 ****        20.0000   3.5000   1.7500 Du        
  38628 ****        20.0000   3.5000   2.0000 Du        
  38629 ****        20.0000   3.5000   2.2500 Du        
  38630 ****        20.0000   3.5000   2.5000 Du        
  38631 ****        20.0000   3.5000   2.7500 Du        
  38632 ****        20.0000   3.5000   3.0000 Du        
  38633 ****        20.0000   3.5000   3.2500 Du        
  38634 ****        20.0000   3.5000   3.5000 Du        
  38635 ****        20.0000   3.5000   3.7500 Du        
  38636 ****        20.0000   3.5000   4.0000 Du        
  38637 ****        20.0000   3.7500   0.7500 Du        
  38638 ****        20.0000   3.7500   1.0000 Du        
  38639 ****        20.0000   3.7500   1.2500 Du        
  38640 ****        20.0000   3.7500   1.5000 Du        
  38641 ****        20.0000   3.7500   1.7500 Du        
  38642 ****        20.0000   3.7500   2.0000 Du        
  38643 ****        20.0000   3.7500   2.2500 Du        
  38644 ****        20.0000   3.7500   2.5000 Du        
  38645 ****        20.0000   3.7500   2.7500 Du        
  38646 ****        20.0000   3.7500   3.0000 Du        
  38647 ****        20.0000   3.7500   3.2500 Du        
  38648 ****        20.0000   3.7500   3.5000 Du        
  38649 ****        20.0000   3.7500   3.7500 Du        
  38650 ****        20.0000   3.7500   4.0000 Du        
  38651 ****        20.0000   3.7500   4.2500 Du        
  38652 ****        20.0000   4.0000  -1.0000 Du        
  38653 ****        20.0000   4.0000  -0.7500 Du        
  38654 ****        20.0000   4.0000  -0.5000 Du        
  38655 ****        20.0000   4.0000  -0.2500 Du        
  38656 ****        20.0000   4.0000   0.0000 Du        
  38657 ****        20.0000   4.0000   0.2500 Du        
  38658 ****        20.0000   4.0000   0.5000 Du        
  38659 ****        20.0000   4.0000   0.7500 Du        
  38660 ****        20.0000   4.0000   1.0000 Du        
  38661 ****        20.0000   4.0000   1.2500 Du        
  38662 ****        20.0000   4.0000   1.5000 Du        
  38663 ****        20.0000   4.0000   1.7500 Du        
  38664 ****        20.0000   4.0000   2.0000 Du        
  38665 ****        20.0000   4.0000   2.2500 Du        
  38666 ****        20.0000   4.0000   2.5000 Du        
  38667 ****        20.0000   4.0000   2.7500 Du        
  38668 ****        20.0000   4.0000   3.0000 Du        
  38669 ****        20.0000   4.0000   3.2500 Du        
  38670 ****        20.0000   4.0000   3.5000 Du        
  38671 ****        20.0000   4.0000   3.7500 Du        
  38672 ****        20.0000   4.0000   4.0000 Du        
  38673 ****        20.0000   4.0000   4.2500 Du        
  38674 ****        20.0000   4.0000   4.5000 Du        
  38675 ****        20.0000   4.2500  -1.0000 Du        
  38676 ****        20.0000   4.2500  -0.7500 Du        
  38677 ****        20.0000   4.2500  -0.5000 Du        
  38678 ****        20.0000   4.2500  -0.2500 Du        
  38679 ****        20.0000   4.2500   0.0000 Du        
  38680 ****        20.0000   4.2500   0.2500 Du        
  38681 ****        20.0000   4.2500   0.5000 Du        
  38682 ****        20.0000   4.2500   0.7500 Du        
  38683 ****        20.0000   4.2500   1.0000 Du        
  38684 ****        20.0000   4.2500   1.2500 Du        
  38685 ****        20.0000   4.2500   1.5000 Du        
  38686 ****        20.0000   4.2500   1.7500 Du        
  38687 ****        20.0000   4.2500   2.0000 Du        
  38688 ****        20.0000   4.2500   2.2500 Du        
  38689 ****        20.0000   4.2500   2.5000 Du        
  38690 ****        20.0000   4.2500   2.7500 Du        
  38691 ****        20.0000   4.2500   3.0000 Du        
  38692 ****        20.0000   4.2500   3.2500 Du        
  38693 ****        20.0000   4.2500   3.5000 Du        
  38694 ****        20.0000   4.2500   3.7500 Du        
  38695 ****        20.0000   4.2500   4.0000 Du        
  38696 ****        20.0000   4.2500   4.2500 Du        
  38697 ****        20.0000   4.2500   4.5000 Du        
  38698 ****        20.0000   4.5000  -1.0000 Du        
  38699 ****        20.0000   4.5000  -0.7500 Du        
  38700 ****        20.0000   4.5000  -0.5000 Du        
  38701 ****        20.0000   4.5000  -0.2500 Du        
  38702 ****        20.0000   4.5000   0.0000 Du        
  38703 ****        20.0000   4.5000   0.2500 Du        
  38704 ****        20.0000   4.5000   0.5000 Du        
  38705 ****        20.0000   4.5000   0.7500 Du        
  38706 ****        20.0000   4.5000   1.0000 Du        
  38707 ****        20.0000   4.5000   1.2500 Du        
  38708 ****        20.0000   4.5000   1.5000 Du        
  38709 ****        20.0000   4.5000   1.7500 Du        
  38710 ****        20.0000   4.5000   2.0000 Du        
  38711 ****        20.0000   4.5000   2.2500 Du        
  38712 ****        20.0000   4.5000   2.5000 Du        
  38713 ****        20.0000   4.5000   2.7500 Du        
  38714 ****        20.0000   4.5000   3.0000 Du        
  38715 ****        20.0000   4.5000   3.2500 Du        
  38716 ****        20.0000   4.5000   3.5000 Du        
  38717 ****        20.0000   4.5000   3.7500 Du        
  38718 ****        20.0000   4.5000   4.0000 Du        
  38719 ****        20.0000   4.5000   4.2500 Du        
  38720 ****        20.0000   4.7500  -1.0000 Du        
  38721 ****        20.0000   4.7500  -0.7500 Du        
  38722 ****        20.0000   4.7500  -0.5000 Du        
  38723 ****        20.0000   4.7500  -0.2500 Du        
  38724 ****        20.0000   4.7500   0.0000 Du        
  38725 ****        20.0000   4.7500   0.2500 Du        
  38726 ****        20.0000   4.7500   0.5000 Du        
  38727 ****        20.0000   4.7500   0.7500 Du        
  38728 ****        20.0000   4.7500   1.0000 Du        
  38729 ****        20.0000   4.7500   1.2500 Du        
  38730 ****        20.0000   4.7500   1.5000 Du        
  38731 ****        20.0000   4.7500   1.7500 Du        
  38732 ****        20.0000   4.7500   2.0000 Du        
  38733 ****        20.0000   4.7500   2.2500 Du        
  38734 ****        20.0000   4.7500   2.5000 Du        
  38735 ****        20.0000   4.7500   2.7500 Du        
  38736 ****        20.0000   4.7500   3.0000 Du        
  38737 ****        20.0000   4.7500   3.2500 Du        
  38738 ****        20.0000   4.7500   3.5000 Du        
  38739 ****        20.0000   4.7500   3.7500 Du        
  38740 ****        20.0000   4.7500   4.0000 Du        
  38741 ****        20.0000   5.0000  -1.0000 Du        
  38742 ****        20.0000   5.0000  -0.7500 Du        
  38743 ****        20.0000   5.0000  -0.5000 Du        
  38744 ****        20.0000   5.0000  -0.2500 Du        
  38745 ****        20.0000   5.0000   0.0000 Du        
  38746 ****        20.0000   5.0000   0.2500 Du        
  38747 ****        20.0000   5.0000   0.5000 Du        
  38748 ****        20.0000   5.0000   0.7500 Du        
  38749 ****        20.0000   5.0000   1.0000 Du        
  38750 ****        20.0000   5.0000   1.2500 Du        
  38751 ****        20.0000   5.0000   1.5000 Du        
  38752 ****        20.0000   5.0000   1.7500 Du        
  38753 ****        20.0000   5.0000   2.0000 Du        
  38754 ****        20.0000   5.0000   2.2500 Du        
  38755 ****        20.0000   5.0000   2.5000 Du        
  38756 ****        20.0000   5.0000   2.7500 Du        
  38757 ****        20.0000   5.0000   3.0000 Du        
  38758 ****        20.0000   5.0000   3.2500 Du        
  38759 ****        20.0000   5.0000   3.5000 Du        
  38760 ****        20.0000   5.0000   3.7500 Du        
  38761 ****        20.0000   5.0000   4.0000 Du        
  38762 ****        20.0000   5.2500  -0.7500 Du        
  38763 ****        20.0000   5.2500  -0.5000 Du        
  38764 ****        20.0000   5.2500  -0.2500 Du        
  38765 ****        20.0000   5.2500   0.0000 Du        
  38766 ****        20.0000   5.2500   0.2500 Du        
  38767 ****        20.0000   5.2500   0.5000 Du        
  38768 ****        20.0000   5.2500   0.7500 Du        
  38769 ****        20.0000   5.2500   1.0000 Du        
  38770 ****        20.0000   5.2500   1.2500 Du        
  38771 ****        20.0000   5.2500   1.5000 Du        
  38772 ****        20.0000   5.2500   1.7500 Du        
  38773 ****        20.0000   5.2500   2.0000 Du        
  38774 ****        20.0000   5.2500   2.2500 Du        
  38775 ****        20.0000   5.2500   2.5000 Du        
  38776 ****        20.0000   5.2500   2.7500 Du        
  38777 ****        20.0000   5.2500   3.0000 Du        
  38778 ****        20.0000   5.2500   3.2500 Du        
  38779 ****        20.0000   5.2500   3.5000 Du        
  38780 ****        20.0000   5.2500   3.7500 Du        
  38781 ****        20.0000   5.5000   0.0000 Du        
  38782 ****        20.0000   5.5000   0.2500 Du        
  38783 ****        20.0000   5.5000   0.5000 Du        
  38784 ****        20.0000   5.5000   0.7500 Du        
  38785 ****        20.0000   5.5000   1.0000 Du        
  38786 ****        20.0000   5.5000   1.2500 Du        
  38787 ****        20.0000   5.5000   1.5000 Du        
  38788 ****        20.0000   5.5000   1.7500 Du        
  38789 ****        20.0000   5.5000   2.0000 Du        
  38790 ****        20.0000   5.5000   2.2500 Du        
  38791 ****        20.0000   5.5000   2.5000 Du        
  38792 ****        20.0000   5.5000   2.7500 Du        
  38793 ****        20.0000   5.5000   3.0000 Du        
  38794 ****        20.0000   5.5000   3.2500 Du        
  38795 ****        20.0000   5.5000   3.5000 Du        
  38796 ****        20.0000   5.5000   3.7500 Du        
  38797 ****        20.0000   5.7500   0.7500 Du        
  38798 ****        20.0000   5.7500   1.0000 Du        
  38799 ****        20.0000   5.7500   1.2500 Du        
  38800 ****        20.0000   5.7500   1.5000 Du        
  38801 ****        20.0000   5.7500   1.7500 Du        
  38802 ****        20.0000   5.7500   2.0000 Du        
  38803 ****        20.0000   5.7500   2.2500 Du        
  38804 ****        20.0000   5.7500   2.5000 Du        
  38805 ****        20.0000   5.7500   2.7500 Du        
  38806 ****        20.0000   5.7500   3.0000 Du        
  38807 ****        20.0000   5.7500   3.2500 Du        
  38808 ****        20.0000   5.7500   3.5000 Du        
  38809 ****        20.0000   6.0000   1.0000 Du        
  38810 ****        20.0000   6.0000   1.2500 Du        
  38811 ****        20.0000   6.0000   1.5000 Du        
  38812 ****        20.0000   6.0000   1.7500 Du        
  38813 ****        20.0000   6.0000   2.0000 Du        
  38814 ****        20.0000   6.0000   2.2500 Du        
  38815 ****        20.0000   6.0000   2.5000 Du        
  38816 ****        20.0000   6.0000   2.7500 Du        
  38817 ****        20.0000   6.0000   3.0000 Du        
  38818 ****        20.0000   6.0000   3.2500 Du        
  38819 ****        20.0000   6.0000   3.5000 Du        
  38820 ****        20.0000   6.2500   1.2500 Du        
  38821 ****        20.0000   6.2500   1.5000 Du        
  38822 ****        20.0000   6.2500   1.7500 Du        
  38823 ****        20.0000   6.2500   2.0000 Du        
  38824 ****        20.0000   6.2500   2.2500 Du        
  38825 ****        20.0000   6.2500   2.5000 Du        
  38826 ****        20.0000   6.2500   2.7500 Du        
  38827 ****        20.0000   6.2500   3.0000 Du        
  38828 ****        20.0000   6.2500   3.2500 Du        
  38829 ****        20.0000   6.2500   3.5000 Du        
  38830 ****        20.0000   6.5000   1.5000 Du        
  38831 ****        20.0000   6.5000   1.7500 Du        
  38832 ****        20.0000   6.5000   2.0000 Du        
  38833 ****        20.0000   6.5000   2.2500 Du        
  38834 ****        20.0000   6.5000   2.5000 Du        
  38835 ****        20.0000   7.2500  25.7500 Du        
  38836 ****        20.0000   7.2500  26.0000 Du        
  38837 ****        20.0000   7.5000  25.7500 Du        
  38838 ****        20.0000   7.5000  26.0000 Du        
  38839 ****        20.0000   7.5000  26.2500 Du        
  38840 ****        20.0000   7.7500  25.5000 Du        
  38841 ****        20.0000   7.7500  25.7500 Du        
  38842 ****        20.0000   7.7500  26.0000 Du        
  38843 ****        20.0000   7.7500  26.2500 Du        
  38844 ****        20.0000   8.0000  25.5000 Du        
  38845 ****        20.0000   8.0000  25.7500 Du        
  38846 ****        20.0000   8.0000  26.0000 Du        
  38847 ****        20.0000   8.0000  26.2500 Du        
  38848 ****        20.0000   8.2500  25.5000 Du        
  38849 ****        20.0000   8.2500  25.7500 Du        
  38850 ****        20.0000   8.2500  26.0000 Du        
  38851 ****        20.0000   8.2500  26.2500 Du        
  38852 ****        20.0000   8.5000  25.2500 Du        
  38853 ****        20.0000   8.5000  25.5000 Du        
  38854 ****        20.0000   8.5000  25.7500 Du        
  38855 ****        20.0000   8.5000  26.0000 Du        
  38856 ****        20.0000   8.5000  26.2500 Du        
  38857 ****        20.0000   8.7500  25.2500 Du        
  38858 ****        20.0000   8.7500  25.5000 Du        
  38859 ****        20.0000   8.7500  25.7500 Du        
  38860 ****        20.0000   8.7500  26.0000 Du        
  38861 ****        20.0000   8.7500  26.2500 Du        
  38862 ****        20.0000   9.0000  25.2500 Du        
  38863 ****        20.0000   9.0000  25.5000 Du        
  38864 ****        20.0000   9.0000  25.7500 Du        
  38865 ****        20.0000   9.0000  26.0000 Du        
  38866 ****        20.0000   9.2500  25.2500 Du        
  38867 ****        20.0000   9.2500  25.5000 Du        
  38868 ****        20.0000   9.2500  25.7500 Du        
  38869 ****        20.0000   9.2500  26.0000 Du        
  38870 ****        20.0000   9.5000  25.5000 Du        
  38871 ****        20.0000   9.5000  25.7500 Du        
  38872 ****        20.0000   9.5000  26.0000 Du        
  38873 ****        20.0000   9.7500  25.7500 Du        
  38874 ****        20.0000   9.7500  26.0000 Du        
  38875 ****        20.0000  14.0000  31.7500 Du        
  38876 ****        20.0000  14.0000  32.0000 Du        
  38877 ****        20.0000  14.2500  31.7500 Du        
  38878 ****        20.0000  14.2500  32.0000 Du        
  38879 ****        20.0000  14.5000  15.2500 Du        
  38880 ****        20.0000  14.5000  15.5000 Du        
  38881 ****        20.0000  14.5000  31.5000 Du        
  38882 ****        20.0000  14.5000  31.7500 Du        
  38883 ****        20.0000  14.5000  32.0000 Du        
  38884 ****        20.0000  14.7500  15.0000 Du        
  38885 ****        20.0000  14.7500  15.2500 Du        
  38886 ****        20.0000  14.7500  15.5000 Du        
  38887 ****        20.0000  14.7500  15.7500 Du        
  38888 ****        20.0000  14.7500  31.5000 Du        
  38889 ****        20.0000  14.7500  31.7500 Du        
  38890 ****        20.0000  14.7500  32.0000 Du        
  38891 ****        20.0000  15.0000  15.0000 Du        
  38892 ****        20.0000  15.0000  15.2500 Du        
  38893 ****        20.0000  15.0000  15.5000 Du        
  38894 ****        20.0000  15.0000  15.7500 Du        
  38895 ****        20.0000  15.0000  16.0000 Du        
  38896 ****        20.0000  15.0000  31.5000 Du        
  38897 ****        20.0000  15.0000  31.7500 Du        
  38898 ****        20.0000  15.0000  32.0000 Du        
  38899 ****        20.0000  15.0000  32.2500 Du        
  38900 ****        20.0000  15.2500  15.0000 Du        
  38901 ****        20.0000  15.2500  15.2500 Du        
  38902 ****        20.0000  15.2500  15.5000 Du        
  38903 ****        20.0000  15.2500  15.7500 Du        
  38904 ****        20.0000  15.2500  31.7500 Du        
  38905 ****        20.0000  15.2500  32.0000 Du        
  38906 ****        20.0000  15.2500  32.2500 Du        
  38907 ****        20.0000  15.5000  15.0000 Du        
  38908 ****        20.0000  15.5000  15.2500 Du        
  38909 ****        20.0000  15.5000  15.5000 Du        
  38910 ****        20.0000  15.5000  31.7500 Du        
  38911 ****        20.0000  15.5000  32.0000 Du        
  38912 ****        20.0000  15.5000  32.2500 Du        
  38913 ****        20.0000  15.7500  14.7500 Du        
  38914 ****        20.0000  15.7500  15.0000 Du        
  38915 ****        20.0000  15.7500  15.2500 Du        
  38916 ****        20.0000  16.0000  14.7500 Du        
  38917 ****        20.0000  16.0000  15.0000 Du        
  38918 ****        20.0000  16.7500  14.2500 Du        
  38919 ****        20.0000  17.0000  14.0000 Du        
  38920 ****        20.0000  17.0000  14.2500 Du        
  38921 ****        20.0000  17.2500  13.7500 Du        
  38922 ****        20.0000  17.2500  14.0000 Du        
  38923 ****        20.0000  17.2500  14.2500 Du        
  38924 ****        20.0000  17.5000  13.7500 Du        
  38925 ****        20.0000  17.5000  14.0000 Du        
  38926 ****        20.0000  17.5000  14.2500 Du        
  38927 ****        20.0000  17.7500  13.2500 Du        
  38928 ****        20.0000  17.7500  13.5000 Du        
  38929 ****        20.0000  17.7500  13.7500 Du        
  38930 ****        20.0000  17.7500  14.0000 Du        
  38931 ****        20.0000  17.7500  14.2500 Du        
  38932 ****        20.0000  18.0000  13.0000 Du        
  38933 ****        20.0000  18.0000  13.2500 Du        
  38934 ****        20.0000  18.0000  13.5000 Du        
  38935 ****        20.0000  18.0000  13.7500 Du        
  38936 ****        20.0000  18.0000  14.0000 Du        
  38937 ****        20.0000  18.0000  14.2500 Du        
  38938 ****        20.0000  18.2500  12.7500 Du        
  38939 ****        20.0000  18.2500  13.0000 Du        
  38940 ****        20.0000  18.2500  13.2500 Du        
  38941 ****        20.0000  18.2500  13.5000 Du        
  38942 ****        20.0000  18.2500  13.7500 Du        
  38943 ****        20.0000  18.2500  14.0000 Du        
  38944 ****        20.0000  18.2500  14.2500 Du        
  38945 ****        20.0000  18.5000  12.5000 Du        
  38946 ****        20.0000  18.5000  12.7500 Du        
  38947 ****        20.0000  18.5000  13.0000 Du        
  38948 ****        20.0000  18.5000  13.2500 Du        
  38949 ****        20.0000  18.5000  13.5000 Du        
  38950 ****        20.0000  18.5000  13.7500 Du        
  38951 ****        20.0000  18.5000  14.0000 Du        
  38952 ****        20.0000  18.7500  12.2500 Du        
  38953 ****        20.0000  18.7500  12.5000 Du        
  38954 ****        20.0000  18.7500  12.7500 Du        
  38955 ****        20.0000  18.7500  13.0000 Du        
  38956 ****        20.0000  18.7500  13.2500 Du        
  38957 ****        20.0000  18.7500  13.5000 Du        
  38958 ****        20.0000  18.7500  13.7500 Du        
  38959 ****        20.0000  18.7500  14.0000 Du        
  38960 ****        20.0000  19.0000  12.2500 Du        
  38961 ****        20.0000  19.0000  12.5000 Du        
  38962 ****        20.0000  19.0000  12.7500 Du        
  38963 ****        20.0000  19.0000  13.0000 Du        
  38964 ****        20.0000  19.0000  13.2500 Du        
  38965 ****        20.0000  19.0000  13.5000 Du        
  38966 ****        20.0000  19.0000  13.7500 Du        
  38967 ****        20.0000  19.0000  14.0000 Du        
  38968 ****        20.0000  19.2500  12.5000 Du        
  38969 ****        20.0000  19.2500  12.7500 Du        
  38970 ****        20.0000  19.2500  13.0000 Du        
  38971 ****        20.0000  19.2500  13.2500 Du        
  38972 ****        20.0000  19.2500  13.5000 Du        
  38973 ****        20.0000  19.2500  13.7500 Du        
  38974 ****        20.0000  19.2500  14.0000 Du        
  38975 ****        20.0000  19.5000  12.5000 Du        
  38976 ****        20.0000  19.5000  12.7500 Du        
  38977 ****        20.0000  19.5000  13.0000 Du        
  38978 ****        20.0000  19.5000  35.7500 Du        
  38979 ****        20.0000  19.5000  36.0000 Du        
  38980 ****        20.0000  19.5000  36.2500 Du        
  38981 ****        20.0000  19.7500  36.0000 Du        
  38982 ****        20.0000  19.7500  36.2500 Du        
  38983 ****        20.0000  20.0000  36.0000 Du        
  38984 ****        20.0000  20.0000  36.2500 Du        
  38985 ****        20.2500  -4.0000  31.5000 Du        
  38986 ****        20.2500  -4.0000  31.7500 Du        
  38987 ****        20.2500  -4.0000  32.0000 Du        
  38988 ****        20.2500  -4.0000  32.2500 Du        
  38989 ****        20.2500  -3.7500  31.5000 Du        
  38990 ****        20.2500  -3.7500  31.7500 Du        
  38991 ****        20.2500  -3.7500  32.0000 Du        
  38992 ****        20.2500  -3.7500  32.2500 Du        
  38993 ****        20.2500  -3.5000  31.7500 Du        
  38994 ****        20.2500  -3.5000  32.0000 Du        
  38995 ****        20.2500  -3.5000  32.2500 Du        
  38996 ****        20.2500  -3.5000  32.5000 Du        
  38997 ****        20.2500  -3.2500  31.7500 Du        
  38998 ****        20.2500  -3.2500  32.0000 Du        
  38999 ****        20.2500  -3.2500  32.2500 Du        
  39000 ****        20.2500  -3.2500  32.5000 Du        
  39001 ****        20.2500  -3.0000  32.0000 Du        
  39002 ****        20.2500  -3.0000  32.2500 Du        
  39003 ****        20.2500  -3.0000  32.5000 Du        
  39004 ****        20.2500  -3.0000  32.7500 Du        
  39005 ****        20.2500  -2.7500  32.2500 Du        
  39006 ****        20.2500  -2.7500  32.5000 Du        
  39007 ****        20.2500  -2.7500  32.7500 Du        
  39008 ****        20.2500  -2.5000  32.5000 Du        
  39009 ****        20.2500  -2.5000  32.7500 Du        
  39010 ****        20.2500  -2.2500  32.7500 Du        
  39011 ****        20.2500  -1.0000  36.2500 Du        
  39012 ****        20.2500  -1.0000  36.5000 Du        
  39013 ****        20.2500  -0.7500  36.0000 Du        
  39014 ****        20.2500  -0.7500  36.2500 Du        
  39015 ****        20.2500  -0.7500  36.5000 Du        
  39016 ****        20.2500  -0.7500  36.7500 Du        
  39017 ****        20.2500  -0.5000  36.2500 Du        
  39018 ****        20.2500  -0.5000  36.5000 Du        
  39019 ****        20.2500  -0.2500  18.2500 Du        
  39020 ****        20.2500  -0.2500  36.5000 Du        
  39021 ****        20.2500   3.5000   1.7500 Du        
  39022 ****        20.2500   3.5000   2.0000 Du        
  39023 ****        20.2500   3.5000   2.2500 Du        
  39024 ****        20.2500   3.5000   3.2500 Du        
  39025 ****        20.2500   3.5000   3.5000 Du        
  39026 ****        20.2500   3.5000   3.7500 Du        
  39027 ****        20.2500   3.7500   1.7500 Du        
  39028 ****        20.2500   3.7500   2.0000 Du        
  39029 ****        20.2500   3.7500   2.2500 Du        
  39030 ****        20.2500   3.7500   2.5000 Du        
  39031 ****        20.2500   3.7500   2.7500 Du        
  39032 ****        20.2500   3.7500   3.0000 Du        
  39033 ****        20.2500   3.7500   3.2500 Du        
  39034 ****        20.2500   3.7500   3.5000 Du        
  39035 ****        20.2500   3.7500   3.7500 Du        
  39036 ****        20.2500   3.7500   4.0000 Du        
  39037 ****        20.2500   3.7500   4.2500 Du        
  39038 ****        20.2500   4.0000   1.5000 Du        
  39039 ****        20.2500   4.0000   1.7500 Du        
  39040 ****        20.2500   4.0000   2.0000 Du        
  39041 ****        20.2500   4.0000   2.2500 Du        
  39042 ****        20.2500   4.0000   2.5000 Du        
  39043 ****        20.2500   4.0000   2.7500 Du        
  39044 ****        20.2500   4.0000   3.0000 Du        
  39045 ****        20.2500   4.0000   3.2500 Du        
  39046 ****        20.2500   4.0000   3.5000 Du        
  39047 ****        20.2500   4.0000   3.7500 Du        
  39048 ****        20.2500   4.0000   4.0000 Du        
  39049 ****        20.2500   4.0000   4.2500 Du        
  39050 ****        20.2500   4.0000   4.5000 Du        
  39051 ****        20.2500   4.2500   1.2500 Du        
  39052 ****        20.2500   4.2500   1.5000 Du        
  39053 ****        20.2500   4.2500   1.7500 Du        
  39054 ****        20.2500   4.2500   2.0000 Du        
  39055 ****        20.2500   4.2500   2.2500 Du        
  39056 ****        20.2500   4.2500   2.5000 Du        
  39057 ****        20.2500   4.2500   2.7500 Du        
  39058 ****        20.2500   4.2500   3.0000 Du        
  39059 ****        20.2500   4.2500   3.2500 Du        
  39060 ****        20.2500   4.2500   3.5000 Du        
  39061 ****        20.2500   4.2500   3.7500 Du        
  39062 ****        20.2500   4.2500   4.0000 Du        
  39063 ****        20.2500   4.2500   4.2500 Du        
  39064 ****        20.2500   4.2500   4.5000 Du        
  39065 ****        20.2500   4.5000  -0.5000 Du        
  39066 ****        20.2500   4.5000  -0.2500 Du        
  39067 ****        20.2500   4.5000   0.0000 Du        
  39068 ****        20.2500   4.5000   0.2500 Du        
  39069 ****        20.2500   4.5000   0.5000 Du        
  39070 ****        20.2500   4.5000   0.7500 Du        
  39071 ****        20.2500   4.5000   1.0000 Du        
  39072 ****        20.2500   4.5000   1.5000 Du        
  39073 ****        20.2500   4.5000   1.7500 Du        
  39074 ****        20.2500   4.5000   2.0000 Du        
  39075 ****        20.2500   4.5000   2.2500 Du        
  39076 ****        20.2500   4.5000   2.5000 Du        
  39077 ****        20.2500   4.5000   2.7500 Du        
  39078 ****        20.2500   4.5000   3.0000 Du        
  39079 ****        20.2500   4.5000   3.2500 Du        
  39080 ****        20.2500   4.5000   3.5000 Du        
  39081 ****        20.2500   4.5000   3.7500 Du        
  39082 ****        20.2500   4.5000   4.0000 Du        
  39083 ****        20.2500   4.5000   4.2500 Du        
  39084 ****        20.2500   4.5000   4.5000 Du        
  39085 ****        20.2500   4.7500  -0.5000 Du        
  39086 ****        20.2500   4.7500  -0.2500 Du        
  39087 ****        20.2500   4.7500   0.0000 Du        
  39088 ****        20.2500   4.7500   0.2500 Du        
  39089 ****        20.2500   4.7500   0.5000 Du        
  39090 ****        20.2500   4.7500   0.7500 Du        
  39091 ****        20.2500   4.7500   1.0000 Du        
  39092 ****        20.2500   4.7500   1.2500 Du        
  39093 ****        20.2500   4.7500   1.5000 Du        
  39094 ****        20.2500   4.7500   1.7500 Du        
  39095 ****        20.2500   4.7500   2.0000 Du        
  39096 ****        20.2500   4.7500   2.2500 Du        
  39097 ****        20.2500   4.7500   2.5000 Du        
  39098 ****        20.2500   4.7500   2.7500 Du        
  39099 ****        20.2500   4.7500   3.0000 Du        
  39100 ****        20.2500   4.7500   3.2500 Du        
  39101 ****        20.2500   4.7500   3.5000 Du        
  39102 ****        20.2500   4.7500   3.7500 Du        
  39103 ****        20.2500   4.7500   4.0000 Du        
  39104 ****        20.2500   4.7500   4.2500 Du        
  39105 ****        20.2500   5.0000  -0.5000 Du        
  39106 ****        20.2500   5.0000  -0.2500 Du        
  39107 ****        20.2500   5.0000   0.0000 Du        
  39108 ****        20.2500   5.0000   0.2500 Du        
  39109 ****        20.2500   5.0000   0.5000 Du        
  39110 ****        20.2500   5.0000   0.7500 Du        
  39111 ****        20.2500   5.0000   1.0000 Du        
  39112 ****        20.2500   5.0000   1.2500 Du        
  39113 ****        20.2500   5.0000   1.5000 Du        
  39114 ****        20.2500   5.0000   1.7500 Du        
  39115 ****        20.2500   5.0000   2.0000 Du        
  39116 ****        20.2500   5.0000   2.2500 Du        
  39117 ****        20.2500   5.0000   2.5000 Du        
  39118 ****        20.2500   5.0000   2.7500 Du        
  39119 ****        20.2500   5.0000   3.0000 Du        
  39120 ****        20.2500   5.0000   3.2500 Du        
  39121 ****        20.2500   5.0000   3.5000 Du        
  39122 ****        20.2500   5.0000   3.7500 Du        
  39123 ****        20.2500   5.0000   4.0000 Du        
  39124 ****        20.2500   5.2500  -0.2500 Du        
  39125 ****        20.2500   5.2500   0.0000 Du        
  39126 ****        20.2500   5.2500   0.2500 Du        
  39127 ****        20.2500   5.2500   0.5000 Du        
  39128 ****        20.2500   5.2500   0.7500 Du        
  39129 ****        20.2500   5.2500   1.0000 Du        
  39130 ****        20.2500   5.2500   1.2500 Du        
  39131 ****        20.2500   5.2500   1.5000 Du        
  39132 ****        20.2500   5.2500   1.7500 Du        
  39133 ****        20.2500   5.2500   2.0000 Du        
  39134 ****        20.2500   5.2500   2.2500 Du        
  39135 ****        20.2500   5.2500   2.5000 Du        
  39136 ****        20.2500   5.2500   2.7500 Du        
  39137 ****        20.2500   5.2500   3.0000 Du        
  39138 ****        20.2500   5.2500   3.2500 Du        
  39139 ****        20.2500   5.2500   3.5000 Du        
  39140 ****        20.2500   5.2500   3.7500 Du        
  39141 ****        20.2500   5.2500   4.0000 Du        
  39142 ****        20.2500   5.5000   0.2500 Du        
  39143 ****        20.2500   5.5000   0.5000 Du        
  39144 ****        20.2500   5.5000   0.7500 Du        
  39145 ****        20.2500   5.5000   1.0000 Du        
  39146 ****        20.2500   5.5000   1.2500 Du        
  39147 ****        20.2500   5.5000   1.5000 Du        
  39148 ****        20.2500   5.5000   1.7500 Du        
  39149 ****        20.2500   5.5000   2.0000 Du        
  39150 ****        20.2500   5.5000   2.2500 Du        
  39151 ****        20.2500   5.5000   2.5000 Du        
  39152 ****        20.2500   5.5000   2.7500 Du        
  39153 ****        20.2500   5.5000   3.0000 Du        
  39154 ****        20.2500   5.5000   3.2500 Du        
  39155 ****        20.2500   5.5000   3.5000 Du        
  39156 ****        20.2500   5.5000   3.7500 Du        
  39157 ****        20.2500   5.7500   0.7500 Du        
  39158 ****        20.2500   5.7500   1.0000 Du        
  39159 ****        20.2500   5.7500   1.2500 Du        
  39160 ****        20.2500   5.7500   1.5000 Du        
  39161 ****        20.2500   5.7500   1.7500 Du        
  39162 ****        20.2500   5.7500   2.0000 Du        
  39163 ****        20.2500   5.7500   2.2500 Du        
  39164 ****        20.2500   5.7500   2.5000 Du        
  39165 ****        20.2500   5.7500   2.7500 Du        
  39166 ****        20.2500   5.7500   3.0000 Du        
  39167 ****        20.2500   5.7500   3.2500 Du        
  39168 ****        20.2500   5.7500   3.5000 Du        
  39169 ****        20.2500   5.7500   3.7500 Du        
  39170 ****        20.2500   6.0000   1.0000 Du        
  39171 ****        20.2500   6.0000   1.2500 Du        
  39172 ****        20.2500   6.0000   1.5000 Du        
  39173 ****        20.2500   6.0000   1.7500 Du        
  39174 ****        20.2500   6.0000   2.0000 Du        
  39175 ****        20.2500   6.0000   2.2500 Du        
  39176 ****        20.2500   6.0000   2.5000 Du        
  39177 ****        20.2500   6.0000   2.7500 Du        
  39178 ****        20.2500   6.0000   3.0000 Du        
  39179 ****        20.2500   6.0000   3.2500 Du        
  39180 ****        20.2500   6.0000   3.5000 Du        
  39181 ****        20.2500   6.2500   1.2500 Du        
  39182 ****        20.2500   6.2500   1.5000 Du        
  39183 ****        20.2500   6.2500   1.7500 Du        
  39184 ****        20.2500   6.2500   2.0000 Du        
  39185 ****        20.2500   6.2500   2.2500 Du        
  39186 ****        20.2500   6.2500   2.5000 Du        
  39187 ****        20.2500   6.2500   2.7500 Du        
  39188 ****        20.2500   6.2500   3.0000 Du        
  39189 ****        20.2500   6.2500   3.2500 Du        
  39190 ****        20.2500   6.2500   3.5000 Du        
  39191 ****        20.2500   6.5000   1.7500 Du        
  39192 ****        20.2500   7.2500  25.7500 Du        
  39193 ****        20.2500   7.2500  26.0000 Du        
  39194 ****        20.2500   7.5000  25.5000 Du        
  39195 ****        20.2500   7.5000  25.7500 Du        
  39196 ****        20.2500   7.5000  26.0000 Du        
  39197 ****        20.2500   7.5000  26.2500 Du        
  39198 ****        20.2500   7.7500  25.5000 Du        
  39199 ****        20.2500   7.7500  25.7500 Du        
  39200 ****        20.2500   7.7500  26.0000 Du        
  39201 ****        20.2500   7.7500  26.2500 Du        
  39202 ****        20.2500   8.0000  25.2500 Du        
  39203 ****        20.2500   8.0000  25.5000 Du        
  39204 ****        20.2500   8.0000  25.7500 Du        
  39205 ****        20.2500   8.0000  26.0000 Du        
  39206 ****        20.2500   8.0000  26.2500 Du        
  39207 ****        20.2500   8.2500  25.2500 Du        
  39208 ****        20.2500   8.2500  25.5000 Du        
  39209 ****        20.2500   8.2500  25.7500 Du        
  39210 ****        20.2500   8.2500  26.0000 Du        
  39211 ****        20.2500   8.2500  26.2500 Du        
  39212 ****        20.2500   8.5000  25.2500 Du        
  39213 ****        20.2500   8.5000  25.5000 Du        
  39214 ****        20.2500   8.5000  25.7500 Du        
  39215 ****        20.2500   8.5000  26.0000 Du        
  39216 ****        20.2500   8.5000  26.2500 Du        
  39217 ****        20.2500   8.7500  25.2500 Du        
  39218 ****        20.2500   8.7500  25.5000 Du        
  39219 ****        20.2500   8.7500  25.7500 Du        
  39220 ****        20.2500   8.7500  26.0000 Du        
  39221 ****        20.2500   8.7500  26.2500 Du        
  39222 ****        20.2500   9.0000  25.5000 Du        
  39223 ****        20.2500   9.0000  25.7500 Du        
  39224 ****        20.2500   9.0000  26.0000 Du        
  39225 ****        20.2500   9.0000  26.2500 Du        
  39226 ****        20.2500   9.2500  25.7500 Du        
  39227 ****        20.2500   9.2500  26.0000 Du        
  39228 ****        20.2500   9.2500  26.2500 Du        
  39229 ****        20.2500   9.5000  26.0000 Du        
  39230 ****        20.2500   9.5000  26.2500 Du        
  39231 ****        20.2500  10.0000  37.7500 Du        
  39232 ****        20.2500  10.0000  38.0000 Du        
  39233 ****        20.2500  10.0000  38.5000 Du        
  39234 ****        20.2500  10.2500  38.0000 Du        
  39235 ****        20.2500  10.2500  38.2500 Du        
  39236 ****        20.2500  10.2500  38.5000 Du        
  39237 ****        20.2500  14.0000  31.2500 Du        
  39238 ****        20.2500  14.0000  31.5000 Du        
  39239 ****        20.2500  14.0000  31.7500 Du        
  39240 ****        20.2500  14.2500  31.2500 Du        
  39241 ****        20.2500  14.2500  31.5000 Du        
  39242 ****        20.2500  14.2500  31.7500 Du        
  39243 ****        20.2500  14.2500  32.0000 Du        
  39244 ****        20.2500  14.5000  31.2500 Du        
  39245 ****        20.2500  14.5000  31.5000 Du        
  39246 ****        20.2500  14.5000  31.7500 Du        
  39247 ****        20.2500  14.5000  32.0000 Du        
  39248 ****        20.2500  14.7500  15.5000 Du        
  39249 ****        20.2500  14.7500  15.7500 Du        
  39250 ****        20.2500  14.7500  31.2500 Du        
  39251 ****        20.2500  14.7500  31.5000 Du        
  39252 ****        20.2500  14.7500  31.7500 Du        
  39253 ****        20.2500  14.7500  32.0000 Du        
  39254 ****        20.2500  15.0000  15.0000 Du        
  39255 ****        20.2500  15.0000  15.2500 Du        
  39256 ****        20.2500  15.0000  15.5000 Du        
  39257 ****        20.2500  15.0000  15.7500 Du        
  39258 ****        20.2500  15.0000  16.0000 Du        
  39259 ****        20.2500  15.0000  31.5000 Du        
  39260 ****        20.2500  15.0000  31.7500 Du        
  39261 ****        20.2500  15.0000  32.0000 Du        
  39262 ****        20.2500  15.2500  15.0000 Du        
  39263 ****        20.2500  15.2500  15.2500 Du        
  39264 ****        20.2500  15.2500  15.5000 Du        
  39265 ****        20.2500  15.2500  15.7500 Du        
  39266 ****        20.2500  15.2500  16.0000 Du        
  39267 ****        20.2500  15.2500  31.5000 Du        
  39268 ****        20.2500  15.2500  31.7500 Du        
  39269 ****        20.2500  15.2500  32.0000 Du        
  39270 ****        20.2500  15.2500  32.2500 Du        
  39271 ****        20.2500  15.5000  15.0000 Du        
  39272 ****        20.2500  15.5000  15.2500 Du        
  39273 ****        20.2500  15.5000  15.5000 Du        
  39274 ****        20.2500  15.5000  15.7500 Du        
  39275 ****        20.2500  15.5000  31.7500 Du        
  39276 ****        20.2500  15.5000  32.0000 Du        
  39277 ****        20.2500  15.5000  32.2500 Du        
  39278 ****        20.2500  15.7500  14.7500 Du        
  39279 ****        20.2500  15.7500  15.0000 Du        
  39280 ****        20.2500  15.7500  15.2500 Du        
  39281 ****        20.2500  15.7500  15.5000 Du        
  39282 ****        20.2500  16.0000  14.7500 Du        
  39283 ****        20.2500  16.0000  15.0000 Du        
  39284 ****        20.2500  16.0000  15.2500 Du        
  39285 ****        20.2500  16.2500  14.7500 Du        
  39286 ****        20.2500  17.0000  14.2500 Du        
  39287 ****        20.2500  17.2500  14.2500 Du        
  39288 ****        20.2500  17.5000  14.0000 Du        
  39289 ****        20.2500  17.5000  14.2500 Du        
  39290 ****        20.2500  17.7500  13.7500 Du        
  39291 ****        20.2500  17.7500  14.0000 Du        
  39292 ****        20.2500  17.7500  14.2500 Du        
  39293 ****        20.2500  18.0000  13.7500 Du        
  39294 ****        20.2500  18.0000  14.0000 Du        
  39295 ****        20.2500  18.0000  14.2500 Du        
  39296 ****        20.2500  18.2500  13.5000 Du        
  39297 ****        20.2500  18.2500  13.7500 Du        
  39298 ****        20.2500  18.2500  14.0000 Du        
  39299 ****        20.2500  18.2500  14.2500 Du        
  39300 ****        20.2500  18.5000  13.2500 Du        
  39301 ****        20.2500  18.5000  13.5000 Du        
  39302 ****        20.2500  18.5000  13.7500 Du        
  39303 ****        20.2500  18.5000  14.0000 Du        
  39304 ****        20.2500  18.5000  14.2500 Du        
  39305 ****        20.2500  18.7500  13.0000 Du        
  39306 ****        20.2500  18.7500  13.2500 Du        
  39307 ****        20.2500  18.7500  13.5000 Du        
  39308 ****        20.2500  18.7500  13.7500 Du        
  39309 ****        20.2500  18.7500  14.0000 Du        
  39310 ****        20.2500  18.7500  14.2500 Du        
  39311 ****        20.2500  19.0000  12.7500 Du        
  39312 ****        20.2500  19.0000  13.0000 Du        
  39313 ****        20.2500  19.0000  13.2500 Du        
  39314 ****        20.2500  19.0000  13.5000 Du        
  39315 ****        20.2500  19.0000  13.7500 Du        
  39316 ****        20.2500  19.0000  14.0000 Du        
  39317 ****        20.2500  19.0000  14.2500 Du        
  39318 ****        20.2500  19.2500  12.7500 Du        
  39319 ****        20.2500  19.2500  13.0000 Du        
  39320 ****        20.2500  19.2500  13.2500 Du        
  39321 ****        20.2500  19.2500  13.5000 Du        
  39322 ****        20.2500  19.2500  13.7500 Du        
  39323 ****        20.2500  19.2500  14.0000 Du        
  39324 ****        20.2500  19.2500  14.2500 Du        
  39325 ****        20.2500  19.2500  36.0000 Du        
  39326 ****        20.2500  19.5000  12.7500 Du        
  39327 ****        20.2500  19.5000  13.0000 Du        
  39328 ****        20.2500  19.5000  13.2500 Du        
  39329 ****        20.2500  19.5000  13.7500 Du        
  39330 ****        20.2500  19.5000  35.7500 Du        
  39331 ****        20.2500  19.5000  36.0000 Du        
  39332 ****        20.2500  19.5000  36.2500 Du        
  39333 ****        20.2500  19.7500  35.7500 Du        
  39334 ****        20.2500  19.7500  36.0000 Du        
  39335 ****        20.2500  19.7500  36.2500 Du        
  39336 ****        20.2500  20.0000  36.0000 Du        
  39337 ****        20.5000  -1.2500  36.2500 Du        
  39338 ****        20.5000  -1.2500  36.5000 Du        
  39339 ****        20.5000  -1.0000  35.7500 Du        
  39340 ****        20.5000  -1.0000  36.0000 Du        
  39341 ****        20.5000  -1.0000  36.2500 Du        
  39342 ****        20.5000  -1.0000  36.5000 Du        
  39343 ****        20.5000  -1.0000  36.7500 Du        
  39344 ****        20.5000  -0.7500  35.5000 Du        
  39345 ****        20.5000  -0.7500  35.7500 Du        
  39346 ****        20.5000  -0.7500  36.0000 Du        
  39347 ****        20.5000  -0.7500  36.2500 Du        
  39348 ****        20.5000  -0.7500  36.5000 Du        
  39349 ****        20.5000  -0.7500  36.7500 Du        
  39350 ****        20.5000  -0.5000  35.7500 Du        
  39351 ****        20.5000  -0.5000  36.0000 Du        
  39352 ****        20.5000  -0.5000  36.2500 Du        
  39353 ****        20.5000  -0.5000  36.5000 Du        
  39354 ****        20.5000  -0.5000  36.7500 Du        
  39355 ****        20.5000  -0.2500  35.7500 Du        
  39356 ****        20.5000  -0.2500  36.0000 Du        
  39357 ****        20.5000  -0.2500  36.2500 Du        
  39358 ****        20.5000  -0.2500  36.5000 Du        
  39359 ****        20.5000  -0.2500  36.7500 Du        
  39360 ****        20.5000   0.0000  36.0000 Du        
  39361 ****        20.5000   0.0000  36.2500 Du        
  39362 ****        20.5000   0.0000  36.5000 Du        
  39363 ****        20.5000   0.0000  36.7500 Du        
  39364 ****        20.5000   0.2500  36.2500 Du        
  39365 ****        20.5000   0.2500  36.5000 Du        
  39366 ****        20.5000   0.2500  36.7500 Du        
  39367 ****        20.5000   0.5000  36.5000 Du        
  39368 ****        20.5000   0.5000  36.7500 Du        
  39369 ****        20.5000   0.7500  36.5000 Du        
  39370 ****        20.5000   0.7500  36.7500 Du        
  39371 ****        20.5000   3.7500   3.5000 Du        
  39372 ****        20.5000   3.7500   3.7500 Du        
  39373 ****        20.5000   3.7500   4.0000 Du        
  39374 ****        20.5000   4.0000   3.0000 Du        
  39375 ****        20.5000   4.0000   3.2500 Du        
  39376 ****        20.5000   4.0000   3.5000 Du        
  39377 ****        20.5000   4.0000   3.7500 Du        
  39378 ****        20.5000   4.0000   4.0000 Du        
  39379 ****        20.5000   4.0000   4.2500 Du        
  39380 ****        20.5000   4.0000   4.5000 Du        
  39381 ****        20.5000   4.2500   3.0000 Du        
  39382 ****        20.5000   4.2500   3.2500 Du        
  39383 ****        20.5000   4.2500   3.5000 Du        
  39384 ****        20.5000   4.2500   3.7500 Du        
  39385 ****        20.5000   4.2500   4.0000 Du        
  39386 ****        20.5000   4.2500   4.2500 Du        
  39387 ****        20.5000   4.2500   4.5000 Du        
  39388 ****        20.5000   4.5000   3.0000 Du        
  39389 ****        20.5000   4.5000   3.2500 Du        
  39390 ****        20.5000   4.5000   3.5000 Du        
  39391 ****        20.5000   4.5000   3.7500 Du        
  39392 ****        20.5000   4.5000   4.0000 Du        
  39393 ****        20.5000   4.5000   4.2500 Du        
  39394 ****        20.5000   4.5000   4.5000 Du        
  39395 ****        20.5000   4.7500   3.0000 Du        
  39396 ****        20.5000   4.7500   3.2500 Du        
  39397 ****        20.5000   4.7500   3.5000 Du        
  39398 ****        20.5000   4.7500   3.7500 Du        
  39399 ****        20.5000   4.7500   4.0000 Du        
  39400 ****        20.5000   4.7500   4.2500 Du        
  39401 ****        20.5000   4.7500   4.5000 Du        
  39402 ****        20.5000   5.0000   0.0000 Du        
  39403 ****        20.5000   5.0000   0.2500 Du        
  39404 ****        20.5000   5.0000   0.5000 Du        
  39405 ****        20.5000   5.0000   0.7500 Du        
  39406 ****        20.5000   5.0000   2.7500 Du        
  39407 ****        20.5000   5.0000   3.0000 Du        
  39408 ****        20.5000   5.0000   3.2500 Du        
  39409 ****        20.5000   5.0000   3.5000 Du        
  39410 ****        20.5000   5.0000   3.7500 Du        
  39411 ****        20.5000   5.0000   4.0000 Du        
  39412 ****        20.5000   5.0000   4.2500 Du        
  39413 ****        20.5000   5.2500   0.5000 Du        
  39414 ****        20.5000   5.2500   0.7500 Du        
  39415 ****        20.5000   5.2500   1.0000 Du        
  39416 ****        20.5000   5.2500   2.7500 Du        
  39417 ****        20.5000   5.2500   3.0000 Du        
  39418 ****        20.5000   5.2500   3.2500 Du        
  39419 ****        20.5000   5.2500   3.5000 Du        
  39420 ****        20.5000   5.2500   3.7500 Du        
  39421 ****        20.5000   5.2500   4.0000 Du        
  39422 ****        20.5000   5.5000   0.7500 Du        
  39423 ****        20.5000   5.5000   1.0000 Du        
  39424 ****        20.5000   5.5000   1.2500 Du        
  39425 ****        20.5000   5.5000   2.5000 Du        
  39426 ****        20.5000   5.5000   2.7500 Du        
  39427 ****        20.5000   5.5000   3.0000 Du        
  39428 ****        20.5000   5.5000   3.2500 Du        
  39429 ****        20.5000   5.5000   3.5000 Du        
  39430 ****        20.5000   5.5000   3.7500 Du        
  39431 ****        20.5000   5.5000   4.0000 Du        
  39432 ****        20.5000   5.7500   1.2500 Du        
  39433 ****        20.5000   5.7500   1.7500 Du        
  39434 ****        20.5000   5.7500   2.0000 Du        
  39435 ****        20.5000   5.7500   2.2500 Du        
  39436 ****        20.5000   5.7500   2.5000 Du        
  39437 ****        20.5000   5.7500   2.7500 Du        
  39438 ****        20.5000   5.7500   3.0000 Du        
  39439 ****        20.5000   5.7500   3.2500 Du        
  39440 ****        20.5000   5.7500   3.5000 Du        
  39441 ****        20.5000   5.7500   3.7500 Du        
  39442 ****        20.5000   6.0000   2.0000 Du        
  39443 ****        20.5000   6.0000   2.2500 Du        
  39444 ****        20.5000   6.0000   2.5000 Du        
  39445 ****        20.5000   6.0000   2.7500 Du        
  39446 ****        20.5000   6.0000   3.0000 Du        
  39447 ****        20.5000   6.0000   3.2500 Du        
  39448 ****        20.5000   6.0000   3.5000 Du        
  39449 ****        20.5000   6.0000   3.7500 Du        
  39450 ****        20.5000   7.2500  25.5000 Du        
  39451 ****        20.5000   7.2500  25.7500 Du        
  39452 ****        20.5000   7.5000  25.2500 Du        
  39453 ****        20.5000   7.5000  25.7500 Du        
  39454 ****        20.5000   7.7500  25.2500 Du        
  39455 ****        20.5000   7.7500  25.5000 Du        
  39456 ****        20.5000   7.7500  25.7500 Du        
  39457 ****        20.5000   7.7500  26.0000 Du        
  39458 ****        20.5000   7.7500  26.2500 Du        
  39459 ****        20.5000   8.0000  25.5000 Du        
  39460 ****        20.5000   8.0000  25.7500 Du        
  39461 ****        20.5000   8.0000  26.0000 Du        
  39462 ****        20.5000   8.0000  26.2500 Du        
  39463 ****        20.5000   8.2500  25.5000 Du        
  39464 ****        20.5000   8.2500  25.7500 Du        
  39465 ****        20.5000   8.2500  26.0000 Du        
  39466 ****        20.5000   8.5000  25.7500 Du        
  39467 ****        20.5000   8.5000  26.0000 Du        
  39468 ****        20.5000   8.5000  26.2500 Du        
  39469 ****        20.5000   8.7500  26.0000 Du        
  39470 ****        20.5000   8.7500  26.2500 Du        
  39471 ****        20.5000   9.5000  37.7500 Du        
  39472 ****        20.5000   9.5000  38.0000 Du        
  39473 ****        20.5000   9.7500  37.5000 Du        
  39474 ****        20.5000   9.7500  37.7500 Du        
  39475 ****        20.5000   9.7500  38.0000 Du        
  39476 ****        20.5000   9.7500  38.2500 Du        
  39477 ****        20.5000   9.7500  38.5000 Du        
  39478 ****        20.5000   9.7500  38.7500 Du        
  39479 ****        20.5000  10.0000  37.7500 Du        
  39480 ****        20.5000  10.0000  38.0000 Du        
  39481 ****        20.5000  10.0000  38.2500 Du        
  39482 ****        20.5000  10.0000  38.5000 Du        
  39483 ****        20.5000  10.0000  38.7500 Du        
  39484 ****        20.5000  10.2500  38.2500 Du        
  39485 ****        20.5000  10.2500  38.5000 Du        
  39486 ****        20.5000  10.2500  38.7500 Du        
  39487 ****        20.5000  13.7500  31.0000 Du        
  39488 ****        20.5000  13.7500  31.2500 Du        
  39489 ****        20.5000  14.0000  31.0000 Du        
  39490 ****        20.5000  14.0000  31.2500 Du        
  39491 ****        20.5000  14.2500  31.0000 Du        
  39492 ****        20.5000  14.2500  31.2500 Du        
  39493 ****        20.5000  14.5000  31.0000 Du        
  39494 ****        20.5000  14.5000  31.2500 Du        
  39495 ****        20.5000  14.5000  31.5000 Du        
  39496 ****        20.5000  14.5000  31.7500 Du        
  39497 ****        20.5000  14.7500  31.0000 Du        
  39498 ****        20.5000  14.7500  31.2500 Du        
  39499 ****        20.5000  14.7500  31.5000 Du        
  39500 ****        20.5000  14.7500  31.7500 Du        
  39501 ****        20.5000  14.7500  32.0000 Du        
  39502 ****        20.5000  15.0000  31.0000 Du        
  39503 ****        20.5000  15.0000  31.2500 Du        
  39504 ****        20.5000  15.0000  31.5000 Du        
  39505 ****        20.5000  15.0000  31.7500 Du        
  39506 ****        20.5000  15.0000  32.0000 Du        
  39507 ****        20.5000  15.2500  15.0000 Du        
  39508 ****        20.5000  15.2500  15.2500 Du        
  39509 ****        20.5000  15.2500  15.5000 Du        
  39510 ****        20.5000  15.2500  15.7500 Du        
  39511 ****        20.5000  15.2500  31.2500 Du        
  39512 ****        20.5000  15.2500  31.5000 Du        
  39513 ****        20.5000  15.2500  31.7500 Du        
  39514 ****        20.5000  15.2500  32.0000 Du        
  39515 ****        20.5000  15.5000  15.0000 Du        
  39516 ****        20.5000  15.5000  15.2500 Du        
  39517 ****        20.5000  15.5000  15.5000 Du        
  39518 ****        20.5000  15.5000  15.7500 Du        
  39519 ****        20.5000  15.5000  16.0000 Du        
  39520 ****        20.5000  15.5000  31.7500 Du        
  39521 ****        20.5000  15.5000  32.0000 Du        
  39522 ****        20.5000  15.7500  14.7500 Du        
  39523 ****        20.5000  15.7500  15.0000 Du        
  39524 ****        20.5000  15.7500  15.2500 Du        
  39525 ****        20.5000  15.7500  15.5000 Du        
  39526 ****        20.5000  15.7500  15.7500 Du        
  39527 ****        20.5000  16.0000  14.7500 Du        
  39528 ****        20.5000  16.0000  15.0000 Du        
  39529 ****        20.5000  16.0000  15.2500 Du        
  39530 ****        20.5000  16.0000  15.5000 Du        
  39531 ****        20.5000  16.2500  14.7500 Du        
  39532 ****        20.5000  16.2500  15.0000 Du        
  39533 ****        20.5000  16.2500  15.2500 Du        
  39534 ****        20.5000  16.5000  14.7500 Du        
  39535 ****        20.5000  16.5000  15.0000 Du        
  39536 ****        20.5000  16.7500  14.7500 Du        
  39537 ****        20.5000  17.0000  14.5000 Du        
  39538 ****        20.5000  17.0000  14.7500 Du        
  39539 ****        20.5000  17.2500  14.5000 Du        
  39540 ****        20.5000  17.7500  14.2500 Du        
  39541 ****        20.5000  17.7500  14.5000 Du        
  39542 ****        20.5000  18.0000  14.0000 Du        
  39543 ****        20.5000  18.0000  14.2500 Du        
  39544 ****        20.5000  18.0000  14.5000 Du        
  39545 ****        20.5000  18.2500  13.7500 Du        
  39546 ****        20.5000  18.2500  14.0000 Du        
  39547 ****        20.5000  18.2500  14.2500 Du        
  39548 ****        20.5000  18.2500  14.5000 Du        
  39549 ****        20.5000  18.5000  13.7500 Du        
  39550 ****        20.5000  18.5000  14.0000 Du        
  39551 ****        20.5000  18.5000  14.2500 Du        
  39552 ****        20.5000  18.5000  14.5000 Du        
  39553 ****        20.5000  18.7500  13.5000 Du        
  39554 ****        20.5000  18.7500  13.7500 Du        
  39555 ****        20.5000  18.7500  14.0000 Du        
  39556 ****        20.5000  18.7500  14.2500 Du        
  39557 ****        20.5000  18.7500  14.5000 Du        
  39558 ****        20.5000  18.7500  35.7500 Du        
  39559 ****        20.5000  19.0000  13.2500 Du        
  39560 ****        20.5000  19.0000  13.5000 Du        
  39561 ****        20.5000  19.0000  13.7500 Du        
  39562 ****        20.5000  19.0000  14.0000 Du        
  39563 ****        20.5000  19.0000  14.2500 Du        
  39564 ****        20.5000  19.0000  14.5000 Du        
  39565 ****        20.5000  19.0000  35.2500 Du        
  39566 ****        20.5000  19.0000  35.5000 Du        
  39567 ****        20.5000  19.0000  35.7500 Du        
  39568 ****        20.5000  19.0000  36.0000 Du        
  39569 ****        20.5000  19.2500  13.0000 Du        
  39570 ****        20.5000  19.2500  13.2500 Du        
  39571 ****        20.5000  19.2500  13.5000 Du        
  39572 ****        20.5000  19.2500  13.7500 Du        
  39573 ****        20.5000  19.2500  14.0000 Du        
  39574 ****        20.5000  19.2500  14.2500 Du        
  39575 ****        20.5000  19.2500  35.5000 Du        
  39576 ****        20.5000  19.2500  35.7500 Du        
  39577 ****        20.5000  19.2500  36.0000 Du        
  39578 ****        20.5000  19.2500  36.2500 Du        
  39579 ****        20.5000  19.2500  36.5000 Du        
  39580 ****        20.5000  19.5000  13.0000 Du        
  39581 ****        20.5000  19.5000  13.2500 Du        
  39582 ****        20.5000  19.5000  13.5000 Du        
  39583 ****        20.5000  19.5000  13.7500 Du        
  39584 ****        20.5000  19.5000  14.0000 Du        
  39585 ****        20.5000  19.5000  35.5000 Du        
  39586 ****        20.5000  19.5000  35.7500 Du        
  39587 ****        20.5000  19.5000  36.0000 Du        
  39588 ****        20.5000  19.5000  36.2500 Du        
  39589 ****        20.5000  19.7500  35.7500 Du        
  39590 ****        20.5000  19.7500  36.0000 Du        
  39591 ****        20.5000  19.7500  36.2500 Du        
  39592 ****        20.5000  20.0000  35.7500 Du        
  39593 ****        20.5000  20.0000  36.0000 Du        
  39594 ****        20.7500  -4.0000  32.2500 Du        
  39595 ****        20.7500  -4.0000  32.5000 Du        
  39596 ****        20.7500  -3.7500  32.2500 Du        
  39597 ****        20.7500  -3.7500  32.5000 Du        
  39598 ****        20.7500  -3.5000  32.5000 Du        
  39599 ****        20.7500  -3.2500  32.5000 Du        
  39600 ****        20.7500  -3.2500  32.7500 Du        
  39601 ****        20.7500  -3.0000  32.5000 Du        
  39602 ****        20.7500  -3.0000  32.7500 Du        
  39603 ****        20.7500  -2.7500  32.7500 Du        
  39604 ****        20.7500  -2.7500  33.0000 Du        
  39605 ****        20.7500  -1.2500  35.2500 Du        
  39606 ****        20.7500  -1.2500  35.5000 Du        
  39607 ****        20.7500  -1.2500  35.7500 Du        
  39608 ****        20.7500  -1.2500  36.0000 Du        
  39609 ****        20.7500  -1.2500  36.2500 Du        
  39610 ****        20.7500  -1.2500  36.5000 Du        
  39611 ****        20.7500  -1.2500  36.7500 Du        
  39612 ****        20.7500  -1.0000  35.0000 Du        
  39613 ****        20.7500  -1.0000  35.2500 Du        
  39614 ****        20.7500  -1.0000  35.5000 Du        
  39615 ****        20.7500  -1.0000  35.7500 Du        
  39616 ****        20.7500  -1.0000  36.0000 Du        
  39617 ****        20.7500  -1.0000  36.2500 Du        
  39618 ****        20.7500  -1.0000  36.5000 Du        
  39619 ****        20.7500  -1.0000  36.7500 Du        
  39620 ****        20.7500  -0.7500  35.0000 Du        
  39621 ****        20.7500  -0.7500  35.2500 Du        
  39622 ****        20.7500  -0.7500  35.5000 Du        
  39623 ****        20.7500  -0.7500  35.7500 Du        
  39624 ****        20.7500  -0.7500  36.0000 Du        
  39625 ****        20.7500  -0.7500  36.2500 Du        
  39626 ****        20.7500  -0.7500  36.5000 Du        
  39627 ****        20.7500  -0.7500  36.7500 Du        
  39628 ****        20.7500  -0.5000  35.2500 Du        
  39629 ****        20.7500  -0.5000  35.5000 Du        
  39630 ****        20.7500  -0.5000  35.7500 Du        
  39631 ****        20.7500  -0.5000  36.0000 Du        
  39632 ****        20.7500  -0.5000  36.2500 Du        
  39633 ****        20.7500  -0.5000  36.5000 Du        
  39634 ****        20.7500  -0.5000  36.7500 Du        
  39635 ****        20.7500  -0.2500  35.5000 Du        
  39636 ****        20.7500  -0.2500  35.7500 Du        
  39637 ****        20.7500  -0.2500  36.0000 Du        
  39638 ****        20.7500  -0.2500  36.2500 Du        
  39639 ****        20.7500  -0.2500  36.5000 Du        
  39640 ****        20.7500  -0.2500  36.7500 Du        
  39641 ****        20.7500  -0.2500  37.0000 Du        
  39642 ****        20.7500   0.0000  35.5000 Du        
  39643 ****        20.7500   0.0000  35.7500 Du        
  39644 ****        20.7500   0.0000  36.0000 Du        
  39645 ****        20.7500   0.0000  36.2500 Du        
  39646 ****        20.7500   0.0000  36.5000 Du        
  39647 ****        20.7500   0.0000  36.7500 Du        
  39648 ****        20.7500   0.0000  37.0000 Du        
  39649 ****        20.7500   0.2500  35.7500 Du        
  39650 ****        20.7500   0.2500  36.0000 Du        
  39651 ****        20.7500   0.2500  36.2500 Du        
  39652 ****        20.7500   0.2500  36.5000 Du        
  39653 ****        20.7500   0.2500  36.7500 Du        
  39654 ****        20.7500   0.2500  37.0000 Du        
  39655 ****        20.7500   0.5000  35.7500 Du        
  39656 ****        20.7500   0.5000  36.0000 Du        
  39657 ****        20.7500   0.5000  36.2500 Du        
  39658 ****        20.7500   0.5000  36.5000 Du        
  39659 ****        20.7500   0.5000  36.7500 Du        
  39660 ****        20.7500   0.5000  37.0000 Du        
  39661 ****        20.7500   0.7500  36.0000 Du        
  39662 ****        20.7500   0.7500  36.2500 Du        
  39663 ****        20.7500   0.7500  36.5000 Du        
  39664 ****        20.7500   0.7500  36.7500 Du        
  39665 ****        20.7500   0.7500  37.0000 Du        
  39666 ****        20.7500   1.0000  36.2500 Du        
  39667 ****        20.7500   1.0000  36.5000 Du        
  39668 ****        20.7500   4.0000   3.7500 Du        
  39669 ****        20.7500   4.0000   4.0000 Du        
  39670 ****        20.7500   4.0000   4.2500 Du        
  39671 ****        20.7500   4.2500   3.7500 Du        
  39672 ****        20.7500   4.2500   4.0000 Du        
  39673 ****        20.7500   4.2500   4.2500 Du        
  39674 ****        20.7500   4.2500   4.5000 Du        
  39675 ****        20.7500   4.5000   3.5000 Du        
  39676 ****        20.7500   4.5000   3.7500 Du        
  39677 ****        20.7500   4.5000   4.0000 Du        
  39678 ****        20.7500   4.5000   4.2500 Du        
  39679 ****        20.7500   4.5000   4.5000 Du        
  39680 ****        20.7500   4.5000   4.7500 Du        
  39681 ****        20.7500   4.7500   3.5000 Du        
  39682 ****        20.7500   4.7500   3.7500 Du        
  39683 ****        20.7500   4.7500   4.0000 Du        
  39684 ****        20.7500   4.7500   4.2500 Du        
  39685 ****        20.7500   4.7500   4.5000 Du        
  39686 ****        20.7500   4.7500   4.7500 Du        
  39687 ****        20.7500   5.0000   3.5000 Du        
  39688 ****        20.7500   5.0000   3.7500 Du        
  39689 ****        20.7500   5.0000   4.0000 Du        
  39690 ****        20.7500   5.0000   4.2500 Du        
  39691 ****        20.7500   5.0000   4.5000 Du        
  39692 ****        20.7500   5.2500   3.2500 Du        
  39693 ****        20.7500   5.2500   3.5000 Du        
  39694 ****        20.7500   5.2500   3.7500 Du        
  39695 ****        20.7500   5.2500   4.0000 Du        
  39696 ****        20.7500   5.2500   4.2500 Du        
  39697 ****        20.7500   5.5000   3.5000 Du        
  39698 ****        20.7500   5.5000   3.7500 Du        
  39699 ****        20.7500   5.5000   4.0000 Du        
  39700 ****        20.7500   5.5000   4.2500 Du        
  39701 ****        20.7500   5.7500   3.5000 Du        
  39702 ****        20.7500   5.7500   3.7500 Du        
  39703 ****        20.7500   5.7500   4.0000 Du        
  39704 ****        20.7500   6.0000   3.7500 Du        
  39705 ****        20.7500   6.0000   4.0000 Du        
  39706 ****        20.7500   7.0000  25.5000 Du        
  39707 ****        20.7500   7.0000  25.7500 Du        
  39708 ****        20.7500   7.2500  25.2500 Du        
  39709 ****        20.7500   7.2500  25.5000 Du        
  39710 ****        20.7500   7.2500  25.7500 Du        
  39711 ****        20.7500   7.5000  25.2500 Du        
  39712 ****        20.7500   7.5000  25.5000 Du        
  39713 ****        20.7500   7.5000  25.7500 Du        
  39714 ****        20.7500   7.5000  26.0000 Du        
  39715 ****        20.7500   7.7500  25.2500 Du        
  39716 ****        20.7500   7.7500  25.7500 Du        
  39717 ****        20.7500   7.7500  26.0000 Du        
  39718 ****        20.7500   9.0000  37.2500 Du        
  39719 ****        20.7500   9.0000  37.5000 Du        
  39720 ****        20.7500   9.0000  37.7500 Du        
  39721 ****        20.7500   9.0000  38.0000 Du        
  39722 ****        20.7500   9.2500  37.2500 Du        
  39723 ****        20.7500   9.2500  37.5000 Du        
  39724 ****        20.7500   9.2500  37.7500 Du        
  39725 ****        20.7500   9.2500  38.0000 Du        
  39726 ****        20.7500   9.2500  38.2500 Du        
  39727 ****        20.7500   9.2500  38.5000 Du        
  39728 ****        20.7500   9.2500  38.7500 Du        
  39729 ****        20.7500   9.5000  37.7500 Du        
  39730 ****        20.7500   9.5000  38.0000 Du        
  39731 ****        20.7500   9.5000  38.2500 Du        
  39732 ****        20.7500   9.5000  38.5000 Du        
  39733 ****        20.7500   9.5000  38.7500 Du        
  39734 ****        20.7500   9.5000  39.0000 Du        
  39735 ****        20.7500   9.7500  37.7500 Du        
  39736 ****        20.7500   9.7500  38.0000 Du        
  39737 ****        20.7500   9.7500  38.2500 Du        
  39738 ****        20.7500   9.7500  38.5000 Du        
  39739 ****        20.7500   9.7500  38.7500 Du        
  39740 ****        20.7500   9.7500  39.0000 Du        
  39741 ****        20.7500  10.0000  37.7500 Du        
  39742 ****        20.7500  10.0000  38.0000 Du        
  39743 ****        20.7500  10.0000  38.2500 Du        
  39744 ****        20.7500  10.0000  38.5000 Du        
  39745 ****        20.7500  10.0000  38.7500 Du        
  39746 ****        20.7500  10.2500  38.2500 Du        
  39747 ****        20.7500  10.2500  38.5000 Du        
  39748 ****        20.7500  10.2500  38.7500 Du        
  39749 ****        20.7500  13.5000  30.7500 Du        
  39750 ****        20.7500  13.5000  31.0000 Du        
  39751 ****        20.7500  13.5000  31.2500 Du        
  39752 ****        20.7500  13.7500  30.5000 Du        
  39753 ****        20.7500  13.7500  30.7500 Du        
  39754 ****        20.7500  13.7500  31.0000 Du        
  39755 ****        20.7500  13.7500  31.2500 Du        
  39756 ****        20.7500  14.0000  30.5000 Du        
  39757 ****        20.7500  14.0000  30.7500 Du        
  39758 ****        20.7500  14.0000  31.0000 Du        
  39759 ****        20.7500  14.0000  31.2500 Du        
  39760 ****        20.7500  14.0000  31.5000 Du        
  39761 ****        20.7500  14.2500  30.7500 Du        
  39762 ****        20.7500  14.2500  31.0000 Du        
  39763 ****        20.7500  14.2500  31.2500 Du        
  39764 ****        20.7500  14.2500  31.5000 Du        
  39765 ****        20.7500  14.5000  30.7500 Du        
  39766 ****        20.7500  14.5000  31.0000 Du        
  39767 ****        20.7500  14.5000  31.2500 Du        
  39768 ****        20.7500  14.5000  31.5000 Du        
  39769 ****        20.7500  14.5000  31.7500 Du        
  39770 ****        20.7500  14.7500  30.7500 Du        
  39771 ****        20.7500  14.7500  31.0000 Du        
  39772 ****        20.7500  14.7500  31.2500 Du        
  39773 ****        20.7500  14.7500  31.5000 Du        
  39774 ****        20.7500  14.7500  31.7500 Du        
  39775 ****        20.7500  14.7500  32.0000 Du        
  39776 ****        20.7500  15.0000  30.7500 Du        
  39777 ****        20.7500  15.0000  31.0000 Du        
  39778 ****        20.7500  15.0000  31.2500 Du        
  39779 ****        20.7500  15.0000  31.5000 Du        
  39780 ****        20.7500  15.0000  31.7500 Du        
  39781 ****        20.7500  15.0000  32.0000 Du        
  39782 ****        20.7500  15.2500  31.0000 Du        
  39783 ****        20.7500  15.2500  31.2500 Du        
  39784 ****        20.7500  15.2500  31.5000 Du        
  39785 ****        20.7500  15.2500  31.7500 Du        
  39786 ****        20.7500  15.2500  32.0000 Du        
  39787 ****        20.7500  15.5000  15.0000 Du        
  39788 ****        20.7500  15.5000  15.2500 Du        
  39789 ****        20.7500  15.5000  15.5000 Du        
  39790 ****        20.7500  15.5000  15.7500 Du        
  39791 ****        20.7500  15.5000  16.0000 Du        
  39792 ****        20.7500  15.5000  31.2500 Du        
  39793 ****        20.7500  15.5000  31.5000 Du        
  39794 ****        20.7500  15.5000  31.7500 Du        
  39795 ****        20.7500  15.5000  32.0000 Du        
  39796 ****        20.7500  15.5000  32.2500 Du        
  39797 ****        20.7500  15.7500  15.0000 Du        
  39798 ****        20.7500  15.7500  15.2500 Du        
  39799 ****        20.7500  15.7500  15.5000 Du        
  39800 ****        20.7500  15.7500  15.7500 Du        
  39801 ****        20.7500  15.7500  16.0000 Du        
  39802 ****        20.7500  15.7500  31.7500 Du        
  39803 ****        20.7500  15.7500  32.0000 Du        
  39804 ****        20.7500  15.7500  32.2500 Du        
  39805 ****        20.7500  16.0000  14.7500 Du        
  39806 ****        20.7500  16.0000  15.0000 Du        
  39807 ****        20.7500  16.0000  15.2500 Du        
  39808 ****        20.7500  16.0000  15.5000 Du        
  39809 ****        20.7500  16.0000  15.7500 Du        
  39810 ****        20.7500  16.2500  14.7500 Du        
  39811 ****        20.7500  16.2500  15.0000 Du        
  39812 ****        20.7500  16.2500  15.2500 Du        
  39813 ****        20.7500  16.2500  15.5000 Du        
  39814 ****        20.7500  16.2500  15.7500 Du        
  39815 ****        20.7500  16.5000  14.7500 Du        
  39816 ****        20.7500  16.5000  15.0000 Du        
  39817 ****        20.7500  16.5000  15.2500 Du        
  39818 ****        20.7500  16.7500  14.7500 Du        
  39819 ****        20.7500  16.7500  15.0000 Du        
  39820 ****        20.7500  16.7500  15.2500 Du        
  39821 ****        20.7500  17.0000  14.7500 Du        
  39822 ****        20.7500  17.0000  15.0000 Du        
  39823 ****        20.7500  17.2500  14.7500 Du        
  39824 ****        20.7500  17.7500  14.5000 Du        
  39825 ****        20.7500  18.0000  14.2500 Du        
  39826 ****        20.7500  18.0000  14.5000 Du        
  39827 ****        20.7500  18.2500  14.2500 Du        
  39828 ****        20.7500  18.2500  14.5000 Du        
  39829 ****        20.7500  18.5000  14.0000 Du        
  39830 ****        20.7500  18.5000  14.2500 Du        
  39831 ****        20.7500  18.5000  14.5000 Du        
  39832 ****        20.7500  18.5000  35.2500 Du        
  39833 ****        20.7500  18.7500  13.7500 Du        
  39834 ****        20.7500  18.7500  14.0000 Du        
  39835 ****        20.7500  18.7500  14.2500 Du        
  39836 ****        20.7500  18.7500  14.5000 Du        
  39837 ****        20.7500  18.7500  35.0000 Du        
  39838 ****        20.7500  18.7500  35.2500 Du        
  39839 ****        20.7500  18.7500  35.5000 Du        
  39840 ****        20.7500  18.7500  35.7500 Du        
  39841 ****        20.7500  19.0000  13.7500 Du        
  39842 ****        20.7500  19.0000  14.0000 Du        
  39843 ****        20.7500  19.0000  14.2500 Du        
  39844 ****        20.7500  19.0000  14.5000 Du        
  39845 ****        20.7500  19.0000  35.0000 Du        
  39846 ****        20.7500  19.0000  35.2500 Du        
  39847 ****        20.7500  19.0000  35.5000 Du        
  39848 ****        20.7500  19.0000  35.7500 Du        
  39849 ****        20.7500  19.0000  36.0000 Du        
  39850 ****        20.7500  19.0000  36.2500 Du        
  39851 ****        20.7500  19.2500  13.5000 Du        
  39852 ****        20.7500  19.2500  13.7500 Du        
  39853 ****        20.7500  19.2500  14.0000 Du        
  39854 ****        20.7500  19.2500  14.2500 Du        
  39855 ****        20.7500  19.2500  35.2500 Du        
  39856 ****        20.7500  19.2500  35.5000 Du        
  39857 ****        20.7500  19.2500  35.7500 Du        
  39858 ****        20.7500  19.2500  36.0000 Du        
  39859 ****        20.7500  19.2500  36.2500 Du        
  39860 ****        20.7500  19.5000  13.7500 Du        
  39861 ****        20.7500  19.5000  35.2500 Du        
  39862 ****        20.7500  19.5000  35.5000 Du        
  39863 ****        20.7500  19.5000  35.7500 Du        
  39864 ****        20.7500  19.5000  36.0000 Du        
  39865 ****        20.7500  19.5000  36.2500 Du        
  39866 ****        20.7500  19.7500  35.5000 Du        
  39867 ****        20.7500  19.7500  35.7500 Du        
  39868 ****        20.7500  19.7500  36.0000 Du        
  39869 ****        20.7500  19.7500  36.2500 Du        
  39870 ****        20.7500  20.0000  35.5000 Du        
  39871 ****        20.7500  20.0000  35.7500 Du        
  39872 ****        20.7500  20.0000  36.0000 Du        
  39873 ****        21.0000  -4.0000  32.0000 Du        
  39874 ****        21.0000  -4.0000  32.2500 Du        
  39875 ****        21.0000  -4.0000  32.5000 Du        
  39876 ****        21.0000  -4.0000  32.7500 Du        
  39877 ****        21.0000  -3.7500  32.2500 Du        
  39878 ****        21.0000  -3.7500  32.5000 Du        
  39879 ****        21.0000  -3.7500  32.7500 Du        
  39880 ****        21.0000  -3.5000  32.5000 Du        
  39881 ****        21.0000  -3.5000  32.7500 Du        
  39882 ****        21.0000  -3.2500  32.5000 Du        
  39883 ****        21.0000  -3.2500  32.7500 Du        
  39884 ****        21.0000  -3.2500  33.0000 Du        
  39885 ****        21.0000  -3.0000  32.7500 Du        
  39886 ****        21.0000  -3.0000  33.0000 Du        
  39887 ****        21.0000  -3.0000  33.2500 Du        
  39888 ****        21.0000  -2.7500  32.7500 Du        
  39889 ****        21.0000  -2.7500  33.0000 Du        
  39890 ****        21.0000  -2.7500  33.2500 Du        
  39891 ****        21.0000  -2.7500  33.5000 Du        
  39892 ****        21.0000  -2.5000  33.5000 Du        
  39893 ****        21.0000  -2.2500  33.5000 Du        
  39894 ****        21.0000  -2.2500  33.7500 Du        
  39895 ****        21.0000  -2.0000  33.5000 Du        
  39896 ****        21.0000  -2.0000  33.7500 Du        
  39897 ****        21.0000  -2.0000  34.0000 Du        
  39898 ****        21.0000  -1.7500  33.7500 Du        
  39899 ****        21.0000  -1.7500  34.0000 Du        
  39900 ****        21.0000  -1.5000  34.5000 Du        
  39901 ****        21.0000  -1.5000  35.0000 Du        
  39902 ****        21.0000  -1.5000  35.2500 Du        
  39903 ****        21.0000  -1.5000  35.5000 Du        
  39904 ****        21.0000  -1.5000  35.7500 Du        
  39905 ****        21.0000  -1.5000  36.0000 Du        
  39906 ****        21.0000  -1.5000  36.2500 Du        
  39907 ****        21.0000  -1.2500  34.5000 Du        
  39908 ****        21.0000  -1.2500  34.7500 Du        
  39909 ****        21.0000  -1.2500  35.0000 Du        
  39910 ****        21.0000  -1.2500  35.2500 Du        
  39911 ****        21.0000  -1.2500  35.5000 Du        
  39912 ****        21.0000  -1.2500  35.7500 Du        
  39913 ****        21.0000  -1.2500  36.0000 Du        
  39914 ****        21.0000  -1.2500  36.2500 Du        
  39915 ****        21.0000  -1.2500  36.5000 Du        
  39916 ****        21.0000  -1.2500  36.7500 Du        
  39917 ****        21.0000  -1.0000  34.5000 Du        
  39918 ****        21.0000  -1.0000  34.7500 Du        
  39919 ****        21.0000  -1.0000  35.0000 Du        
  39920 ****        21.0000  -1.0000  35.2500 Du        
  39921 ****        21.0000  -1.0000  35.5000 Du        
  39922 ****        21.0000  -1.0000  35.7500 Du        
  39923 ****        21.0000  -1.0000  36.0000 Du        
  39924 ****        21.0000  -1.0000  36.2500 Du        
  39925 ****        21.0000  -1.0000  36.5000 Du        
  39926 ****        21.0000  -1.0000  36.7500 Du        
  39927 ****        21.0000  -1.0000  37.0000 Du        
  39928 ****        21.0000  -0.7500  34.7500 Du        
  39929 ****        21.0000  -0.7500  35.0000 Du        
  39930 ****        21.0000  -0.7500  35.2500 Du        
  39931 ****        21.0000  -0.7500  35.5000 Du        
  39932 ****        21.0000  -0.7500  35.7500 Du        
  39933 ****        21.0000  -0.7500  36.0000 Du        
  39934 ****        21.0000  -0.7500  36.2500 Du        
  39935 ****        21.0000  -0.7500  36.5000 Du        
  39936 ****        21.0000  -0.7500  36.7500 Du        
  39937 ****        21.0000  -0.7500  37.0000 Du        
  39938 ****        21.0000  -0.5000  35.0000 Du        
  39939 ****        21.0000  -0.5000  35.2500 Du        
  39940 ****        21.0000  -0.5000  35.5000 Du        
  39941 ****        21.0000  -0.5000  35.7500 Du        
  39942 ****        21.0000  -0.5000  36.0000 Du        
  39943 ****        21.0000  -0.5000  36.2500 Du        
  39944 ****        21.0000  -0.5000  36.5000 Du        
  39945 ****        21.0000  -0.5000  36.7500 Du        
  39946 ****        21.0000  -0.5000  37.0000 Du        
  39947 ****        21.0000  -0.2500  35.0000 Du        
  39948 ****        21.0000  -0.2500  35.2500 Du        
  39949 ****        21.0000  -0.2500  35.5000 Du        
  39950 ****        21.0000  -0.2500  35.7500 Du        
  39951 ****        21.0000  -0.2500  36.0000 Du        
  39952 ****        21.0000  -0.2500  36.2500 Du        
  39953 ****        21.0000  -0.2500  36.5000 Du        
  39954 ****        21.0000  -0.2500  36.7500 Du        
  39955 ****        21.0000  -0.2500  37.0000 Du        
  39956 ****        21.0000   0.0000  35.2500 Du        
  39957 ****        21.0000   0.0000  35.5000 Du        
  39958 ****        21.0000   0.0000  35.7500 Du        
  39959 ****        21.0000   0.0000  36.0000 Du        
  39960 ****        21.0000   0.0000  36.2500 Du        
  39961 ****        21.0000   0.0000  36.5000 Du        
  39962 ****        21.0000   0.0000  36.7500 Du        
  39963 ****        21.0000   0.0000  37.0000 Du        
  39964 ****        21.0000   0.2500  35.2500 Du        
  39965 ****        21.0000   0.2500  35.5000 Du        
  39966 ****        21.0000   0.2500  35.7500 Du        
  39967 ****        21.0000   0.2500  36.0000 Du        
  39968 ****        21.0000   0.2500  36.2500 Du        
  39969 ****        21.0000   0.2500  36.5000 Du        
  39970 ****        21.0000   0.2500  36.7500 Du        
  39971 ****        21.0000   0.2500  37.0000 Du        
  39972 ****        21.0000   0.2500  37.2500 Du        
  39973 ****        21.0000   0.5000  35.5000 Du        
  39974 ****        21.0000   0.5000  35.7500 Du        
  39975 ****        21.0000   0.5000  36.0000 Du        
  39976 ****        21.0000   0.5000  36.2500 Du        
  39977 ****        21.0000   0.5000  36.5000 Du        
  39978 ****        21.0000   0.5000  36.7500 Du        
  39979 ****        21.0000   0.5000  37.0000 Du        
  39980 ****        21.0000   0.5000  37.2500 Du        
  39981 ****        21.0000   0.7500  35.5000 Du        
  39982 ****        21.0000   0.7500  35.7500 Du        
  39983 ****        21.0000   0.7500  36.0000 Du        
  39984 ****        21.0000   0.7500  36.2500 Du        
  39985 ****        21.0000   0.7500  36.5000 Du        
  39986 ****        21.0000   0.7500  36.7500 Du        
  39987 ****        21.0000   0.7500  37.0000 Du        
  39988 ****        21.0000   0.7500  37.2500 Du        
  39989 ****        21.0000   1.0000  35.7500 Du        
  39990 ****        21.0000   1.0000  36.0000 Du        
  39991 ****        21.0000   1.0000  36.2500 Du        
  39992 ****        21.0000   1.0000  36.5000 Du        
  39993 ****        21.0000   1.0000  36.7500 Du        
  39994 ****        21.0000   1.0000  37.0000 Du        
  39995 ****        21.0000   1.2500  36.0000 Du        
  39996 ****        21.0000   4.2500   4.2500 Du        
  39997 ****        21.0000   4.5000   4.0000 Du        
  39998 ****        21.0000   4.5000   4.2500 Du        
  39999 ****        21.0000   4.5000   4.5000 Du        
  40000 ****        21.0000   4.5000   4.7500 Du        
  40001 ****        21.0000   4.7500   3.7500 Du        
  40002 ****        21.0000   4.7500   4.0000 Du        
  40003 ****        21.0000   4.7500   4.2500 Du        
  40004 ****        21.0000   4.7500   4.5000 Du        
  40005 ****        21.0000   4.7500   4.7500 Du        
  40006 ****        21.0000   5.0000   3.7500 Du        
  40007 ****        21.0000   5.0000   4.0000 Du        
  40008 ****        21.0000   5.0000   4.2500 Du        
  40009 ****        21.0000   5.0000   4.5000 Du        
  40010 ****        21.0000   5.0000   4.7500 Du        
  40011 ****        21.0000   5.2500   3.7500 Du        
  40012 ****        21.0000   5.2500   4.0000 Du        
  40013 ****        21.0000   5.2500   4.2500 Du        
  40014 ****        21.0000   5.2500   4.5000 Du        
  40015 ****        21.0000   5.2500   4.7500 Du        
  40016 ****        21.0000   5.5000   3.7500 Du        
  40017 ****        21.0000   5.5000   4.0000 Du        
  40018 ****        21.0000   5.5000   4.2500 Du        
  40019 ****        21.0000   5.5000   4.5000 Du        
  40020 ****        21.0000   5.7500   3.7500 Du        
  40021 ****        21.0000   5.7500   4.0000 Du        
  40022 ****        21.0000   5.7500   4.2500 Du        
  40023 ****        21.0000   6.0000   4.0000 Du        
  40024 ****        21.0000   6.0000   4.2500 Du        
  40025 ****        21.0000   6.5000  25.2500 Du        
  40026 ****        21.0000   6.7500  25.2500 Du        
  40027 ****        21.0000   6.7500  25.5000 Du        
  40028 ****        21.0000   7.0000  25.2500 Du        
  40029 ****        21.0000   7.0000  25.5000 Du        
  40030 ****        21.0000   7.0000  25.7500 Du        
  40031 ****        21.0000   7.2500  25.2500 Du        
  40032 ****        21.0000   7.2500  25.5000 Du        
  40033 ****        21.0000   7.2500  25.7500 Du        
  40034 ****        21.0000   7.5000  25.2500 Du        
  40035 ****        21.0000  10.0000  38.0000 Du        
  40036 ****        21.0000  10.0000  38.2500 Du        
  40037 ****        21.0000  10.0000  38.5000 Du        
  40038 ****        21.0000  10.0000  38.7500 Du        
  40039 ****        21.0000  10.2500  38.5000 Du        
  40040 ****        21.0000  13.0000  30.7500 Du        
  40041 ****        21.0000  13.0000  31.0000 Du        
  40042 ****        21.0000  13.2500  30.2500 Du        
  40043 ****        21.0000  13.2500  30.7500 Du        
  40044 ****        21.0000  13.2500  31.0000 Du        
  40045 ****        21.0000  13.2500  31.2500 Du        
  40046 ****        21.0000  13.5000  30.0000 Du        
  40047 ****        21.0000  13.5000  30.2500 Du        
  40048 ****        21.0000  13.5000  30.5000 Du        
  40049 ****        21.0000  13.5000  30.7500 Du        
  40050 ****        21.0000  13.5000  31.0000 Du        
  40051 ****        21.0000  13.5000  31.2500 Du        
  40052 ****        21.0000  13.7500  30.0000 Du        
  40053 ****        21.0000  13.7500  30.2500 Du        
  40054 ****        21.0000  13.7500  30.5000 Du        
  40055 ****        21.0000  13.7500  30.7500 Du        
  40056 ****        21.0000  13.7500  31.0000 Du        
  40057 ****        21.0000  13.7500  31.2500 Du        
  40058 ****        21.0000  13.7500  31.5000 Du        
  40059 ****        21.0000  14.0000  30.2500 Du        
  40060 ****        21.0000  14.0000  30.5000 Du        
  40061 ****        21.0000  14.0000  30.7500 Du        
  40062 ****        21.0000  14.0000  31.0000 Du        
  40063 ****        21.0000  14.0000  31.2500 Du        
  40064 ****        21.0000  14.0000  31.5000 Du        
  40065 ****        21.0000  14.2500  30.2500 Du        
  40066 ****        21.0000  14.2500  30.5000 Du        
  40067 ****        21.0000  14.2500  30.7500 Du        
  40068 ****        21.0000  14.2500  31.0000 Du        
  40069 ****        21.0000  14.2500  31.2500 Du        
  40070 ****        21.0000  14.2500  31.5000 Du        
  40071 ****        21.0000  14.5000  30.5000 Du        
  40072 ****        21.0000  14.5000  30.7500 Du        
  40073 ****        21.0000  14.5000  31.0000 Du        
  40074 ****        21.0000  14.5000  31.2500 Du        
  40075 ****        21.0000  14.5000  31.5000 Du        
  40076 ****        21.0000  14.5000  31.7500 Du        
  40077 ****        21.0000  14.7500  30.5000 Du        
  40078 ****        21.0000  14.7500  30.7500 Du        
  40079 ****        21.0000  14.7500  31.0000 Du        
  40080 ****        21.0000  14.7500  31.2500 Du        
  40081 ****        21.0000  14.7500  31.5000 Du        
  40082 ****        21.0000  14.7500  31.7500 Du        
  40083 ****        21.0000  14.7500  32.0000 Du        
  40084 ****        21.0000  15.0000  30.7500 Du        
  40085 ****        21.0000  15.0000  31.0000 Du        
  40086 ****        21.0000  15.0000  31.2500 Du        
  40087 ****        21.0000  15.0000  31.5000 Du        
  40088 ****        21.0000  15.0000  31.7500 Du        
  40089 ****        21.0000  15.0000  32.0000 Du        
  40090 ****        21.0000  15.0000  32.2500 Du        
  40091 ****        21.0000  15.2500  30.7500 Du        
  40092 ****        21.0000  15.2500  31.0000 Du        
  40093 ****        21.0000  15.2500  31.2500 Du        
  40094 ****        21.0000  15.2500  31.5000 Du        
  40095 ****        21.0000  15.2500  31.7500 Du        
  40096 ****        21.0000  15.2500  32.0000 Du        
  40097 ****        21.0000  15.2500  32.2500 Du        
  40098 ****        21.0000  15.5000  31.0000 Du        
  40099 ****        21.0000  15.5000  31.2500 Du        
  40100 ****        21.0000  15.5000  31.5000 Du        
  40101 ****        21.0000  15.5000  31.7500 Du        
  40102 ****        21.0000  15.5000  32.0000 Du        
  40103 ****        21.0000  15.5000  32.2500 Du        
  40104 ****        21.0000  15.7500  15.0000 Du        
  40105 ****        21.0000  15.7500  15.2500 Du        
  40106 ****        21.0000  15.7500  15.5000 Du        
  40107 ****        21.0000  15.7500  15.7500 Du        
  40108 ****        21.0000  15.7500  16.0000 Du        
  40109 ****        21.0000  15.7500  31.5000 Du        
  40110 ****        21.0000  15.7500  31.7500 Du        
  40111 ****        21.0000  15.7500  32.0000 Du        
  40112 ****        21.0000  15.7500  32.2500 Du        
  40113 ****        21.0000  16.0000  15.0000 Du        
  40114 ****        21.0000  16.0000  15.2500 Du        
  40115 ****        21.0000  16.0000  15.5000 Du        
  40116 ****        21.0000  16.0000  15.7500 Du        
  40117 ****        21.0000  16.0000  16.0000 Du        
  40118 ****        21.0000  16.0000  32.0000 Du        
  40119 ****        21.0000  16.0000  32.2500 Du        
  40120 ****        21.0000  16.2500  15.0000 Du        
  40121 ****        21.0000  16.2500  15.2500 Du        
  40122 ****        21.0000  16.2500  15.5000 Du        
  40123 ****        21.0000  16.2500  15.7500 Du        
  40124 ****        21.0000  16.2500  16.0000 Du        
  40125 ****        21.0000  16.5000  15.0000 Du        
  40126 ****        21.0000  16.5000  15.2500 Du        
  40127 ****        21.0000  16.5000  15.5000 Du        
  40128 ****        21.0000  16.5000  15.7500 Du        
  40129 ****        21.0000  16.7500  15.0000 Du        
  40130 ****        21.0000  16.7500  15.2500 Du        
  40131 ****        21.0000  16.7500  15.5000 Du        
  40132 ****        21.0000  17.0000  15.0000 Du        
  40133 ****        21.0000  17.0000  15.2500 Du        
  40134 ****        21.0000  17.2500  15.0000 Du        
  40135 ****        21.0000  18.5000  14.5000 Du        
  40136 ****        21.0000  18.5000  35.0000 Du        
  40137 ****        21.0000  18.5000  35.2500 Du        
  40138 ****        21.0000  18.5000  35.5000 Du        
  40139 ****        21.0000  18.7500  14.2500 Du        
  40140 ****        21.0000  18.7500  14.5000 Du        
  40141 ****        21.0000  18.7500  34.7500 Du        
  40142 ****        21.0000  18.7500  35.0000 Du        
  40143 ****        21.0000  18.7500  35.2500 Du        
  40144 ****        21.0000  18.7500  35.5000 Du        
  40145 ****        21.0000  18.7500  35.7500 Du        
  40146 ****        21.0000  18.7500  36.0000 Du        
  40147 ****        21.0000  19.0000  14.0000 Du        
  40148 ****        21.0000  19.0000  14.2500 Du        
  40149 ****        21.0000  19.0000  34.7500 Du        
  40150 ****        21.0000  19.0000  35.0000 Du        
  40151 ****        21.0000  19.0000  35.2500 Du        
  40152 ****        21.0000  19.0000  35.5000 Du        
  40153 ****        21.0000  19.0000  35.7500 Du        
  40154 ****        21.0000  19.0000  36.0000 Du        
  40155 ****        21.0000  19.2500  35.0000 Du        
  40156 ****        21.0000  19.2500  35.2500 Du        
  40157 ****        21.0000  19.2500  35.5000 Du        
  40158 ****        21.0000  19.2500  35.7500 Du        
  40159 ****        21.0000  19.2500  36.0000 Du        
  40160 ****        21.0000  19.5000  35.0000 Du        
  40161 ****        21.0000  19.5000  35.2500 Du        
  40162 ****        21.0000  19.5000  35.5000 Du        
  40163 ****        21.0000  19.5000  35.7500 Du        
  40164 ****        21.0000  19.5000  36.0000 Du        
  40165 ****        21.0000  19.7500  35.2500 Du        
  40166 ****        21.0000  19.7500  35.5000 Du        
  40167 ****        21.0000  19.7500  35.7500 Du        
  40168 ****        21.0000  19.7500  36.0000 Du        
  40169 ****        21.0000  20.0000  35.2500 Du        
  40170 ****        21.0000  20.0000  35.5000 Du        
  40171 ****        21.0000  20.0000  35.7500 Du        
  40172 ****        21.2500  -4.0000  32.2500 Du        
  40173 ****        21.2500  -4.0000  32.5000 Du        
  40174 ****        21.2500  -4.0000  32.7500 Du        
  40175 ****        21.2500  -3.7500  32.2500 Du        
  40176 ****        21.2500  -3.7500  32.5000 Du        
  40177 ****        21.2500  -3.7500  32.7500 Du        
  40178 ****        21.2500  -3.7500  33.0000 Du        
  40179 ****        21.2500  -3.5000  32.5000 Du        
  40180 ****        21.2500  -3.5000  32.7500 Du        
  40181 ****        21.2500  -3.5000  33.0000 Du        
  40182 ****        21.2500  -3.2500  32.5000 Du        
  40183 ****        21.2500  -3.2500  32.7500 Du        
  40184 ****        21.2500  -3.2500  33.0000 Du        
  40185 ****        21.2500  -3.2500  33.2500 Du        
  40186 ****        21.2500  -3.0000  32.5000 Du        
  40187 ****        21.2500  -3.0000  32.7500 Du        
  40188 ****        21.2500  -3.0000  33.0000 Du        
  40189 ****        21.2500  -3.0000  33.2500 Du        
  40190 ****        21.2500  -3.0000  33.5000 Du        
  40191 ****        21.2500  -2.7500  32.7500 Du        
  40192 ****        21.2500  -2.7500  33.0000 Du        
  40193 ****        21.2500  -2.7500  33.2500 Du        
  40194 ****        21.2500  -2.7500  33.5000 Du        
  40195 ****        21.2500  -2.5000  33.5000 Du        
  40196 ****        21.2500  -2.5000  33.7500 Du        
  40197 ****        21.2500  -2.2500  33.5000 Du        
  40198 ****        21.2500  -2.2500  33.7500 Du        
  40199 ****        21.2500  -2.2500  34.0000 Du        
  40200 ****        21.2500  -2.0000  33.5000 Du        
  40201 ****        21.2500  -2.0000  33.7500 Du        
  40202 ****        21.2500  -2.0000  34.0000 Du        
  40203 ****        21.2500  -2.0000  34.2500 Du        
  40204 ****        21.2500  -1.7500  33.5000 Du        
  40205 ****        21.2500  -1.7500  33.7500 Du        
  40206 ****        21.2500  -1.7500  34.0000 Du        
  40207 ****        21.2500  -1.7500  34.2500 Du        
  40208 ****        21.2500  -1.7500  34.5000 Du        
  40209 ****        21.2500  -1.5000  34.5000 Du        
  40210 ****        21.2500  -1.5000  34.7500 Du        
  40211 ****        21.2500  -1.5000  35.0000 Du        
  40212 ****        21.2500  -1.5000  35.2500 Du        
  40213 ****        21.2500  -1.5000  35.5000 Du        
  40214 ****        21.2500  -1.5000  35.7500 Du        
  40215 ****        21.2500  -1.5000  36.0000 Du        
  40216 ****        21.2500  -1.5000  36.2500 Du        
  40217 ****        21.2500  -1.2500  34.2500 Du        
  40218 ****        21.2500  -1.2500  34.5000 Du        
  40219 ****        21.2500  -1.2500  34.7500 Du        
  40220 ****        21.2500  -1.2500  35.0000 Du        
  40221 ****        21.2500  -1.2500  35.2500 Du        
  40222 ****        21.2500  -1.2500  35.5000 Du        
  40223 ****        21.2500  -1.2500  35.7500 Du        
  40224 ****        21.2500  -1.2500  36.0000 Du        
  40225 ****        21.2500  -1.2500  36.2500 Du        
  40226 ****        21.2500  -1.2500  36.5000 Du        
  40227 ****        21.2500  -1.2500  36.7500 Du        
  40228 ****        21.2500  -1.0000  34.5000 Du        
  40229 ****        21.2500  -1.0000  34.7500 Du        
  40230 ****        21.2500  -1.0000  35.0000 Du        
  40231 ****        21.2500  -1.0000  35.2500 Du        
  40232 ****        21.2500  -1.0000  35.5000 Du        
  40233 ****        21.2500  -1.0000  35.7500 Du        
  40234 ****        21.2500  -1.0000  36.0000 Du        
  40235 ****        21.2500  -1.0000  36.2500 Du        
  40236 ****        21.2500  -1.0000  36.5000 Du        
  40237 ****        21.2500  -1.0000  36.7500 Du        
  40238 ****        21.2500  -1.0000  37.0000 Du        
  40239 ****        21.2500  -0.7500  34.5000 Du        
  40240 ****        21.2500  -0.7500  34.7500 Du        
  40241 ****        21.2500  -0.7500  35.0000 Du        
  40242 ****        21.2500  -0.7500  35.2500 Du        
  40243 ****        21.2500  -0.7500  35.5000 Du        
  40244 ****        21.2500  -0.7500  35.7500 Du        
  40245 ****        21.2500  -0.7500  36.0000 Du        
  40246 ****        21.2500  -0.7500  36.2500 Du        
  40247 ****        21.2500  -0.7500  36.5000 Du        
  40248 ****        21.2500  -0.7500  36.7500 Du        
  40249 ****        21.2500  -0.7500  37.0000 Du        
  40250 ****        21.2500  -0.5000  34.5000 Du        
  40251 ****        21.2500  -0.5000  34.7500 Du        
  40252 ****        21.2500  -0.5000  35.0000 Du        
  40253 ****        21.2500  -0.5000  35.2500 Du        
  40254 ****        21.2500  -0.5000  35.5000 Du        
  40255 ****        21.2500  -0.5000  35.7500 Du        
  40256 ****        21.2500  -0.5000  36.0000 Du        
  40257 ****        21.2500  -0.5000  36.2500 Du        
  40258 ****        21.2500  -0.5000  36.5000 Du        
  40259 ****        21.2500  -0.5000  36.7500 Du        
  40260 ****        21.2500  -0.5000  37.0000 Du        
  40261 ****        21.2500  -0.2500  34.7500 Du        
  40262 ****        21.2500  -0.2500  35.0000 Du        
  40263 ****        21.2500  -0.2500  35.2500 Du        
  40264 ****        21.2500  -0.2500  35.5000 Du        
  40265 ****        21.2500  -0.2500  35.7500 Du        
  40266 ****        21.2500  -0.2500  36.0000 Du        
  40267 ****        21.2500  -0.2500  36.2500 Du        
  40268 ****        21.2500  -0.2500  36.5000 Du        
  40269 ****        21.2500  -0.2500  36.7500 Du        
  40270 ****        21.2500  -0.2500  37.0000 Du        
  40271 ****        21.2500  -0.2500  37.2500 Du        
  40272 ****        21.2500   0.0000  34.7500 Du        
  40273 ****        21.2500   0.0000  35.0000 Du        
  40274 ****        21.2500   0.0000  35.2500 Du        
  40275 ****        21.2500   0.0000  35.5000 Du        
  40276 ****        21.2500   0.0000  35.7500 Du        
  40277 ****        21.2500   0.0000  36.0000 Du        
  40278 ****        21.2500   0.0000  36.2500 Du        
  40279 ****        21.2500   0.0000  36.5000 Du        
  40280 ****        21.2500   0.0000  36.7500 Du        
  40281 ****        21.2500   0.0000  37.0000 Du        
  40282 ****        21.2500   0.0000  37.2500 Du        
  40283 ****        21.2500   0.2500  35.0000 Du        
  40284 ****        21.2500   0.2500  35.2500 Du        
  40285 ****        21.2500   0.2500  35.5000 Du        
  40286 ****        21.2500   0.2500  35.7500 Du        
  40287 ****        21.2500   0.2500  36.0000 Du        
  40288 ****        21.2500   0.2500  36.2500 Du        
  40289 ****        21.2500   0.2500  36.5000 Du        
  40290 ****        21.2500   0.2500  36.7500 Du        
  40291 ****        21.2500   0.2500  37.0000 Du        
  40292 ****        21.2500   0.2500  37.2500 Du        
  40293 ****        21.2500   0.5000  35.2500 Du        
  40294 ****        21.2500   0.5000  35.5000 Du        
  40295 ****        21.2500   0.5000  35.7500 Du        
  40296 ****        21.2500   0.5000  36.0000 Du        
  40297 ****        21.2500   0.5000  36.2500 Du        
  40298 ****        21.2500   0.5000  36.5000 Du        
  40299 ****        21.2500   0.5000  36.7500 Du        
  40300 ****        21.2500   0.5000  37.0000 Du        
  40301 ****        21.2500   0.5000  37.2500 Du        
  40302 ****        21.2500   0.5000  37.5000 Du        
  40303 ****        21.2500   0.7500  35.2500 Du        
  40304 ****        21.2500   0.7500  35.5000 Du        
  40305 ****        21.2500   0.7500  35.7500 Du        
  40306 ****        21.2500   0.7500  36.0000 Du        
  40307 ****        21.2500   0.7500  36.2500 Du        
  40308 ****        21.2500   0.7500  36.5000 Du        
  40309 ****        21.2500   0.7500  36.7500 Du        
  40310 ****        21.2500   0.7500  37.0000 Du        
  40311 ****        21.2500   0.7500  37.2500 Du        
  40312 ****        21.2500   0.7500  37.5000 Du        
  40313 ****        21.2500   1.0000  35.2500 Du        
  40314 ****        21.2500   1.0000  35.5000 Du        
  40315 ****        21.2500   1.0000  35.7500 Du        
  40316 ****        21.2500   1.0000  36.0000 Du        
  40317 ****        21.2500   1.0000  36.2500 Du        
  40318 ****        21.2500   1.0000  36.5000 Du        
  40319 ****        21.2500   1.0000  36.7500 Du        
  40320 ****        21.2500   1.0000  37.0000 Du        
  40321 ****        21.2500   1.0000  37.2500 Du        
  40322 ****        21.2500   1.0000  37.5000 Du        
  40323 ****        21.2500   1.2500  35.5000 Du        
  40324 ****        21.2500   1.2500  35.7500 Du        
  40325 ****        21.2500   1.2500  36.0000 Du        
  40326 ****        21.2500   4.5000   4.2500 Du        
  40327 ****        21.2500   4.5000   4.5000 Du        
  40328 ****        21.2500   4.7500   4.2500 Du        
  40329 ****        21.2500   4.7500   4.5000 Du        
  40330 ****        21.2500   4.7500   4.7500 Du        
  40331 ****        21.2500   5.0000   4.0000 Du        
  40332 ****        21.2500   5.0000   4.2500 Du        
  40333 ****        21.2500   5.0000   4.5000 Du        
  40334 ****        21.2500   5.0000   4.7500 Du        
  40335 ****        21.2500   5.0000   5.0000 Du        
  40336 ****        21.2500   5.2500   4.0000 Du        
  40337 ****        21.2500   5.2500   4.2500 Du        
  40338 ****        21.2500   5.2500   4.5000 Du        
  40339 ****        21.2500   5.2500   4.7500 Du        
  40340 ****        21.2500   5.2500   5.0000 Du        
  40341 ****        21.2500   5.5000   4.0000 Du        
  40342 ****        21.2500   5.5000   4.2500 Du        
  40343 ****        21.2500   5.5000   4.5000 Du        
  40344 ****        21.2500   5.5000   4.7500 Du        
  40345 ****        21.2500   5.7500   4.2500 Du        
  40346 ****        21.2500   5.7500   4.5000 Du        
  40347 ****        21.2500   5.7500   4.7500 Du        
  40348 ****        21.2500   6.0000   4.5000 Du        
  40349 ****        21.2500   6.5000  25.2500 Du        
  40350 ****        21.2500   6.7500  25.2500 Du        
  40351 ****        21.2500   6.7500  25.5000 Du        
  40352 ****        21.2500   7.0000  25.2500 Du        
  40353 ****        21.2500   7.0000  25.5000 Du        
  40354 ****        21.2500  10.0000  38.2500 Du        
  40355 ****        21.2500  10.0000  38.5000 Du        
  40356 ****        21.2500  10.0000  38.7500 Du        
  40357 ****        21.2500  12.5000  30.0000 Du        
  40358 ****        21.2500  12.7500  29.7500 Du        
  40359 ****        21.2500  12.7500  30.0000 Du        
  40360 ****        21.2500  12.7500  30.2500 Du        
  40361 ****        21.2500  12.7500  30.5000 Du        
  40362 ****        21.2500  12.7500  30.7500 Du        
  40363 ****        21.2500  13.0000  29.5000 Du        
  40364 ****        21.2500  13.0000  29.7500 Du        
  40365 ****        21.2500  13.0000  30.0000 Du        
  40366 ****        21.2500  13.0000  30.2500 Du        
  40367 ****        21.2500  13.0000  30.5000 Du        
  40368 ****        21.2500  13.0000  30.7500 Du        
  40369 ****        21.2500  13.0000  31.0000 Du        
  40370 ****        21.2500  13.2500  29.7500 Du        
  40371 ****        21.2500  13.2500  30.0000 Du        
  40372 ****        21.2500  13.2500  30.2500 Du        
  40373 ****        21.2500  13.2500  30.5000 Du        
  40374 ****        21.2500  13.2500  30.7500 Du        
  40375 ****        21.2500  13.2500  31.0000 Du        
  40376 ****        21.2500  13.5000  29.7500 Du        
  40377 ****        21.2500  13.5000  30.0000 Du        
  40378 ****        21.2500  13.5000  30.2500 Du        
  40379 ****        21.2500  13.5000  30.5000 Du        
  40380 ****        21.2500  13.5000  30.7500 Du        
  40381 ****        21.2500  13.5000  31.0000 Du        
  40382 ****        21.2500  13.5000  31.2500 Du        
  40383 ****        21.2500  13.7500  29.7500 Du        
  40384 ****        21.2500  13.7500  30.0000 Du        
  40385 ****        21.2500  13.7500  30.2500 Du        
  40386 ****        21.2500  13.7500  30.5000 Du        
  40387 ****        21.2500  13.7500  30.7500 Du        
  40388 ****        21.2500  13.7500  31.0000 Du        
  40389 ****        21.2500  13.7500  31.2500 Du        
  40390 ****        21.2500  14.0000  30.0000 Du        
  40391 ****        21.2500  14.0000  30.2500 Du        
  40392 ****        21.2500  14.0000  30.5000 Du        
  40393 ****        21.2500  14.0000  30.7500 Du        
  40394 ****        21.2500  14.0000  31.0000 Du        
  40395 ****        21.2500  14.0000  31.2500 Du        
  40396 ****        21.2500  14.0000  31.5000 Du        
  40397 ****        21.2500  14.2500  30.0000 Du        
  40398 ****        21.2500  14.2500  30.2500 Du        
  40399 ****        21.2500  14.2500  30.5000 Du        
  40400 ****        21.2500  14.2500  30.7500 Du        
  40401 ****        21.2500  14.2500  31.0000 Du        
  40402 ****        21.2500  14.2500  31.2500 Du        
  40403 ****        21.2500  14.2500  31.5000 Du        
  40404 ****        21.2500  14.5000  30.2500 Du        
  40405 ****        21.2500  14.5000  30.5000 Du        
  40406 ****        21.2500  14.5000  30.7500 Du        
  40407 ****        21.2500  14.5000  31.0000 Du        
  40408 ****        21.2500  14.5000  31.2500 Du        
  40409 ****        21.2500  14.5000  31.5000 Du        
  40410 ****        21.2500  14.5000  31.7500 Du        
  40411 ****        21.2500  14.5000  32.0000 Du        
  40412 ****        21.2500  14.7500  30.2500 Du        
  40413 ****        21.2500  14.7500  30.5000 Du        
  40414 ****        21.2500  14.7500  30.7500 Du        
  40415 ****        21.2500  14.7500  31.0000 Du        
  40416 ****        21.2500  14.7500  31.2500 Du        
  40417 ****        21.2500  14.7500  31.5000 Du        
  40418 ****        21.2500  14.7500  31.7500 Du        
  40419 ****        21.2500  14.7500  32.0000 Du        
  40420 ****        21.2500  15.0000  30.5000 Du        
  40421 ****        21.2500  15.0000  30.7500 Du        
  40422 ****        21.2500  15.0000  31.0000 Du        
  40423 ****        21.2500  15.0000  31.2500 Du        
  40424 ****        21.2500  15.0000  31.5000 Du        
  40425 ****        21.2500  15.0000  31.7500 Du        
  40426 ****        21.2500  15.0000  32.0000 Du        
  40427 ****        21.2500  15.2500  30.5000 Du        
  40428 ****        21.2500  15.2500  30.7500 Du        
  40429 ****        21.2500  15.2500  31.0000 Du        
  40430 ****        21.2500  15.2500  31.2500 Du        
  40431 ****        21.2500  15.2500  31.5000 Du        
  40432 ****        21.2500  15.2500  31.7500 Du        
  40433 ****        21.2500  15.2500  32.0000 Du        
  40434 ****        21.2500  15.2500  32.2500 Du        
  40435 ****        21.2500  15.5000  30.7500 Du        
  40436 ****        21.2500  15.5000  31.0000 Du        
  40437 ****        21.2500  15.5000  31.2500 Du        
  40438 ****        21.2500  15.5000  31.5000 Du        
  40439 ****        21.2500  15.5000  31.7500 Du        
  40440 ****        21.2500  15.5000  32.0000 Du        
  40441 ****        21.2500  15.5000  32.2500 Du        
  40442 ****        21.2500  15.7500  31.2500 Du        
  40443 ****        21.2500  15.7500  31.5000 Du        
  40444 ****        21.2500  15.7500  31.7500 Du        
  40445 ****        21.2500  15.7500  32.0000 Du        
  40446 ****        21.2500  15.7500  32.2500 Du        
  40447 ****        21.2500  16.0000  15.2500 Du        
  40448 ****        21.2500  16.0000  15.5000 Du        
  40449 ****        21.2500  16.0000  15.7500 Du        
  40450 ****        21.2500  16.0000  16.0000 Du        
  40451 ****        21.2500  16.0000  31.7500 Du        
  40452 ****        21.2500  16.0000  32.0000 Du        
  40453 ****        21.2500  16.0000  32.2500 Du        
  40454 ****        21.2500  16.0000  32.5000 Du        
  40455 ****        21.2500  16.2500  15.2500 Du        
  40456 ****        21.2500  16.2500  15.5000 Du        
  40457 ****        21.2500  16.2500  15.7500 Du        
  40458 ****        21.2500  16.2500  16.0000 Du        
  40459 ****        21.2500  16.2500  32.2500 Du        
  40460 ****        21.2500  16.5000  15.2500 Du        
  40461 ****        21.2500  16.5000  15.5000 Du        
  40462 ****        21.2500  16.5000  15.7500 Du        
  40463 ****        21.2500  16.5000  16.0000 Du        
  40464 ****        21.2500  16.7500  15.2500 Du        
  40465 ****        21.2500  16.7500  15.5000 Du        
  40466 ****        21.2500  16.7500  15.7500 Du        
  40467 ****        21.2500  16.7500  16.0000 Du        
  40468 ****        21.2500  17.0000  15.2500 Du        
  40469 ****        21.2500  17.0000  15.5000 Du        
  40470 ****        21.2500  18.2500  34.7500 Du        
  40471 ****        21.2500  18.2500  35.0000 Du        
  40472 ****        21.2500  18.5000  34.7500 Du        
  40473 ****        21.2500  18.5000  35.0000 Du        
  40474 ****        21.2500  18.5000  35.2500 Du        
  40475 ****        21.2500  18.5000  35.5000 Du        
  40476 ****        21.2500  18.7500  34.7500 Du        
  40477 ****        21.2500  18.7500  35.0000 Du        
  40478 ****        21.2500  18.7500  35.2500 Du        
  40479 ****        21.2500  18.7500  35.5000 Du        
  40480 ****        21.2500  18.7500  35.7500 Du        
  40481 ****        21.2500  19.0000  34.7500 Du        
  40482 ****        21.2500  19.0000  35.0000 Du        
  40483 ****        21.2500  19.0000  35.2500 Du        
  40484 ****        21.2500  19.0000  35.5000 Du        
  40485 ****        21.2500  19.0000  35.7500 Du        
  40486 ****        21.2500  19.0000  36.0000 Du        
  40487 ****        21.2500  19.2500  34.7500 Du        
  40488 ****        21.2500  19.2500  35.0000 Du        
  40489 ****        21.2500  19.2500  35.2500 Du        
  40490 ****        21.2500  19.2500  35.5000 Du        
  40491 ****        21.2500  19.2500  35.7500 Du        
  40492 ****        21.2500  19.2500  36.0000 Du        
  40493 ****        21.2500  19.5000  34.7500 Du        
  40494 ****        21.2500  19.5000  35.0000 Du        
  40495 ****        21.2500  19.5000  35.2500 Du        
  40496 ****        21.2500  19.5000  35.5000 Du        
  40497 ****        21.2500  19.5000  35.7500 Du        
  40498 ****        21.2500  19.5000  36.0000 Du        
  40499 ****        21.2500  19.7500  35.0000 Du        
  40500 ****        21.2500  19.7500  35.2500 Du        
  40501 ****        21.2500  19.7500  35.5000 Du        
  40502 ****        21.2500  19.7500  35.7500 Du        
  40503 ****        21.2500  20.0000  35.0000 Du        
  40504 ****        21.2500  20.0000  35.2500 Du        
  40505 ****        21.2500  20.0000  35.5000 Du        
  40506 ****        21.2500  20.2500  35.2500 Du        
  40507 ****        21.5000  -4.0000  32.5000 Du        
  40508 ****        21.5000  -4.0000  32.7500 Du        
  40509 ****        21.5000  -4.0000  33.0000 Du        
  40510 ****        21.5000  -3.7500  32.5000 Du        
  40511 ****        21.5000  -3.7500  32.7500 Du        
  40512 ****        21.5000  -3.7500  33.0000 Du        
  40513 ****        21.5000  -3.5000  32.5000 Du        
  40514 ****        21.5000  -3.5000  32.7500 Du        
  40515 ****        21.5000  -3.5000  33.0000 Du        
  40516 ****        21.5000  -3.2500  32.7500 Du        
  40517 ****        21.5000  -3.2500  33.0000 Du        
  40518 ****        21.5000  -3.2500  33.2500 Du        
  40519 ****        21.5000  -3.0000  32.7500 Du        
  40520 ****        21.5000  -3.0000  33.0000 Du        
  40521 ****        21.5000  -3.0000  33.2500 Du        
  40522 ****        21.5000  -3.0000  33.5000 Du        
  40523 ****        21.5000  -2.7500  32.7500 Du        
  40524 ****        21.5000  -2.7500  33.0000 Du        
  40525 ****        21.5000  -2.7500  33.2500 Du        
  40526 ****        21.5000  -2.7500  33.5000 Du        
  40527 ****        21.5000  -1.5000  35.5000 Du        
  40528 ****        21.5000  -1.5000  35.7500 Du        
  40529 ****        21.5000  -1.2500  34.5000 Du        
  40530 ****        21.5000  -1.2500  34.7500 Du        
  40531 ****        21.5000  -1.2500  35.0000 Du        
  40532 ****        21.5000  -1.2500  35.2500 Du        
  40533 ****        21.5000  -1.2500  35.5000 Du        
  40534 ****        21.5000  -1.2500  35.7500 Du        
  40535 ****        21.5000  -1.2500  36.0000 Du        
  40536 ****        21.5000  -1.2500  36.2500 Du        
  40537 ****        21.5000  -1.2500  36.5000 Du        
  40538 ****        21.5000  -1.2500  36.7500 Du        
  40539 ****        21.5000  -1.0000  34.5000 Du        
  40540 ****        21.5000  -1.0000  34.7500 Du        
  40541 ****        21.5000  -1.0000  35.0000 Du        
  40542 ****        21.5000  -1.0000  35.2500 Du        
  40543 ****        21.5000  -1.0000  35.5000 Du        
  40544 ****        21.5000  -1.0000  35.7500 Du        
  40545 ****        21.5000  -1.0000  36.0000 Du        
  40546 ****        21.5000  -1.0000  36.2500 Du        
  40547 ****        21.5000  -1.0000  36.5000 Du        
  40548 ****        21.5000  -1.0000  36.7500 Du        
  40549 ****        21.5000  -1.0000  37.0000 Du        
  40550 ****        21.5000  -0.7500  34.5000 Du        
  40551 ****        21.5000  -0.7500  34.7500 Du        
  40552 ****        21.5000  -0.7500  35.0000 Du        
  40553 ****        21.5000  -0.7500  35.2500 Du        
  40554 ****        21.5000  -0.7500  35.5000 Du        
  40555 ****        21.5000  -0.7500  35.7500 Du        
  40556 ****        21.5000  -0.7500  36.0000 Du        
  40557 ****        21.5000  -0.7500  36.2500 Du        
  40558 ****        21.5000  -0.7500  36.5000 Du        
  40559 ****        21.5000  -0.7500  36.7500 Du        
  40560 ****        21.5000  -0.7500  37.0000 Du        
  40561 ****        21.5000  -0.7500  37.2500 Du        
  40562 ****        21.5000  -0.5000  34.5000 Du        
  40563 ****        21.5000  -0.5000  34.7500 Du        
  40564 ****        21.5000  -0.5000  35.0000 Du        
  40565 ****        21.5000  -0.5000  35.2500 Du        
  40566 ****        21.5000  -0.5000  35.5000 Du        
  40567 ****        21.5000  -0.5000  35.7500 Du        
  40568 ****        21.5000  -0.5000  36.0000 Du        
  40569 ****        21.5000  -0.5000  36.2500 Du        
  40570 ****        21.5000  -0.5000  36.5000 Du        
  40571 ****        21.5000  -0.5000  36.7500 Du        
  40572 ****        21.5000  -0.5000  37.0000 Du        
  40573 ****        21.5000  -0.5000  37.2500 Du        
  40574 ****        21.5000  -0.2500  34.5000 Du        
  40575 ****        21.5000  -0.2500  34.7500 Du        
  40576 ****        21.5000  -0.2500  35.0000 Du        
  40577 ****        21.5000  -0.2500  35.2500 Du        
  40578 ****        21.5000  -0.2500  35.5000 Du        
  40579 ****        21.5000  -0.2500  35.7500 Du        
  40580 ****        21.5000  -0.2500  36.0000 Du        
  40581 ****        21.5000  -0.2500  36.2500 Du        
  40582 ****        21.5000  -0.2500  36.5000 Du        
  40583 ****        21.5000  -0.2500  36.7500 Du        
  40584 ****        21.5000  -0.2500  37.0000 Du        
  40585 ****        21.5000  -0.2500  37.2500 Du        
  40586 ****        21.5000   0.0000  18.0000 Du        
  40587 ****        21.5000   0.0000  34.5000 Du        
  40588 ****        21.5000   0.0000  34.7500 Du        
  40589 ****        21.5000   0.0000  35.0000 Du        
  40590 ****        21.5000   0.0000  35.2500 Du        
  40591 ****        21.5000   0.0000  35.5000 Du        
  40592 ****        21.5000   0.0000  35.7500 Du        
  40593 ****        21.5000   0.0000  36.0000 Du        
  40594 ****        21.5000   0.0000  36.2500 Du        
  40595 ****        21.5000   0.0000  36.5000 Du        
  40596 ****        21.5000   0.0000  36.7500 Du        
  40597 ****        21.5000   0.0000  37.0000 Du        
  40598 ****        21.5000   0.0000  37.2500 Du        
  40599 ****        21.5000   0.0000  37.5000 Du        
  40600 ****        21.5000   0.2500  34.7500 Du        
  40601 ****        21.5000   0.2500  35.0000 Du        
  40602 ****        21.5000   0.2500  35.2500 Du        
  40603 ****        21.5000   0.2500  35.5000 Du        
  40604 ****        21.5000   0.2500  35.7500 Du        
  40605 ****        21.5000   0.2500  36.0000 Du        
  40606 ****        21.5000   0.2500  36.2500 Du        
  40607 ****        21.5000   0.2500  36.5000 Du        
  40608 ****        21.5000   0.2500  36.7500 Du        
  40609 ****        21.5000   0.2500  37.0000 Du        
  40610 ****        21.5000   0.2500  37.2500 Du        
  40611 ****        21.5000   0.2500  37.5000 Du        
  40612 ****        21.5000   0.5000  35.0000 Du        
  40613 ****        21.5000   0.5000  35.2500 Du        
  40614 ****        21.5000   0.5000  35.5000 Du        
  40615 ****        21.5000   0.5000  35.7500 Du        
  40616 ****        21.5000   0.5000  36.0000 Du        
  40617 ****        21.5000   0.5000  36.2500 Du        
  40618 ****        21.5000   0.5000  36.5000 Du        
  40619 ****        21.5000   0.5000  36.7500 Du        
  40620 ****        21.5000   0.5000  37.0000 Du        
  40621 ****        21.5000   0.5000  37.2500 Du        
  40622 ****        21.5000   0.5000  37.5000 Du        
  40623 ****        21.5000   0.5000  37.7500 Du        
  40624 ****        21.5000   0.7500  35.0000 Du        
  40625 ****        21.5000   0.7500  35.2500 Du        
  40626 ****        21.5000   0.7500  35.5000 Du        
  40627 ****        21.5000   0.7500  35.7500 Du        
  40628 ****        21.5000   0.7500  36.0000 Du        
  40629 ****        21.5000   0.7500  36.2500 Du        
  40630 ****        21.5000   0.7500  36.5000 Du        
  40631 ****        21.5000   0.7500  36.7500 Du        
  40632 ****        21.5000   0.7500  37.0000 Du        
  40633 ****        21.5000   0.7500  37.2500 Du        
  40634 ****        21.5000   0.7500  37.5000 Du        
  40635 ****        21.5000   0.7500  37.7500 Du        
  40636 ****        21.5000   1.0000  35.2500 Du        
  40637 ****        21.5000   1.0000  35.5000 Du        
  40638 ****        21.5000   1.0000  35.7500 Du        
  40639 ****        21.5000   1.0000  36.0000 Du        
  40640 ****        21.5000   1.0000  36.2500 Du        
  40641 ****        21.5000   1.0000  36.5000 Du        
  40642 ****        21.5000   1.0000  36.7500 Du        
  40643 ****        21.5000   1.0000  37.0000 Du        
  40644 ****        21.5000   1.0000  37.2500 Du        
  40645 ****        21.5000   1.0000  37.5000 Du        
  40646 ****        21.5000   1.0000  37.7500 Du        
  40647 ****        21.5000   1.2500  35.2500 Du        
  40648 ****        21.5000   1.2500  35.5000 Du        
  40649 ****        21.5000   1.2500  35.7500 Du        
  40650 ****        21.5000   1.2500  36.0000 Du        
  40651 ****        21.5000   1.2500  36.2500 Du        
  40652 ****        21.5000   5.0000   4.5000 Du        
  40653 ****        21.5000   5.0000   4.7500 Du        
  40654 ****        21.5000   5.2500   4.2500 Du        
  40655 ****        21.5000   5.2500   4.5000 Du        
  40656 ****        21.5000   5.2500   4.7500 Du        
  40657 ****        21.5000   5.2500   5.0000 Du        
  40658 ****        21.5000   5.5000   4.2500 Du        
  40659 ****        21.5000   5.5000   4.5000 Du        
  40660 ****        21.5000   5.5000   4.7500 Du        
  40661 ****        21.5000   5.5000   5.0000 Du        
  40662 ****        21.5000   5.7500   4.5000 Du        
  40663 ****        21.5000   5.7500   4.7500 Du        
  40664 ****        21.5000   5.7500   5.0000 Du        
  40665 ****        21.5000   6.5000  25.0000 Du        
  40666 ****        21.5000   6.5000  25.2500 Du        
  40667 ****        21.5000   6.7500  25.0000 Du        
  40668 ****        21.5000   6.7500  25.2500 Du        
  40669 ****        21.5000   7.0000  25.0000 Du        
  40670 ****        21.5000   7.0000  25.2500 Du        
  40671 ****        21.5000  10.7500  28.2500 Du        
  40672 ****        21.5000  10.7500  28.5000 Du        
  40673 ****        21.5000  10.7500  28.7500 Du        
  40674 ****        21.5000  11.0000  28.5000 Du        
  40675 ****        21.5000  11.0000  28.7500 Du        
  40676 ****        21.5000  11.0000  29.0000 Du        
  40677 ****        21.5000  11.2500  28.7500 Du        
  40678 ****        21.5000  11.2500  29.0000 Du        
  40679 ****        21.5000  11.2500  29.2500 Du        
  40680 ****        21.5000  11.5000  28.5000 Du        
  40681 ****        21.5000  11.5000  28.7500 Du        
  40682 ****        21.5000  11.5000  29.0000 Du        
  40683 ****        21.5000  11.5000  29.2500 Du        
  40684 ****        21.5000  11.7500  28.7500 Du        
  40685 ****        21.5000  11.7500  29.0000 Du        
  40686 ****        21.5000  11.7500  29.2500 Du        
  40687 ****        21.5000  11.7500  29.5000 Du        
  40688 ****        21.5000  12.0000  28.7500 Du        
  40689 ****        21.5000  12.0000  29.0000 Du        
  40690 ****        21.5000  12.0000  29.2500 Du        
  40691 ****        21.5000  12.0000  29.5000 Du        
  40692 ****        21.5000  12.0000  29.7500 Du        
  40693 ****        21.5000  12.0000  30.0000 Du        
  40694 ****        21.5000  12.0000  30.2500 Du        
  40695 ****        21.5000  12.2500  29.0000 Du        
  40696 ****        21.5000  12.2500  29.2500 Du        
  40697 ****        21.5000  12.2500  29.5000 Du        
  40698 ****        21.5000  12.2500  29.7500 Du        
  40699 ****        21.5000  12.2500  30.0000 Du        
  40700 ****        21.5000  12.2500  30.2500 Du        
  40701 ****        21.5000  12.5000  29.0000 Du        
  40702 ****        21.5000  12.5000  29.2500 Du        
  40703 ****        21.5000  12.5000  29.5000 Du        
  40704 ****        21.5000  12.5000  29.7500 Du        
  40705 ****        21.5000  12.5000  30.0000 Du        
  40706 ****        21.5000  12.5000  30.2500 Du        
  40707 ****        21.5000  12.7500  29.2500 Du        
  40708 ****        21.5000  12.7500  29.5000 Du        
  40709 ****        21.5000  12.7500  29.7500 Du        
  40710 ****        21.5000  12.7500  30.0000 Du        
  40711 ****        21.5000  12.7500  30.2500 Du        
  40712 ****        21.5000  13.0000  29.2500 Du        
  40713 ****        21.5000  13.0000  29.5000 Du        
  40714 ****        21.5000  13.0000  29.7500 Du        
  40715 ****        21.5000  13.0000  30.0000 Du        
  40716 ****        21.5000  13.0000  30.2500 Du        
  40717 ****        21.5000  13.0000  30.5000 Du        
  40718 ****        21.5000  13.0000  30.7500 Du        
  40719 ****        21.5000  13.2500  29.5000 Du        
  40720 ****        21.5000  13.2500  29.7500 Du        
  40721 ****        21.5000  13.2500  30.0000 Du        
  40722 ****        21.5000  13.2500  30.2500 Du        
  40723 ****        21.5000  13.2500  30.5000 Du        
  40724 ****        21.5000  13.2500  30.7500 Du        
  40725 ****        21.5000  13.5000  29.7500 Du        
  40726 ****        21.5000  13.5000  30.0000 Du        
  40727 ****        21.5000  13.5000  30.2500 Du        
  40728 ****        21.5000  13.5000  30.5000 Du        
  40729 ****        21.5000  13.5000  30.7500 Du        
  40730 ****        21.5000  13.7500  29.7500 Du        
  40731 ****        21.5000  13.7500  30.0000 Du        
  40732 ****        21.5000  13.7500  30.2500 Du        
  40733 ****        21.5000  13.7500  30.5000 Du        
  40734 ****        21.5000  13.7500  30.7500 Du        
  40735 ****        21.5000  13.7500  31.0000 Du        
  40736 ****        21.5000  13.7500  31.2500 Du        
  40737 ****        21.5000  14.0000  29.7500 Du        
  40738 ****        21.5000  14.0000  30.0000 Du        
  40739 ****        21.5000  14.0000  30.2500 Du        
  40740 ****        21.5000  14.0000  30.5000 Du        
  40741 ****        21.5000  14.0000  30.7500 Du        
  40742 ****        21.5000  14.0000  31.0000 Du        
  40743 ****        21.5000  14.0000  31.2500 Du        
  40744 ****        21.5000  14.2500  30.0000 Du        
  40745 ****        21.5000  14.2500  30.2500 Du        
  40746 ****        21.5000  14.2500  30.5000 Du        
  40747 ****        21.5000  14.2500  30.7500 Du        
  40748 ****        21.5000  14.2500  31.0000 Du        
  40749 ****        21.5000  14.2500  31.2500 Du        
  40750 ****        21.5000  14.5000  30.0000 Du        
  40751 ****        21.5000  14.5000  30.2500 Du        
  40752 ****        21.5000  14.5000  30.5000 Du        
  40753 ****        21.5000  14.5000  30.7500 Du        
  40754 ****        21.5000  14.5000  31.0000 Du        
  40755 ****        21.5000  14.5000  31.2500 Du        
  40756 ****        21.5000  14.5000  31.5000 Du        
  40757 ****        21.5000  14.7500  30.2500 Du        
  40758 ****        21.5000  14.7500  30.5000 Du        
  40759 ****        21.5000  14.7500  30.7500 Du        
  40760 ****        21.5000  14.7500  31.0000 Du        
  40761 ****        21.5000  14.7500  31.2500 Du        
  40762 ****        21.5000  14.7500  31.5000 Du        
  40763 ****        21.5000  14.7500  31.7500 Du        
  40764 ****        21.5000  15.0000  30.2500 Du        
  40765 ****        21.5000  15.0000  30.5000 Du        
  40766 ****        21.5000  15.0000  30.7500 Du        
  40767 ****        21.5000  15.0000  31.0000 Du        
  40768 ****        21.5000  15.0000  31.2500 Du        
  40769 ****        21.5000  15.0000  31.5000 Du        
  40770 ****        21.5000  15.0000  31.7500 Du        
  40771 ****        21.5000  15.2500  30.2500 Du        
  40772 ****        21.5000  15.2500  30.5000 Du        
  40773 ****        21.5000  15.2500  30.7500 Du        
  40774 ****        21.5000  15.2500  31.0000 Du        
  40775 ****        21.5000  15.2500  31.2500 Du        
  40776 ****        21.5000  15.2500  31.5000 Du        
  40777 ****        21.5000  15.2500  31.7500 Du        
  40778 ****        21.5000  15.2500  32.0000 Du        
  40779 ****        21.5000  15.5000  30.5000 Du        
  40780 ****        21.5000  15.5000  30.7500 Du        
  40781 ****        21.5000  15.5000  31.0000 Du        
  40782 ****        21.5000  15.5000  31.2500 Du        
  40783 ****        21.5000  15.5000  31.5000 Du        
  40784 ****        21.5000  15.5000  31.7500 Du        
  40785 ****        21.5000  15.5000  32.0000 Du        
  40786 ****        21.5000  15.7500  31.0000 Du        
  40787 ****        21.5000  15.7500  31.2500 Du        
  40788 ****        21.5000  15.7500  31.5000 Du        
  40789 ****        21.5000  15.7500  31.7500 Du        
  40790 ****        21.5000  15.7500  32.0000 Du        
  40791 ****        21.5000  15.7500  32.2500 Du        
  40792 ****        21.5000  16.0000  15.7500 Du        
  40793 ****        21.5000  16.0000  16.0000 Du        
  40794 ****        21.5000  16.0000  31.7500 Du        
  40795 ****        21.5000  16.0000  32.0000 Du        
  40796 ****        21.5000  16.0000  32.2500 Du        
  40797 ****        21.5000  16.2500  15.5000 Du        
  40798 ****        21.5000  16.2500  15.7500 Du        
  40799 ****        21.5000  16.2500  16.0000 Du        
  40800 ****        21.5000  16.2500  16.2500 Du        
  40801 ****        21.5000  16.2500  32.0000 Du        
  40802 ****        21.5000  16.2500  32.2500 Du        
  40803 ****        21.5000  16.2500  32.5000 Du        
  40804 ****        21.5000  16.5000  15.5000 Du        
  40805 ****        21.5000  16.5000  15.7500 Du        
  40806 ****        21.5000  16.5000  16.0000 Du        
  40807 ****        21.5000  16.5000  16.2500 Du        
  40808 ****        21.5000  16.5000  32.2500 Du        
  40809 ****        21.5000  16.5000  32.5000 Du        
  40810 ****        21.5000  16.5000  32.7500 Du        
  40811 ****        21.5000  16.7500  15.5000 Du        
  40812 ****        21.5000  16.7500  15.7500 Du        
  40813 ****        21.5000  16.7500  16.0000 Du        
  40814 ****        21.5000  17.0000  15.5000 Du        
  40815 ****        21.5000  17.5000  33.7500 Du        
  40816 ****        21.5000  17.5000  34.0000 Du        
  40817 ****        21.5000  17.5000  34.2500 Du        
  40818 ****        21.5000  17.7500  34.0000 Du        
  40819 ****        21.5000  17.7500  34.2500 Du        
  40820 ****        21.5000  17.7500  34.5000 Du        
  40821 ****        21.5000  17.7500  34.7500 Du        
  40822 ****        21.5000  17.7500  35.0000 Du        
  40823 ****        21.5000  18.0000  34.2500 Du        
  40824 ****        21.5000  18.0000  34.5000 Du        
  40825 ****        21.5000  18.0000  34.7500 Du        
  40826 ****        21.5000  18.0000  35.0000 Du        
  40827 ****        21.5000  18.0000  35.2500 Du        
  40828 ****        21.5000  18.2500  34.2500 Du        
  40829 ****        21.5000  18.2500  34.5000 Du        
  40830 ****        21.5000  18.2500  34.7500 Du        
  40831 ****        21.5000  18.2500  35.0000 Du        
  40832 ****        21.5000  18.2500  35.2500 Du        
  40833 ****        21.5000  18.5000  34.2500 Du        
  40834 ****        21.5000  18.5000  34.5000 Du        
  40835 ****        21.5000  18.5000  34.7500 Du        
  40836 ****        21.5000  18.5000  35.0000 Du        
  40837 ****        21.5000  18.5000  35.2500 Du        
  40838 ****        21.5000  18.5000  35.5000 Du        
  40839 ****        21.5000  18.7500  34.5000 Du        
  40840 ****        21.5000  18.7500  34.7500 Du        
  40841 ****        21.5000  18.7500  35.0000 Du        
  40842 ****        21.5000  18.7500  35.2500 Du        
  40843 ****        21.5000  18.7500  35.5000 Du        
  40844 ****        21.5000  18.7500  35.7500 Du        
  40845 ****        21.5000  19.0000  34.5000 Du        
  40846 ****        21.5000  19.0000  34.7500 Du        
  40847 ****        21.5000  19.0000  35.0000 Du        
  40848 ****        21.5000  19.0000  35.2500 Du        
  40849 ****        21.5000  19.0000  35.5000 Du        
  40850 ****        21.5000  19.0000  35.7500 Du        
  40851 ****        21.5000  19.2500  34.5000 Du        
  40852 ****        21.5000  19.2500  34.7500 Du        
  40853 ****        21.5000  19.2500  35.0000 Du        
  40854 ****        21.5000  19.2500  35.2500 Du        
  40855 ****        21.5000  19.2500  35.5000 Du        
  40856 ****        21.5000  19.2500  35.7500 Du        
  40857 ****        21.5000  19.5000  34.5000 Du        
  40858 ****        21.5000  19.5000  34.7500 Du        
  40859 ****        21.5000  19.5000  35.0000 Du        
  40860 ****        21.5000  19.5000  35.2500 Du        
  40861 ****        21.5000  19.5000  35.5000 Du        
  40862 ****        21.5000  19.5000  35.7500 Du        
  40863 ****        21.5000  19.7500  34.7500 Du        
  40864 ****        21.5000  19.7500  35.0000 Du        
  40865 ****        21.5000  19.7500  35.2500 Du        
  40866 ****        21.5000  19.7500  35.5000 Du        
  40867 ****        21.5000  19.7500  35.7500 Du        
  40868 ****        21.5000  20.0000  34.7500 Du        
  40869 ****        21.5000  20.0000  35.0000 Du        
  40870 ****        21.5000  20.0000  35.2500 Du        
  40871 ****        21.5000  20.0000  35.5000 Du        
  40872 ****        21.5000  20.2500  35.0000 Du        
  40873 ****        21.5000  20.2500  35.2500 Du        
  40874 ****        21.7500  -4.0000  32.5000 Du        
  40875 ****        21.7500  -4.0000  32.7500 Du        
  40876 ****        21.7500  -4.0000  33.0000 Du        
  40877 ****        21.7500  -3.7500  32.5000 Du        
  40878 ****        21.7500  -3.7500  32.7500 Du        
  40879 ****        21.7500  -3.7500  33.0000 Du        
  40880 ****        21.7500  -3.5000  32.7500 Du        
  40881 ****        21.7500  -3.5000  33.0000 Du        
  40882 ****        21.7500  -3.2500  32.7500 Du        
  40883 ****        21.7500  -3.2500  33.0000 Du        
  40884 ****        21.7500  -1.2500  35.5000 Du        
  40885 ****        21.7500  -1.2500  35.7500 Du        
  40886 ****        21.7500  -1.2500  36.0000 Du        
  40887 ****        21.7500  -1.2500  36.2500 Du        
  40888 ****        21.7500  -1.2500  36.5000 Du        
  40889 ****        21.7500  -1.2500  36.7500 Du        
  40890 ****        21.7500  -1.0000  34.5000 Du        
  40891 ****        21.7500  -1.0000  34.7500 Du        
  40892 ****        21.7500  -1.0000  35.0000 Du        
  40893 ****        21.7500  -1.0000  35.2500 Du        
  40894 ****        21.7500  -1.0000  35.5000 Du        
  40895 ****        21.7500  -1.0000  35.7500 Du        
  40896 ****        21.7500  -1.0000  36.0000 Du        
  40897 ****        21.7500  -1.0000  36.2500 Du        
  40898 ****        21.7500  -1.0000  36.5000 Du        
  40899 ****        21.7500  -1.0000  36.7500 Du        
  40900 ****        21.7500  -1.0000  37.0000 Du        
  40901 ****        21.7500  -1.0000  37.2500 Du        
  40902 ****        21.7500  -0.7500  34.5000 Du        
  40903 ****        21.7500  -0.7500  34.7500 Du        
  40904 ****        21.7500  -0.7500  35.0000 Du        
  40905 ****        21.7500  -0.7500  35.2500 Du        
  40906 ****        21.7500  -0.7500  35.5000 Du        
  40907 ****        21.7500  -0.7500  35.7500 Du        
  40908 ****        21.7500  -0.7500  36.0000 Du        
  40909 ****        21.7500  -0.7500  36.2500 Du        
  40910 ****        21.7500  -0.7500  36.5000 Du        
  40911 ****        21.7500  -0.7500  36.7500 Du        
  40912 ****        21.7500  -0.7500  37.0000 Du        
  40913 ****        21.7500  -0.7500  37.2500 Du        
  40914 ****        21.7500  -0.7500  37.5000 Du        
  40915 ****        21.7500  -0.5000  34.5000 Du        
  40916 ****        21.7500  -0.5000  34.7500 Du        
  40917 ****        21.7500  -0.5000  35.0000 Du        
  40918 ****        21.7500  -0.5000  35.2500 Du        
  40919 ****        21.7500  -0.5000  35.5000 Du        
  40920 ****        21.7500  -0.5000  35.7500 Du        
  40921 ****        21.7500  -0.5000  36.0000 Du        
  40922 ****        21.7500  -0.5000  36.2500 Du        
  40923 ****        21.7500  -0.5000  36.5000 Du        
  40924 ****        21.7500  -0.5000  36.7500 Du        
  40925 ****        21.7500  -0.5000  37.0000 Du        
  40926 ****        21.7500  -0.5000  37.2500 Du        
  40927 ****        21.7500  -0.5000  37.5000 Du        
  40928 ****        21.7500  -0.2500  34.5000 Du        
  40929 ****        21.7500  -0.2500  34.7500 Du        
  40930 ****        21.7500  -0.2500  35.0000 Du        
  40931 ****        21.7500  -0.2500  35.2500 Du        
  40932 ****        21.7500  -0.2500  35.5000 Du        
  40933 ****        21.7500  -0.2500  35.7500 Du        
  40934 ****        21.7500  -0.2500  36.0000 Du        
  40935 ****        21.7500  -0.2500  36.2500 Du        
  40936 ****        21.7500  -0.2500  36.5000 Du        
  40937 ****        21.7500  -0.2500  36.7500 Du        
  40938 ****        21.7500  -0.2500  37.0000 Du        
  40939 ****        21.7500  -0.2500  37.2500 Du        
  40940 ****        21.7500  -0.2500  37.5000 Du        
  40941 ****        21.7500   0.0000  34.5000 Du        
  40942 ****        21.7500   0.0000  34.7500 Du        
  40943 ****        21.7500   0.0000  35.0000 Du        
  40944 ****        21.7500   0.0000  35.2500 Du        
  40945 ****        21.7500   0.0000  35.5000 Du        
  40946 ****        21.7500   0.0000  35.7500 Du        
  40947 ****        21.7500   0.0000  36.0000 Du        
  40948 ****        21.7500   0.0000  36.2500 Du        
  40949 ****        21.7500   0.0000  36.5000 Du        
  40950 ****        21.7500   0.0000  36.7500 Du        
  40951 ****        21.7500   0.0000  37.0000 Du        
  40952 ****        21.7500   0.0000  37.2500 Du        
  40953 ****        21.7500   0.0000  37.5000 Du        
  40954 ****        21.7500   0.0000  37.7500 Du        
  40955 ****        21.7500   0.2500  34.7500 Du        
  40956 ****        21.7500   0.2500  35.0000 Du        
  40957 ****        21.7500   0.2500  35.2500 Du        
  40958 ****        21.7500   0.2500  35.5000 Du        
  40959 ****        21.7500   0.2500  35.7500 Du        
  40960 ****        21.7500   0.2500  36.0000 Du        
  40961 ****        21.7500   0.2500  36.2500 Du        
  40962 ****        21.7500   0.2500  36.5000 Du        
  40963 ****        21.7500   0.2500  36.7500 Du        
  40964 ****        21.7500   0.2500  37.0000 Du        
  40965 ****        21.7500   0.2500  37.2500 Du        
  40966 ****        21.7500   0.2500  37.5000 Du        
  40967 ****        21.7500   0.2500  37.7500 Du        
  40968 ****        21.7500   0.5000  34.7500 Du        
  40969 ****        21.7500   0.5000  35.0000 Du        
  40970 ****        21.7500   0.5000  35.2500 Du        
  40971 ****        21.7500   0.5000  35.5000 Du        
  40972 ****        21.7500   0.5000  35.7500 Du        
  40973 ****        21.7500   0.5000  36.0000 Du        
  40974 ****        21.7500   0.5000  36.2500 Du        
  40975 ****        21.7500   0.5000  36.5000 Du        
  40976 ****        21.7500   0.5000  36.7500 Du        
  40977 ****        21.7500   0.5000  37.0000 Du        
  40978 ****        21.7500   0.5000  37.2500 Du        
  40979 ****        21.7500   0.5000  37.5000 Du        
  40980 ****        21.7500   0.5000  37.7500 Du        
  40981 ****        21.7500   0.7500  34.7500 Du        
  40982 ****        21.7500   0.7500  35.0000 Du        
  40983 ****        21.7500   0.7500  35.2500 Du        
  40984 ****        21.7500   0.7500  35.5000 Du        
  40985 ****        21.7500   0.7500  35.7500 Du        
  40986 ****        21.7500   0.7500  36.0000 Du        
  40987 ****        21.7500   0.7500  36.2500 Du        
  40988 ****        21.7500   0.7500  36.5000 Du        
  40989 ****        21.7500   0.7500  36.7500 Du        
  40990 ****        21.7500   0.7500  37.0000 Du        
  40991 ****        21.7500   0.7500  37.2500 Du        
  40992 ****        21.7500   0.7500  37.5000 Du        
  40993 ****        21.7500   0.7500  37.7500 Du        
  40994 ****        21.7500   0.7500  38.0000 Du        
  40995 ****        21.7500   1.0000  35.0000 Du        
  40996 ****        21.7500   1.0000  35.2500 Du        
  40997 ****        21.7500   1.0000  35.5000 Du        
  40998 ****        21.7500   1.0000  35.7500 Du        
  40999 ****        21.7500   1.0000  36.0000 Du        
  41000 ****        21.7500   1.0000  36.2500 Du        
  41001 ****        21.7500   1.0000  36.5000 Du        
  41002 ****        21.7500   1.0000  36.7500 Du        
  41003 ****        21.7500   1.0000  37.0000 Du        
  41004 ****        21.7500   1.0000  37.2500 Du        
  41005 ****        21.7500   1.0000  37.5000 Du        
  41006 ****        21.7500   1.0000  37.7500 Du        
  41007 ****        21.7500   1.2500  35.2500 Du        
  41008 ****        21.7500   1.2500  35.5000 Du        
  41009 ****        21.7500   1.2500  35.7500 Du        
  41010 ****        21.7500   1.2500  36.0000 Du        
  41011 ****        21.7500   1.2500  36.2500 Du        
  41012 ****        21.7500   5.2500   4.7500 Du        
  41013 ****        21.7500   5.5000   4.7500 Du        
  41014 ****        21.7500   6.2500  24.7500 Du        
  41015 ****        21.7500   6.5000  24.7500 Du        
  41016 ****        21.7500   6.5000  25.0000 Du        
  41017 ****        21.7500   6.5000  25.2500 Du        
  41018 ****        21.7500   6.7500  25.0000 Du        
  41019 ****        21.7500   6.7500  25.2500 Du        
  41020 ****        21.7500  10.5000  28.5000 Du        
  41021 ****        21.7500  10.5000  28.7500 Du        
  41022 ****        21.7500  10.5000  29.0000 Du        
  41023 ****        21.7500  10.7500  28.2500 Du        
  41024 ****        21.7500  10.7500  28.5000 Du        
  41025 ****        21.7500  10.7500  28.7500 Du        
  41026 ****        21.7500  10.7500  29.0000 Du        
  41027 ****        21.7500  10.7500  29.2500 Du        
  41028 ****        21.7500  11.0000  28.2500 Du        
  41029 ****        21.7500  11.0000  28.5000 Du        
  41030 ****        21.7500  11.0000  28.7500 Du        
  41031 ****        21.7500  11.0000  29.0000 Du        
  41032 ****        21.7500  11.0000  29.2500 Du        
  41033 ****        21.7500  11.2500  28.5000 Du        
  41034 ****        21.7500  11.2500  28.7500 Du        
  41035 ****        21.7500  11.2500  29.0000 Du        
  41036 ****        21.7500  11.2500  29.2500 Du        
  41037 ****        21.7500  11.5000  28.5000 Du        
  41038 ****        21.7500  11.5000  28.7500 Du        
  41039 ****        21.7500  11.5000  29.0000 Du        
  41040 ****        21.7500  11.5000  29.2500 Du        
  41041 ****        21.7500  11.5000  29.5000 Du        
  41042 ****        21.7500  11.5000  29.7500 Du        
  41043 ****        21.7500  11.7500  28.5000 Du        
  41044 ****        21.7500  11.7500  28.7500 Du        
  41045 ****        21.7500  11.7500  29.0000 Du        
  41046 ****        21.7500  11.7500  29.2500 Du        
  41047 ****        21.7500  11.7500  29.5000 Du        
  41048 ****        21.7500  11.7500  29.7500 Du        
  41049 ****        21.7500  11.7500  30.0000 Du        
  41050 ****        21.7500  12.0000  28.7500 Du        
  41051 ****        21.7500  12.0000  29.0000 Du        
  41052 ****        21.7500  12.0000  29.2500 Du        
  41053 ****        21.7500  12.0000  29.5000 Du        
  41054 ****        21.7500  12.0000  29.7500 Du        
  41055 ****        21.7500  12.0000  30.0000 Du        
  41056 ****        21.7500  12.0000  30.2500 Du        
  41057 ****        21.7500  12.2500  29.0000 Du        
  41058 ****        21.7500  12.2500  29.2500 Du        
  41059 ****        21.7500  12.2500  29.5000 Du        
  41060 ****        21.7500  12.2500  29.7500 Du        
  41061 ****        21.7500  12.2500  30.0000 Du        
  41062 ****        21.7500  12.2500  30.2500 Du        
  41063 ****        21.7500  12.5000  29.0000 Du        
  41064 ****        21.7500  12.5000  29.2500 Du        
  41065 ****        21.7500  12.5000  29.5000 Du        
  41066 ****        21.7500  12.5000  29.7500 Du        
  41067 ****        21.7500  12.5000  30.0000 Du        
  41068 ****        21.7500  12.5000  30.2500 Du        
  41069 ****        21.7500  12.7500  29.2500 Du        
  41070 ****        21.7500  12.7500  29.5000 Du        
  41071 ****        21.7500  12.7500  29.7500 Du        
  41072 ****        21.7500  12.7500  30.0000 Du        
  41073 ****        21.7500  12.7500  30.2500 Du        
  41074 ****        21.7500  13.0000  29.2500 Du        
  41075 ****        21.7500  13.0000  29.5000 Du        
  41076 ****        21.7500  13.0000  29.7500 Du        
  41077 ****        21.7500  13.0000  30.0000 Du        
  41078 ****        21.7500  13.0000  30.2500 Du        
  41079 ****        21.7500  13.0000  30.5000 Du        
  41080 ****        21.7500  13.0000  30.7500 Du        
  41081 ****        21.7500  13.2500  29.5000 Du        
  41082 ****        21.7500  13.2500  29.7500 Du        
  41083 ****        21.7500  13.2500  30.0000 Du        
  41084 ****        21.7500  13.2500  30.2500 Du        
  41085 ****        21.7500  13.2500  30.5000 Du        
  41086 ****        21.7500  13.2500  30.7500 Du        
  41087 ****        21.7500  13.5000  29.5000 Du        
  41088 ****        21.7500  13.5000  29.7500 Du        
  41089 ****        21.7500  13.5000  30.0000 Du        
  41090 ****        21.7500  13.5000  30.2500 Du        
  41091 ****        21.7500  13.5000  30.5000 Du        
  41092 ****        21.7500  13.7500  29.7500 Du        
  41093 ****        21.7500  13.7500  30.0000 Du        
  41094 ****        21.7500  13.7500  30.2500 Du        
  41095 ****        21.7500  13.7500  30.5000 Du        
  41096 ****        21.7500  13.7500  30.7500 Du        
  41097 ****        21.7500  13.7500  31.0000 Du        
  41098 ****        21.7500  14.0000  29.7500 Du        
  41099 ****        21.7500  14.0000  30.0000 Du        
  41100 ****        21.7500  14.0000  30.2500 Du        
  41101 ****        21.7500  14.0000  30.5000 Du        
  41102 ****        21.7500  14.0000  30.7500 Du        
  41103 ****        21.7500  14.0000  31.0000 Du        
  41104 ****        21.7500  14.2500  29.7500 Du        
  41105 ****        21.7500  14.2500  30.0000 Du        
  41106 ****        21.7500  14.2500  30.2500 Du        
  41107 ****        21.7500  14.2500  30.5000 Du        
  41108 ****        21.7500  14.2500  30.7500 Du        
  41109 ****        21.7500  14.2500  31.0000 Du        
  41110 ****        21.7500  14.2500  31.2500 Du        
  41111 ****        21.7500  14.5000  30.0000 Du        
  41112 ****        21.7500  14.5000  30.2500 Du        
  41113 ****        21.7500  14.5000  30.5000 Du        
  41114 ****        21.7500  14.5000  30.7500 Du        
  41115 ****        21.7500  14.5000  31.0000 Du        
  41116 ****        21.7500  14.5000  31.2500 Du        
  41117 ****        21.7500  14.7500  30.0000 Du        
  41118 ****        21.7500  14.7500  30.2500 Du        
  41119 ****        21.7500  14.7500  30.5000 Du        
  41120 ****        21.7500  14.7500  30.7500 Du        
  41121 ****        21.7500  14.7500  31.0000 Du        
  41122 ****        21.7500  14.7500  31.2500 Du        
  41123 ****        21.7500  15.0000  30.0000 Du        
  41124 ****        21.7500  15.0000  30.2500 Du        
  41125 ****        21.7500  15.0000  30.5000 Du        
  41126 ****        21.7500  15.0000  30.7500 Du        
  41127 ****        21.7500  15.0000  31.0000 Du        
  41128 ****        21.7500  15.0000  31.2500 Du        
  41129 ****        21.7500  15.0000  31.5000 Du        
  41130 ****        21.7500  15.2500  30.0000 Du        
  41131 ****        21.7500  15.2500  30.2500 Du        
  41132 ****        21.7500  15.2500  30.5000 Du        
  41133 ****        21.7500  15.2500  30.7500 Du        
  41134 ****        21.7500  15.2500  31.0000 Du        
  41135 ****        21.7500  15.2500  31.2500 Du        
  41136 ****        21.7500  15.2500  31.5000 Du        
  41137 ****        21.7500  15.2500  31.7500 Du        
  41138 ****        21.7500  15.5000  30.2500 Du        
  41139 ****        21.7500  15.5000  30.5000 Du        
  41140 ****        21.7500  15.5000  30.7500 Du        
  41141 ****        21.7500  15.5000  31.0000 Du        
  41142 ****        21.7500  15.5000  31.2500 Du        
  41143 ****        21.7500  15.5000  31.5000 Du        
  41144 ****        21.7500  15.5000  31.7500 Du        
  41145 ****        21.7500  15.5000  32.0000 Du        
  41146 ****        21.7500  15.7500  30.7500 Du        
  41147 ****        21.7500  15.7500  31.0000 Du        
  41148 ****        21.7500  15.7500  31.2500 Du        
  41149 ****        21.7500  15.7500  31.5000 Du        
  41150 ****        21.7500  15.7500  31.7500 Du        
  41151 ****        21.7500  15.7500  32.0000 Du        
  41152 ****        21.7500  15.7500  32.2500 Du        
  41153 ****        21.7500  16.0000  31.0000 Du        
  41154 ****        21.7500  16.0000  31.2500 Du        
  41155 ****        21.7500  16.0000  31.5000 Du        
  41156 ****        21.7500  16.0000  31.7500 Du        
  41157 ****        21.7500  16.0000  32.0000 Du        
  41158 ****        21.7500  16.0000  32.2500 Du        
  41159 ****        21.7500  16.0000  32.5000 Du        
  41160 ****        21.7500  16.2500  15.7500 Du        
  41161 ****        21.7500  16.2500  16.0000 Du        
  41162 ****        21.7500  16.2500  31.7500 Du        
  41163 ****        21.7500  16.2500  32.0000 Du        
  41164 ****        21.7500  16.2500  32.2500 Du        
  41165 ****        21.7500  16.2500  32.5000 Du        
  41166 ****        21.7500  16.5000  15.7500 Du        
  41167 ****        21.7500  16.5000  16.0000 Du        
  41168 ****        21.7500  16.5000  32.0000 Du        
  41169 ****        21.7500  16.5000  32.2500 Du        
  41170 ****        21.7500  16.5000  32.5000 Du        
  41171 ****        21.7500  16.5000  32.7500 Du        
  41172 ****        21.7500  16.5000  33.0000 Du        
  41173 ****        21.7500  16.7500  32.2500 Du        
  41174 ****        21.7500  16.7500  32.5000 Du        
  41175 ****        21.7500  16.7500  32.7500 Du        
  41176 ****        21.7500  16.7500  33.0000 Du        
  41177 ****        21.7500  17.0000  32.7500 Du        
  41178 ****        21.7500  17.0000  33.0000 Du        
  41179 ****        21.7500  17.0000  33.2500 Du        
  41180 ****        21.7500  17.2500  33.7500 Du        
  41181 ****        21.7500  17.2500  34.0000 Du        
  41182 ****        21.7500  17.5000  33.5000 Du        
  41183 ****        21.7500  17.5000  33.7500 Du        
  41184 ****        21.7500  17.5000  34.0000 Du        
  41185 ****        21.7500  17.5000  34.2500 Du        
  41186 ****        21.7500  17.5000  34.5000 Du        
  41187 ****        21.7500  17.5000  34.7500 Du        
  41188 ****        21.7500  17.7500  33.7500 Du        
  41189 ****        21.7500  17.7500  34.0000 Du        
  41190 ****        21.7500  17.7500  34.2500 Du        
  41191 ****        21.7500  17.7500  34.5000 Du        
  41192 ****        21.7500  17.7500  34.7500 Du        
  41193 ****        21.7500  17.7500  35.0000 Du        
  41194 ****        21.7500  17.7500  35.2500 Du        
  41195 ****        21.7500  18.0000  34.0000 Du        
  41196 ****        21.7500  18.0000  34.2500 Du        
  41197 ****        21.7500  18.0000  34.5000 Du        
  41198 ****        21.7500  18.0000  34.7500 Du        
  41199 ****        21.7500  18.0000  35.0000 Du        
  41200 ****        21.7500  18.0000  35.2500 Du        
  41201 ****        21.7500  18.0000  35.5000 Du        
  41202 ****        21.7500  18.2500  34.0000 Du        
  41203 ****        21.7500  18.2500  34.2500 Du        
  41204 ****        21.7500  18.2500  34.5000 Du        
  41205 ****        21.7500  18.2500  34.7500 Du        
  41206 ****        21.7500  18.2500  35.0000 Du        
  41207 ****        21.7500  18.2500  35.2500 Du        
  41208 ****        21.7500  18.2500  35.5000 Du        
  41209 ****        21.7500  18.5000  34.2500 Du        
  41210 ****        21.7500  18.5000  34.5000 Du        
  41211 ****        21.7500  18.5000  34.7500 Du        
  41212 ****        21.7500  18.5000  35.0000 Du        
  41213 ****        21.7500  18.5000  35.2500 Du        
  41214 ****        21.7500  18.5000  35.5000 Du        
  41215 ****        21.7500  18.7500  34.2500 Du        
  41216 ****        21.7500  18.7500  34.5000 Du        
  41217 ****        21.7500  18.7500  34.7500 Du        
  41218 ****        21.7500  18.7500  35.0000 Du        
  41219 ****        21.7500  18.7500  35.2500 Du        
  41220 ****        21.7500  18.7500  35.5000 Du        
  41221 ****        21.7500  18.7500  35.7500 Du        
  41222 ****        21.7500  19.0000  34.2500 Du        
  41223 ****        21.7500  19.0000  34.5000 Du        
  41224 ****        21.7500  19.0000  34.7500 Du        
  41225 ****        21.7500  19.0000  35.0000 Du        
  41226 ****        21.7500  19.0000  35.2500 Du        
  41227 ****        21.7500  19.0000  35.5000 Du        
  41228 ****        21.7500  19.2500  34.2500 Du        
  41229 ****        21.7500  19.2500  34.5000 Du        
  41230 ****        21.7500  19.2500  34.7500 Du        
  41231 ****        21.7500  19.2500  35.0000 Du        
  41232 ****        21.7500  19.2500  35.2500 Du        
  41233 ****        21.7500  19.2500  35.5000 Du        
  41234 ****        21.7500  19.5000  34.2500 Du        
  41235 ****        21.7500  19.5000  34.5000 Du        
  41236 ****        21.7500  19.5000  34.7500 Du        
  41237 ****        21.7500  19.5000  35.0000 Du        
  41238 ****        21.7500  19.5000  35.2500 Du        
  41239 ****        21.7500  19.5000  35.5000 Du        
  41240 ****        21.7500  19.7500  34.2500 Du        
  41241 ****        21.7500  19.7500  34.5000 Du        
  41242 ****        21.7500  19.7500  34.7500 Du        
  41243 ****        21.7500  19.7500  35.0000 Du        
  41244 ****        21.7500  19.7500  35.2500 Du        
  41245 ****        21.7500  20.0000  34.5000 Du        
  41246 ****        21.7500  20.0000  34.7500 Du        
  41247 ****        21.7500  20.0000  35.0000 Du        
  41248 ****        21.7500  20.0000  35.2500 Du        
  41249 ****        21.7500  20.2500  34.5000 Du        
  41250 ****        21.7500  20.2500  34.7500 Du        
  41251 ****        21.7500  20.2500  35.0000 Du        
  41252 ****        21.7500  20.5000  34.7500 Du        
  41253 ****        21.7500  20.5000  35.0000 Du        
