#       Name:                CT1002167954
#       Creating user name   hitesit
#       Creation time:       Sun Apr 16 22:53:16 2023


#       File generated by GOLD software.
#

@<TRIPOS>MOLECULE
CT1002167954|ligand_prepared|mol2|1|dock4
    29    30     1
SMALL
NO_CHARGES


@<TRIPOS>ATOM
      1 C1          10.4144  12.9318  12.0279 C.3            1 RES1               0.0000
      2 C2          11.1303  13.0195  10.6646 C.ar           1 RES1               0.0000
      3 C3           9.8073  14.3083  12.2823 C.2            1 RES1               0.0000
      4 C4           9.3869  11.8128  11.8989 C.2            1 RES1               0.0000
      5 C5          11.3541  12.5840  13.2058 C.3            1 RES1               0.0000
      6 C6          12.4609  12.6322  10.5367 C.ar           1 RES1               0.0000
      7 C7          10.4738  13.4823   9.5273 C.ar           1 RES1               0.0000
      8 N8           8.4562  14.4375  12.1487 N.am           1 RES1               0.0000
      9 O9          10.5077  15.2748  12.5573 O.2            1 RES1               0.0000
     10 N10          8.0601  12.1483  11.9681 N.am           1 RES1               0.0000
     11 O11          9.7138  10.6458  11.7213 O.2            1 RES1               0.0000
     12 C12         10.6666  12.5936  14.5621 C.3            1 RES1               0.0000
     13 C13         13.1108  12.7022   9.3156 C.ar           1 RES1               0.0000
     14 C14         11.1256  13.5517   8.3072 C.ar           1 RES1               0.0000
     15 C15          7.5476  13.4140  12.0564 C.2            1 RES1               0.0000
     16 C16         12.4436  13.1615   8.2001 C.ar           1 RES1               0.0000
     17 O17          6.3409  13.6398  12.0587 O.2            1 RES1               0.0000
     18 H18         11.7823  11.5888  13.0340 H              1 RES1               0.0000
     19 H19         12.1800  13.3058  13.2237 H              1 RES1               0.0000
     20 H20         13.0030  12.2705  11.4041 H              1 RES1               0.0000
     21 H21          9.4371  13.7956   9.5882 H              1 RES1               0.0000
     22 H22          8.0873  15.3825  12.1141 H              1 RES1               0.0000
     23 H23          7.3926  11.3838  11.9525 H              1 RES1               0.0000
     24 H24         11.3704  12.3432  15.3531 H              1 RES1               0.0000
     25 H25         10.2507  13.5758  14.7768 H              1 RES1               0.0000
     26 H26          9.8554  11.8689  14.5883 H              1 RES1               0.0000
     27 H27         14.1485  12.3952   9.2369 H              1 RES1               0.0000
     28 H28         10.5968  13.9144   7.4320 H              1 RES1               0.0000
     29 H29         12.9528  13.2159   7.2435 H              1 RES1               0.0000
@<TRIPOS>BOND
    1    1    2 1     
    2    1    3 1     
    3    1    4 1     
    4    1    5 1     
    5    2    6 ar    
    6    2    7 ar    
    7    3    8 1     
    8    3    9 2     
    9    4   10 1     
   10    4   11 2     
   11    5   12 1     
   12    5   18 1     
   13    5   19 1     
   14    6   13 ar    
   15    6   20 1     
   16    7   14 ar    
   17    7   21 1     
   18    8   15 1     
   19    8   22 1     
   20   10   15 1     
   21   10   23 1     
   22   12   24 1     
   23   12   25 1     
   24   12   26 1     
   25   13   16 ar    
   26   13   27 1     
   27   14   16 ar    
   28   14   28 1     
   29   15   17 2     
   30   16   29 1     
@<TRIPOS>SUBSTRUCTURE
      1 RES1           1
@<TRIPOS>SET
DONOR_HYDROGENS      STATIC     ATOMS    <user>   **** ""
2 22 23
ATOM$RED        STATIC     ATOMS    COLORGROUP SYSTEM
2 22 23
@<TRIPOS>COMMENT
> <Gold.Version>
2022.3.0

> <Gold.Id.Protein>
unknown|3mvj_clean|pdb

> <Gold.Protein.RotatedTorsions>
[ 9935 9915 9914 9913 ] final -117.92 input   59.98 | X-H torsion
[ 10984 10935 10934 10932 ] final   97.47 input   60.03 | X-H torsion
[ 9832 9816 9817 9818 ] final  -88.86 input   89.09 | X-H torsion
[ 9883 9871 9872 9873 ] final   70.66 input -126.12 | X-H torsion
[ 9925 9907 9908 9909 ] final   -1.95 input  109.17 | X-H torsion
[ 9887 9876 9875 9872 ] final  139.43 input   59.96 | X-H torsion
[ 10746 10695 10694 10692 ] final   30.54 input   59.99 | X-H torsion
[ 11686 11631 11630 11629 ] final  -14.89 input   60.02 | X-H torsion
[ 9775 9759 9760 9761 ] final -107.56 input  126.36 | X-H torsion
[ 11605 11587 11588 11589 ] final -140.51 input  114.14 | X-H torsion
[ 11559 11538 11537 11535 ] final   26.42 input   60.01 | X-H torsion
[ 11374 11358 11359 11360 ] final -104.17 input   98.08 | X-H torsion
[ 11434 11416 11417 11418 ] final   60.13 input  102.35 | X-H torsion
[ 11551 11527 11528 11529 ] final -157.70 input  127.83 | X-H torsion
[ 11812 11800 11801 11802 ] final   95.28 input  127.47 | X-H torsion
[ 11650 11632 11633 11634 ] final  127.80 input  113.96 | X-H torsion
[ 11482 11466 11467 11468 ] final  -73.69 input  126.08 | X-H torsion
[ 11767 11753 11754 11755 ] final   32.66 input  105.73 | X-H torsion
[ 11713 11697 11698 11699 ] final  -18.08 input  116.95 | X-H torsion
[ 11576 11526 11525 11523 ] final  139.09 input   60.00 | X-H torsion
[ 9362 9334 9332 9329 ] final    0.77 input   60.01 | X-H torsion
[ 7768 7713 7712 7711 ] final -130.21 input   60.03 | X-H torsion
[ 15484 15454 15453 15451 ] final  127.55 input   59.98 | X-H torsion
[ 5787 5760 5759 5756 ] final  -77.91 input   59.99 | X-H torsion
[ 1829 1810 1808 1805 ] final    2.56 input   60.00 | X-H torsion
[ 8490 8455 8453 8450 ] final   -4.52 input   60.02 | X-H torsion
[ 1885 1872 1871 1868 ] final  119.15 input   59.98 | X-H torsion
[ 9510 9468 9467 9465 ] final  -94.56 input   60.02 | X-H torsion
[ 3466 3411 3410 3409 ] final  -76.40 input   59.97 | X-H torsion
[ 16458 9819 9818 9817 ] final  -46.78 input    0.00 | X-H torsion
[ 16464 9874 9873 9872 ] final  149.16 input    0.00 | X-H torsion
[ 16467 9762 9761 9760 ] final  -23.76 input    0.00 | X-H torsion
[ 16495 9617 9616 9615 ] final -115.19 input    0.00 | X-H torsion
[ 16497 9705 9704 9703 ] final   25.72 input    0.00 | X-H torsion
[ 16500 11530 11529 11528 ] final -108.30 input    0.00 | X-H torsion
[ 16504 11361 11360 11359 ] final  -20.09 input    0.00 | X-H torsion
[ 16511 11318 11317 11316 ] final    2.64 input    0.00 | X-H torsion
[ 16520 11590 11589 11588 ] final   78.28 input    0.00 | X-H torsion
[ 16523 11756 11755 11754 ] final  -42.42 input    0.00 | X-H torsion
[ 16543 11419 11418 11417 ] final  -88.02 input   -0.00 | X-H torsion
[ 16547 11469 11468 11467 ] final  -85.29 input    0.00 | X-H torsion
[ 16571 11269 11268 11267 ] final -116.58 input   -0.00 | X-H torsion

> <Gold.Protein.ActiveResidues>
 THR48   LEU49   GLY50   THR51   GLY52   SER53   PHE54   GLY55   ARG56   VAL57  
 LYS78   LYS81   LEU82   LYS83   GLN84   HIS87   GLU127  PHE129  SER130  LEU132 
 ARG133  ARG134  ILE135  GLY136  ARG137  ARG165  ASP166  LEU167  LYS168  PRO169 
 GLU170  ASN171  LEU172  LEU173  THR183  ASP184  GLY186  PHE187  TPO197  LEU198 
 CYS199  GLY200  THR201  PRO202  GLU203  TYR204  LEU205  PRO207  ILE209  ILE210 
 LEU211  SER212  LYS213  VAL226  LEU227  TYR229  GLU230  ALA233  GLY234  TYR235 
 PRO236  PRO237  PHE238  PHE239  ALA240  ASP241  GLN242  PRO243  ILE244  GLN245 
 ILE246  TYR247  GLU248  LYS249  ILE250  VAL251  SER252  ARG256  PHE257  PRO258 
 SER259  PHE327  ASP328  TYR330 

> <Gold.Protein.RotatedAtoms>
   15.6269    6.6086   10.3811 H   0  0  0  0  0  0  0  0  0  0  0  0  # atno 1829 bound_to 1810
    6.4686    9.4141    9.8007 H   0  0  0  0  0  0  0  0  0  0  0  0  # atno 1885 bound_to 1872
    1.8494   11.4547   -6.1150 H   0  0  0  0  0  0  0  0  0  0  0  0  # atno 3466 bound_to 3411
    0.3504   10.7509   -6.1884 H   0  0  0  0  0  0  0  0  0  0  0  0  # atno 3467 bound_to 3411
    0.5702   12.2952   -6.7494 H   0  0  0  0  0  0  0  0  0  0  0  0  # atno 3468 bound_to 3411
   16.1165   12.9666   23.9088 H   0  0  0  0  0  0  0  0  0  0  0  0  # atno 5787 bound_to 5760
    7.8503   12.8304   14.5934 H   0  0  0  0  0  0  0  0  0  0  0  0  # atno 7768 bound_to 7713
    6.6827   12.8626   15.7691 H   0  0  0  0  0  0  0  0  0  0  0  0  # atno 7769 bound_to 7713
    6.3515   13.4518   14.2557 H   0  0  0  0  0  0  0  0  0  0  0  0  # atno 7770 bound_to 7713
   14.1318   19.2372   14.7164 H   0  0  0  0  0  0  0  0  0  0  0  0  # atno 8490 bound_to 8455
    4.0486   14.6216   12.9609 H   0  0  0  0  0  0  0  0  0  0  0  0  # atno 9362 bound_to 9334
    3.4450   17.8251   23.2005 H   0  0  0  0  0  0  0  0  0  0  0  0  # atno 9510 bound_to 9468
    8.4357    8.0286   41.1423 H   0  0  0  0  0  0  0  0  0  0  0  0  # atno 9775 bound_to 9759
    5.6712    8.2330   39.4701 H   0  0  0  0  0  0  0  0  0  0  0  0  # atno 9832 bound_to 9816
    3.6846   10.0024   40.7647 H   0  0  0  0  0  0  0  0  0  0  0  0  # atno 9883 bound_to 9871
    4.5398   13.0863   39.2624 H   0  0  0  0  0  0  0  0  0  0  0  0  # atno 9887 bound_to 9876
    3.9870   10.9227   43.9551 H   0  0  0  0  0  0  0  0  0  0  0  0  # atno 9925 bound_to 9907
   -2.2167    6.7055   42.8962 H   0  0  0  0  0  0  0  0  0  0  0  0  # atno 9935 bound_to 9915
   -1.3058    8.0545   43.2109 H   0  0  0  0  0  0  0  0  0  0  0  0  # atno 9936 bound_to 9915
   -0.9985    7.1438   41.8606 H   0  0  0  0  0  0  0  0  0  0  0  0  # atno 9937 bound_to 9915
   -3.6860   16.3939   30.8567 H   0  0  0  0  0  0  0  0  0  0  0  0  # atno 10746 bound_to 10695
   -3.2499   13.7618   33.8050 H   0  0  0  0  0  0  0  0  0  0  0  0  # atno 10984 bound_to 10935
   11.5153    5.1324   30.7720 H   0  0  0  0  0  0  0  0  0  0  0  0  # atno 11374 bound_to 11358
   10.4212    3.0315   29.7438 H   0  0  0  0  0  0  0  0  0  0  0  0  # atno 11434 bound_to 11416
    9.7860    0.6462   30.9342 H   0  0  0  0  0  0  0  0  0  0  0  0  # atno 11482 bound_to 11466
   10.5114    2.8182   33.8114 H   0  0  0  0  0  0  0  0  0  0  0  0  # atno 11551 bound_to 11527
   13.5040    7.4575   34.7408 H   0  0  0  0  0  0  0  0  0  0  0  0  # atno 11559 bound_to 11538
   -3.3782   10.1162   11.9833 H   0  0  0  0  0  0  0  0  0  0  0  0  # atno 11576 bound_to 11526
    6.7452    2.7624   33.4657 H   0  0  0  0  0  0  0  0  0  0  0  0  # atno 11605 bound_to 11587
    7.5673   -0.6593   33.0180 H   0  0  0  0  0  0  0  0  0  0  0  0  # atno 11650 bound_to 11632
   -7.8437    8.8719   25.6904 H   0  0  0  0  0  0  0  0  0  0  0  0  # atno 11686 bound_to 11631
   -8.7917    9.1003   27.0301 H   0  0  0  0  0  0  0  0  0  0  0  0  # atno 11687 bound_to 11631
   -9.2048    7.9514   25.9101 H   0  0  0  0  0  0  0  0  0  0  0  0  # atno 11688 bound_to 11631
    6.8203   -1.4626   36.0254 H   0  0  0  0  0  0  0  0  0  0  0  0  # atno 11713 bound_to 11697
    5.6306   -0.4780   36.9613 H   0  0  0  0  0  0  0  0  0  0  0  0  # atno 11767 bound_to 11753
    4.3129   -1.5124   36.6836 H   0  0  0  0  0  0  0  0  0  0  0  0  # atno 11812 bound_to 11800
   15.0690    8.7510   17.2488 H   0  0  0  0  0  0  0  0  0  0  0  0  # atno 15484 bound_to 15454
    1.6084   10.1262   40.2596 LP  0  0  0  0  0  0  0  0  0  0  0  0  # atno 16458 bound_to 9819
    1.9567   10.3329   41.9437 LP  0  0  0  0  0  0  0  0  0  0  0  0  # atno 16459 bound_to 9819
   -3.3495   15.1597   32.9777 LP  0  0  0  0  0  0  0  0  0  0  0  0  # atno 16460 bound_to 10935
   -2.1940   14.9608   34.1143 LP  0  0  0  0  0  0  0  0  0  0  0  0  # atno 16461 bound_to 10935
    5.1635    7.2188   40.7981 LP  0  0  0  0  0  0  0  0  0  0  0  0  # atno 16462 bound_to 9816
    5.2743    9.7756   41.4559 LP  0  0  0  0  0  0  0  0  0  0  0  0  # atno 16463 bound_to 9871
    1.7040   12.4310   43.9221 LP  0  0  0  0  0  0  0  0  0  0  0  0  # atno 16464 bound_to 9874
    3.0224   13.4338   43.4162 LP  0  0  0  0  0  0  0  0  0  0  0  0  # atno 16465 bound_to 9874
    2.8455    9.9364   43.0724 LP  0  0  0  0  0  0  0  0  0  0  0  0  # atno 16466 bound_to 9907
    6.5065    9.6748   38.0616 LP  0  0  0  0  0  0  0  0  0  0  0  0  # atno 16467 bound_to 9762
    4.8030    9.3622   38.0765 LP  0  0  0  0  0  0  0  0  0  0  0  0  # atno 16468 bound_to 9762
    5.4862   12.0334   40.0650 LP  0  0  0  0  0  0  0  0  0  0  0  0  # atno 16469 bound_to 9876
    5.5902   13.6326   40.3789 LP  0  0  0  0  0  0  0  0  0  0  0  0  # atno 16470 bound_to 9876
   -4.8670   16.5521   29.7492 LP  0  0  0  0  0  0  0  0  0  0  0  0  # atno 16477 bound_to 10695
   -4.7459   17.6221   30.9769 LP  0  0  0  0  0  0  0  0  0  0  0  0  # atno 16478 bound_to 10695
    5.8527    6.1691   41.5412 LP  0  0  0  0  0  0  0  0  0  0  0  0  # atno 16495 bound_to 9617
    4.5525    5.0675   41.2314 LP  0  0  0  0  0  0  0  0  0  0  0  0  # atno 16496 bound_to 9617
    7.8556   10.4493   41.7290 LP  0  0  0  0  0  0  0  0  0  0  0  0  # atno 16497 bound_to 9705
    6.8151    9.7996   40.5061 LP  0  0  0  0  0  0  0  0  0  0  0  0  # atno 16498 bound_to 9705
    7.2118    6.8120   41.4269 LP  0  0  0  0  0  0  0  0  0  0  0  0  # atno 16499 bound_to 9759
    6.6020    1.0996   35.9303 LP  0  0  0  0  0  0  0  0  0  0  0  0  # atno 16500 bound_to 11530
    6.0824    2.7514   35.9696 LP  0  0  0  0  0  0  0  0  0  0  0  0  # atno 16501 bound_to 11530
    7.5274    4.0566   31.7945 LP  0  0  0  0  0  0  0  0  0  0  0  0  # atno 16504 bound_to 11361
    7.2285    2.6971   30.7639 LP  0  0  0  0  0  0  0  0  0  0  0  0  # atno 16505 bound_to 11361
    7.7383    1.3320   33.2861 LP  0  0  0  0  0  0  0  0  0  0  0  0  # atno 16508 bound_to 11587
   12.5863    8.6602   35.3396 LP  0  0  0  0  0  0  0  0  0  0  0  0  # atno 16509 bound_to 11538
   12.7827    8.5049   33.7260 LP  0  0  0  0  0  0  0  0  0  0  0  0  # atno 16510 bound_to 11538
   11.8593    3.9127   32.7746 LP  0  0  0  0  0  0  0  0  0  0  0  0  # atno 16511 bound_to 11318
   10.2411    3.9455   32.1580 LP  0  0  0  0  0  0  0  0  0  0  0  0  # atno 16512 bound_to 11318
   11.0562    4.9232   29.1083 LP  0  0  0  0  0  0  0  0  0  0  0  0  # atno 16513 bound_to 11358
    8.7842    3.6213   29.5947 LP  0  0  0  0  0  0  0  0  0  0  0  0  # atno 16514 bound_to 11416
    9.2699    2.0484   32.8598 LP  0  0  0  0  0  0  0  0  0  0  0  0  # atno 16515 bound_to 11527
    4.0724   -1.2794   34.1469 LP  0  0  0  0  0  0  0  0  0  0  0  0  # atno 16520 bound_to 11590
    4.9004   -0.7485   35.5726 LP  0  0  0  0  0  0  0  0  0  0  0  0  # atno 16521 bound_to 11590
    3.0528   -0.7171   37.5972 LP  0  0  0  0  0  0  0  0  0  0  0  0  # atno 16522 bound_to 11800
    2.8252   -1.0563   40.0415 LP  0  0  0  0  0  0  0  0  0  0  0  0  # atno 16523 bound_to 11756
    1.5698   -1.3238   38.8786 LP  0  0  0  0  0  0  0  0  0  0  0  0  # atno 16524 bound_to 11756
    7.8847    0.2304   32.0015 LP  0  0  0  0  0  0  0  0  0  0  0  0  # atno 16543 bound_to 11419
    8.7383   -1.0076   31.1421 LP  0  0  0  0  0  0  0  0  0  0  0  0  # atno 16544 bound_to 11419
    6.1448   -0.4441   34.0063 LP  0  0  0  0  0  0  0  0  0  0  0  0  # atno 16545 bound_to 11632
   10.9541    1.9492   30.8609 LP  0  0  0  0  0  0  0  0  0  0  0  0  # atno 16546 bound_to 11466
    8.5299   -0.0076   34.1140 LP  0  0  0  0  0  0  0  0  0  0  0  0  # atno 16547 bound_to 11469
    9.6618    0.3805   35.3662 LP  0  0  0  0  0  0  0  0  0  0  0  0  # atno 16548 bound_to 11469
    6.3698    0.5202   38.1906 LP  0  0  0  0  0  0  0  0  0  0  0  0  # atno 16549 bound_to 11753
    8.4816   -0.9599   35.7632 LP  0  0  0  0  0  0  0  0  0  0  0  0  # atno 16550 bound_to 11697
   -2.7095   11.3654   12.7838 LP  0  0  0  0  0  0  0  0  0  0  0  0  # atno 16565 bound_to 11526
   -3.4509   11.6137   11.3502 LP  0  0  0  0  0  0  0  0  0  0  0  0  # atno 16566 bound_to 11526
    5.0506   13.9787   14.0708 LP  0  0  0  0  0  0  0  0  0  0  0  0  # atno 16567 bound_to 9334
    4.7308   15.5800   14.0857 LP  0  0  0  0  0  0  0  0  0  0  0  0  # atno 16568 bound_to 9334
   11.5428    3.0896   29.4999 LP  0  0  0  0  0  0  0  0  0  0  0  0  # atno 16571 bound_to 11269
   12.7704    1.8834   29.3046 LP  0  0  0  0  0  0  0  0  0  0  0  0  # atno 16572 bound_to 11269
   16.3042    9.0411   18.2673 LP  0  0  0  0  0  0  0  0  0  0  0  0  # atno 16581 bound_to 15454
   15.1953    7.8981   18.6285 LP  0  0  0  0  0  0  0  0  0  0  0  0  # atno 16582 bound_to 15454
   17.2430   12.0187   24.6014 LP  0  0  0  0  0  0  0  0  0  0  0  0  # atno 16589 bound_to 5760
   16.3730   13.0573   25.5130 LP  0  0  0  0  0  0  0  0  0  0  0  0  # atno 16590 bound_to 5760
   14.6949    5.3676   10.8712 LP  0  0  0  0  0  0  0  0  0  0  0  0  # atno 16601 bound_to 1810
   16.2953    5.3682   11.1957 LP  0  0  0  0  0  0  0  0  0  0  0  0  # atno 16602 bound_to 1810
   15.5396   18.8271   15.4219 LP  0  0  0  0  0  0  0  0  0  0  0  0  # atno 16609 bound_to 8455
   15.0364   18.0434   14.0805 LP  0  0  0  0  0  0  0  0  0  0  0  0  # atno 16610 bound_to 8455
    6.9745    7.8818    9.5913 LP  0  0  0  0  0  0  0  0  0  0  0  0  # atno 16611 bound_to 1872
    5.8901    8.5349    8.5597 LP  0  0  0  0  0  0  0  0  0  0  0  0  # atno 16612 bound_to 1872
    4.7845   18.4552   22.5254 LP  0  0  0  0  0  0  0  0  0  0  0  0  # atno 16621 bound_to 9468
    4.5550   16.8385   22.5360 LP  0  0  0  0  0  0  0  0  0  0  0  0  # atno 16622 bound_to 9468

> <Gold.Score>
     Fitness  S(hb_ext) S(vdw_ext)  S(hb_int)    S(int)      intcor
     38.39       6.75      23.58       0.00      -0.79      -0.76

> <Gold.Goldscore.Fitness>
38.3911

> <Gold.Goldscore.Internal.Vdw>
-1.1488

> <Gold.Goldscore.Internal.Torsion>
-0.3959

> <Gold.Goldscore.External.Vdw>
23.5823

> <Gold.Goldscore.Internal.HBond>
0.0000

> <Gold.Goldscore.External.HBond>
6.7516

> <Gold.Goldscore.Internal.Correction>
-0.7585

> <Gold.Goldscore.Hbonds>
donor molecule, donor type, donor heavy atom, donor atom, acceptor molecule, acceptor atom, score
      P1  H  7713  7770       L1    17  0.03
      P1  H  1867  1886       L1    11  0.28
      L1  H     8    22       P1  7619  1.00

> <Gold.Goldscore.Internal.Vdw.Weighted>
-1.1488

> <Gold.Goldscore.Internal.Torsion.Weighted>
-0.3959

> <Gold.Goldscore.External.Vdw.Weighted>
32.4257

> <Gold.Goldscore.Internal.HBond.Weighted>
0.0000

> <Gold.Goldscore.External.HBond.Weighted>
6.7516

> <Gold.Goldscore.Internal.Correction.Weighted>
-0.7585

> <Gold.Rescore>
     Score     S(PLP)   S(hbond)     S(cho)   S(metal)  DE(clash)   DE(tors)     intcor
     30.13     -23.53       2.35       0.00       0.00       0.00       0.22       ----

> <Gold.PLP.Fitness>
30.1320

> <Gold.PLP.PLP>
-23.5308

> <Gold.PLP.part.hbond>
-4.4388

> <Gold.PLP.part.metal>
0.0000

> <Gold.PLP.part.buried>
1.8965

> <Gold.PLP.part.nonpolar>
-25.3585

> <Gold.PLP.part.repulsive>
6.3231

> <Gold.PLP.ligand.clash>
0.0000

> <Gold.PLP.ligand.torsion>
0.2236

> <Gold.PLP.Chemscore.Hbond>
2.3494

> <Gold.PLP.Chemscore.CHOScore>
0.0000

> <Gold.PLP.Chemscore.Metal>
0.0000

> <Gold.Chemscore.Hbonds>
donor molecule, donor type, donor heavy atom, donor atom, acceptor molecule, acceptor atom, score
      L1  H     8    22       P1  7619  0.71
      P1  H  7713  7770       L1    17  0.23
      P1  H  1867  1886       L1    11  1.00
      P1  H  7864  7898       L1     9  0.07

> <Gold.PLP.Chemscore.Internal.Correction>
   9.000000E+99

