#       Name:                CT1002167954
#       Creating user name   hitesit
#       Creation time:       Sun Apr 16 22:53:29 2023


#       File generated by GOLD software.
#

@<TRIPOS>MOLECULE
CT1002167954|ligand_prepared|mol2|1|dock10
    29    30     1
SMALL
NO_CHARGES


@<TRIPOS>ATOM
      1 C1          12.7572  12.9848  12.2482 C.3            1 RES1               0.0000
      2 C2          11.6267  13.2102  11.2236 C.ar           1 RES1               0.0000
      3 C3          13.2208  14.3709  12.6866 C.2            1 RES1               0.0000
      4 C4          12.1550  12.1465  13.3704 C.2            1 RES1               0.0000
      5 C5          13.9730  12.2176  11.6784 C.3            1 RES1               0.0000
      6 C6          11.8619  13.0475   9.8616 C.ar           1 RES1               0.0000
      7 C7          10.3450  13.5778  11.6246 C.ar           1 RES1               0.0000
      8 N8          12.8604  14.7930  13.9323 N.am           1 RES1               0.0000
      9 O9          13.8593  15.0982  11.9358 O.2            1 RES1               0.0000
     10 N10         12.0430  12.7189  14.6103 N.am           1 RES1               0.0000
     11 O11         11.7612  11.0010  13.1880 O.2            1 RES1               0.0000
     12 C12         15.0016  11.8311  12.7295 C.3            1 RES1               0.0000
     13 C13         10.8517  13.2424   8.9343 C.ar           1 RES1               0.0000
     14 C14          9.3363  13.7724  10.6956 C.ar           1 RES1               0.0000
     15 C15         12.3401  14.0146  14.9348 C.2            1 RES1               0.0000
     16 C16          9.5883  13.6045   9.3506 C.ar           1 RES1               0.0000
     17 O17         12.1610  14.4719  16.0599 O.2            1 RES1               0.0000
     18 H18         13.6152  11.3067  11.1829 H              1 RES1               0.0000
     19 H19         14.4609  12.8423  10.9200 H              1 RES1               0.0000
     20 H20         12.8504  12.7652   9.5151 H              1 RES1               0.0000
     21 H21         10.1241  13.7166  12.6775 H              1 RES1               0.0000
     22 H22         12.9896  15.7787  14.1374 H              1 RES1               0.0000
     23 H23         11.7072  12.1240  15.3611 H              1 RES1               0.0000
     24 H24         15.8334  11.2955  12.2766 H              1 RES1               0.0000
     25 H25         15.3975  12.7150  13.2252 H              1 RES1               0.0000
     26 H26         14.5567  11.1886  13.4865 H              1 RES1               0.0000
     27 H27         11.0555  13.1103   7.8768 H              1 RES1               0.0000
     28 H28          8.3436  14.0579  11.0276 H              1 RES1               0.0000
     29 H29          8.7971  13.7567   8.6240 H              1 RES1               0.0000
@<TRIPOS>BOND
    1    1    2 1     
    2    1    3 1     
    3    1    4 1     
    4    1    5 1     
    5    2    6 ar    
    6    2    7 ar    
    7    3    8 1     
    8    3    9 2     
    9    4   10 1     
   10    4   11 2     
   11    5   12 1     
   12    5   18 1     
   13    5   19 1     
   14    6   13 ar    
   15    6   20 1     
   16    7   14 ar    
   17    7   21 1     
   18    8   15 1     
   19    8   22 1     
   20   10   15 1     
   21   10   23 1     
   22   12   24 1     
   23   12   25 1     
   24   12   26 1     
   25   13   16 ar    
   26   13   27 1     
   27   14   16 ar    
   28   14   28 1     
   29   15   17 2     
   30   16   29 1     
@<TRIPOS>SUBSTRUCTURE
      1 RES1           1
@<TRIPOS>SET
DONOR_HYDROGENS      STATIC     ATOMS    <user>   **** ""
2 22 23
ATOM$RED        STATIC     ATOMS    COLORGROUP SYSTEM
2 22 23
@<TRIPOS>COMMENT
> <Gold.Version>
2022.3.0

> <Gold.Id.Protein>
unknown|3mvj_clean|pdb

> <Gold.Protein.RotatedTorsions>
[ 9935 9915 9914 9913 ] final  131.70 input   59.98 | X-H torsion
[ 10984 10935 10934 10932 ] final   43.24 input   60.03 | X-H torsion
[ 9832 9816 9817 9818 ] final  -43.45 input   89.09 | X-H torsion
[ 9883 9871 9872 9873 ] final   41.22 input -126.12 | X-H torsion
[ 9925 9907 9908 9909 ] final   88.02 input  109.17 | X-H torsion
[ 9887 9876 9875 9872 ] final -155.25 input   59.96 | X-H torsion
[ 10746 10695 10694 10692 ] final   82.56 input   59.99 | X-H torsion
[ 11686 11631 11630 11629 ] final   92.40 input   60.02 | X-H torsion
[ 9775 9759 9760 9761 ] final   10.89 input  126.36 | X-H torsion
[ 11605 11587 11588 11589 ] final   15.55 input  114.14 | X-H torsion
[ 11559 11538 11537 11535 ] final  -24.49 input   60.01 | X-H torsion
[ 11374 11358 11359 11360 ] final   89.46 input   98.08 | X-H torsion
[ 11434 11416 11417 11418 ] final   50.11 input  102.35 | X-H torsion
[ 11551 11527 11528 11529 ] final  165.72 input  127.83 | X-H torsion
[ 11812 11800 11801 11802 ] final  163.93 input  127.47 | X-H torsion
[ 11650 11632 11633 11634 ] final  108.04 input  113.96 | X-H torsion
[ 11482 11466 11467 11468 ] final  -30.28 input  126.08 | X-H torsion
[ 11767 11753 11754 11755 ] final -147.60 input  105.73 | X-H torsion
[ 11713 11697 11698 11699 ] final  -35.30 input  116.95 | X-H torsion
[ 11576 11526 11525 11523 ] final   20.31 input   60.00 | X-H torsion
[ 9362 9334 9332 9329 ] final  168.08 input   60.01 | X-H torsion
[ 7768 7713 7712 7711 ] final  135.66 input   60.03 | X-H torsion
[ 15484 15454 15453 15451 ] final   99.13 input   59.98 | X-H torsion
[ 5787 5760 5759 5756 ] final  155.34 input   59.99 | X-H torsion
[ 1829 1810 1808 1805 ] final   -5.17 input   60.00 | X-H torsion
[ 8490 8455 8453 8450 ] final  134.56 input   60.02 | X-H torsion
[ 1885 1872 1871 1868 ] final -114.03 input   59.98 | X-H torsion
[ 9510 9468 9467 9465 ] final   18.73 input   60.02 | X-H torsion
[ 3466 3411 3410 3409 ] final   38.41 input   59.97 | X-H torsion
[ 16458 9819 9818 9817 ] final  -34.15 input    0.00 | X-H torsion
[ 16464 9874 9873 9872 ] final -167.81 input    0.00 | X-H torsion
[ 16467 9762 9761 9760 ] final  -63.73 input    0.00 | X-H torsion
[ 16495 9617 9616 9615 ] final -115.79 input    0.00 | X-H torsion
[ 16497 9705 9704 9703 ] final  107.91 input    0.00 | X-H torsion
[ 16500 11530 11529 11528 ] final    9.38 input    0.00 | X-H torsion
[ 16504 11361 11360 11359 ] final  -94.52 input    0.00 | X-H torsion
[ 16511 11318 11317 11316 ] final   62.74 input    0.00 | X-H torsion
[ 16520 11590 11589 11588 ] final   31.77 input    0.00 | X-H torsion
[ 16523 11756 11755 11754 ] final  114.82 input    0.00 | X-H torsion
[ 16543 11419 11418 11417 ] final -162.20 input   -0.00 | X-H torsion
[ 16547 11469 11468 11467 ] final   79.57 input    0.00 | X-H torsion
[ 16571 11269 11268 11267 ] final  165.37 input   -0.00 | X-H torsion

> <Gold.Protein.ActiveResidues>
 THR48   LEU49   GLY50   THR51   GLY52   SER53   PHE54   GLY55   ARG56   VAL57  
 LYS78   LYS81   LEU82   LYS83   GLN84   HIS87   GLU127  PHE129  SER130  LEU132 
 ARG133  ARG134  ILE135  GLY136  ARG137  ARG165  ASP166  LEU167  LYS168  PRO169 
 GLU170  ASN171  LEU172  LEU173  THR183  ASP184  GLY186  PHE187  TPO197  LEU198 
 CYS199  GLY200  THR201  PRO202  GLU203  TYR204  LEU205  PRO207  ILE209  ILE210 
 LEU211  SER212  LYS213  VAL226  LEU227  TYR229  GLU230  ALA233  GLY234  TYR235 
 PRO236  PRO237  PHE238  PHE239  ALA240  ASP241  GLN242  PRO243  ILE244  GLN245 
 ILE246  TYR247  GLU248  LYS249  ILE250  VAL251  SER252  ARG256  PHE257  PRO258 
 SER259  PHE327  ASP328  TYR330 

> <Gold.Protein.RotatedAtoms>
   15.5027    6.6011   10.3600 H   0  0  0  0  0  0  0  0  0  0  0  0  # atno 1829 bound_to 1810
    5.9338    8.4321    8.5550 H   0  0  0  0  0  0  0  0  0  0  0  0  # atno 1885 bound_to 1872
    0.4201   10.7101   -6.1567 H   0  0  0  0  0  0  0  0  0  0  0  0  # atno 3466 bound_to 3411
    0.4929   12.2557   -6.7515 H   0  0  0  0  0  0  0  0  0  0  0  0  # atno 3467 bound_to 3411
    1.8569   11.5351   -6.1448 H   0  0  0  0  0  0  0  0  0  0  0  0  # atno 3468 bound_to 3411
   17.2491   12.0319   24.7114 H   0  0  0  0  0  0  0  0  0  0  0  0  # atno 5787 bound_to 5760
    6.7071   13.4034   14.0214 H   0  0  0  0  0  0  0  0  0  0  0  0  # atno 7768 bound_to 7713
    7.8452   12.7040   15.0025 H   0  0  0  0  0  0  0  0  0  0  0  0  # atno 7769 bound_to 7713
    6.3330   13.0372   15.5938 H   0  0  0  0  0  0  0  0  0  0  0  0  # atno 7770 bound_to 7713
   15.2938   18.0080   14.2522 H   0  0  0  0  0  0  0  0  0  0  0  0  # atno 8490 bound_to 8455
    5.1122   15.0300   14.4335 H   0  0  0  0  0  0  0  0  0  0  0  0  # atno 9362 bound_to 9334
    4.4595   16.8088   22.5821 H   0  0  0  0  0  0  0  0  0  0  0  0  # atno 9510 bound_to 9468
    7.0125    7.6754   41.5544 H   0  0  0  0  0  0  0  0  0  0  0  0  # atno 9775 bound_to 9759
    5.7442    8.5362   40.0750 H   0  0  0  0  0  0  0  0  0  0  0  0  # atno 9832 bound_to 9816
    3.6124    9.7722   41.1446 H   0  0  0  0  0  0  0  0  0  0  0  0  # atno 9883 bound_to 9871
    4.9800   13.8212   39.7984 H   0  0  0  0  0  0  0  0  0  0  0  0  # atno 9887 bound_to 9876
    3.8390    9.6952   43.7674 H   0  0  0  0  0  0  0  0  0  0  0  0  # atno 9925 bound_to 9907
   -1.0928    7.0157   41.8417 H   0  0  0  0  0  0  0  0  0  0  0  0  # atno 9935 bound_to 9915
   -2.2360    6.8024   43.0232 H   0  0  0  0  0  0  0  0  0  0  0  0  # atno 9936 bound_to 9915
   -1.1915    8.0869   43.1033 H   0  0  0  0  0  0  0  0  0  0  0  0  # atno 9937 bound_to 9915
   -3.9175   17.0547   31.2845 H   0  0  0  0  0  0  0  0  0  0  0  0  # atno 10746 bound_to 10695
   -3.6549   14.2130   33.2041 H   0  0  0  0  0  0  0  0  0  0  0  0  # atno 10984 bound_to 10935
   11.1089    5.1264   29.1010 H   0  0  0  0  0  0  0  0  0  0  0  0  # atno 11374 bound_to 11358
   10.3939    3.0337   29.8953 H   0  0  0  0  0  0  0  0  0  0  0  0  # atno 11434 bound_to 11416
    9.5332    1.2131   31.1565 H   0  0  0  0  0  0  0  0  0  0  0  0  # atno 11482 bound_to 11466
   10.3389    3.1757   33.4314 H   0  0  0  0  0  0  0  0  0  0  0  0  # atno 11551 bound_to 11527
   13.2148    7.8025   35.4075 H   0  0  0  0  0  0  0  0  0  0  0  0  # atno 11559 bound_to 11538
   -2.7136   11.3448   12.7871 H   0  0  0  0  0  0  0  0  0  0  0  0  # atno 11576 bound_to 11526
    7.6822    1.3064   33.6456 H   0  0  0  0  0  0  0  0  0  0  0  0  # atno 11605 bound_to 11587
    7.6912   -0.5254   33.2588 H   0  0  0  0  0  0  0  0  0  0  0  0  # atno 11650 bound_to 11632
   -8.6148    9.2062   26.9829 H   0  0  0  0  0  0  0  0  0  0  0  0  # atno 11686 bound_to 11631
   -9.3102    7.9978   26.0875 H   0  0  0  0  0  0  0  0  0  0  0  0  # atno 11687 bound_to 11631
   -7.9152    8.7201   25.5608 H   0  0  0  0  0  0  0  0  0  0  0  0  # atno 11688 bound_to 11631
    6.9411   -1.6997   36.0663 H   0  0  0  0  0  0  0  0  0  0  0  0  # atno 11713 bound_to 11697
    6.3726    0.5363   38.2052 H   0  0  0  0  0  0  0  0  0  0  0  0  # atno 11767 bound_to 11753
    3.6376   -0.8930   36.2892 H   0  0  0  0  0  0  0  0  0  0  0  0  # atno 11812 bound_to 11800
   15.4261    9.0400   17.2462 H   0  0  0  0  0  0  0  0  0  0  0  0  # atno 15484 bound_to 15454
    1.5585    9.9504   40.3131 LP  0  0  0  0  0  0  0  0  0  0  0  0  # atno 16458 bound_to 9819
    2.0066   10.5088   41.8902 LP  0  0  0  0  0  0  0  0  0  0  0  0  # atno 16459 bound_to 9819
   -2.6797   15.5019   33.3938 LP  0  0  0  0  0  0  0  0  0  0  0  0  # atno 16460 bound_to 10935
   -2.4558   14.1642   34.3033 LP  0  0  0  0  0  0  0  0  0  0  0  0  # atno 16461 bound_to 10935
    5.0919    6.9214   40.2048 LP  0  0  0  0  0  0  0  0  0  0  0  0  # atno 16462 bound_to 9816
    5.3447   10.0000   41.0857 LP  0  0  0  0  0  0  0  0  0  0  0  0  # atno 16463 bound_to 9871
    2.1042   12.5488   44.4011 LP  0  0  0  0  0  0  0  0  0  0  0  0  # atno 16464 bound_to 9874
    2.6222   13.3160   42.9372 LP  0  0  0  0  0  0  0  0  0  0  0  0  # atno 16465 bound_to 9874
    2.9899   11.1346   43.2556 LP  0  0  0  0  0  0  0  0  0  0  0  0  # atno 16466 bound_to 9907
    6.2417   10.0164   38.4661 LP  0  0  0  0  0  0  0  0  0  0  0  0  # atno 16467 bound_to 9762
    5.0678    9.0206   37.6721 LP  0  0  0  0  0  0  0  0  0  0  0  0  # atno 16468 bound_to 9762
    4.7697   12.2627   39.3800 LP  0  0  0  0  0  0  0  0  0  0  0  0  # atno 16469 bound_to 9876
    5.8635   12.6633   40.5243 LP  0  0  0  0  0  0  0  0  0  0  0  0  # atno 16470 bound_to 9876
   -4.2152   16.1072   29.9961 LP  0  0  0  0  0  0  0  0  0  0  0  0  # atno 16477 bound_to 10695
   -5.1644   17.4010   30.2989 LP  0  0  0  0  0  0  0  0  0  0  0  0  # atno 16478 bound_to 10695
    5.8478    6.1729   41.5478 LP  0  0  0  0  0  0  0  0  0  0  0  0  # atno 16495 bound_to 9617
    4.5574    5.0637   41.2248 LP  0  0  0  0  0  0  0  0  0  0  0  0  # atno 16496 bound_to 9617
    8.0605   10.1646   40.6458 LP  0  0  0  0  0  0  0  0  0  0  0  0  # atno 16497 bound_to 9705
    6.6102   10.0844   41.5893 LP  0  0  0  0  0  0  0  0  0  0  0  0  # atno 16498 bound_to 9705
    8.5967    7.1557   41.0259 LP  0  0  0  0  0  0  0  0  0  0  0  0  # atno 16499 bound_to 9759
    6.8390    2.4935   36.3749 LP  0  0  0  0  0  0  0  0  0  0  0  0  # atno 16500 bound_to 11530
    5.8454    1.3576   35.5250 LP  0  0  0  0  0  0  0  0  0  0  0  0  # atno 16501 bound_to 11530
    7.8757    3.0769   31.9213 LP  0  0  0  0  0  0  0  0  0  0  0  0  # atno 16504 bound_to 11361
    6.8802    3.6768   30.6371 LP  0  0  0  0  0  0  0  0  0  0  0  0  # atno 16505 bound_to 11361
    6.8317    2.7406   33.1121 LP  0  0  0  0  0  0  0  0  0  0  0  0  # atno 16508 bound_to 11587
   12.3983    8.9636   34.6121 LP  0  0  0  0  0  0  0  0  0  0  0  0  # atno 16509 bound_to 11538
   13.2620    7.8539   33.7819 LP  0  0  0  0  0  0  0  0  0  0  0  0  # atno 16510 bound_to 11538
   11.3445    4.5905   32.9415 LP  0  0  0  0  0  0  0  0  0  0  0  0  # atno 16511 bound_to 11318
   10.7559    3.2676   31.9910 LP  0  0  0  0  0  0  0  0  0  0  0  0  # atno 16512 bound_to 11318
   11.4655    4.9293   30.7911 LP  0  0  0  0  0  0  0  0  0  0  0  0  # atno 16513 bound_to 11358
    8.8111    3.6191   29.4460 LP  0  0  0  0  0  0  0  0  0  0  0  0  # atno 16514 bound_to 11416
    9.4409    1.6941   33.2365 LP  0  0  0  0  0  0  0  0  0  0  0  0  # atno 16515 bound_to 11527
    3.9034   -0.6444   34.3368 LP  0  0  0  0  0  0  0  0  0  0  0  0  # atno 16520 bound_to 11590
    5.0695   -1.3835   35.3827 LP  0  0  0  0  0  0  0  0  0  0  0  0  # atno 16521 bound_to 11590
    3.7118   -1.3217   37.9821 LP  0  0  0  0  0  0  0  0  0  0  0  0  # atno 16522 bound_to 11800
    1.5292   -0.9912   38.9464 LP  0  0  0  0  0  0  0  0  0  0  0  0  # atno 16523 bound_to 11756
    2.8658   -1.3888   39.9737 LP  0  0  0  0  0  0  0  0  0  0  0  0  # atno 16524 bound_to 11756
    8.7257   -0.2969   32.3268 LP  0  0  0  0  0  0  0  0  0  0  0  0  # atno 16543 bound_to 11419
    7.8972   -0.4803   30.8168 LP  0  0  0  0  0  0  0  0  0  0  0  0  # atno 16544 bound_to 11419
    6.0229   -0.5757   33.7695 LP  0  0  0  0  0  0  0  0  0  0  0  0  # atno 16545 bound_to 11632
   11.1980    1.4024   30.6465 LP  0  0  0  0  0  0  0  0  0  0  0  0  # atno 16546 bound_to 11466
    9.7801    0.2106   35.2704 LP  0  0  0  0  0  0  0  0  0  0  0  0  # atno 16547 bound_to 11469
    8.4116    0.1624   34.2098 LP  0  0  0  0  0  0  0  0  0  0  0  0  # atno 16548 bound_to 11469
    5.6452   -0.4704   36.9758 LP  0  0  0  0  0  0  0  0  0  0  0  0  # atno 16549 bound_to 11753
    8.3666   -0.7342   35.7243 LP  0  0  0  0  0  0  0  0  0  0  0  0  # atno 16550 bound_to 11697
   -3.4427   11.6288   11.3601 LP  0  0  0  0  0  0  0  0  0  0  0  0  # atno 16565 bound_to 11526
   -3.3871   10.1128   11.9644 LP  0  0  0  0  0  0  0  0  0  0  0  0  # atno 16566 bound_to 11526
    4.0926   15.3349   13.2020 LP  0  0  0  0  0  0  0  0  0  0  0  0  # atno 16567 bound_to 9334
    4.6184   13.8128   13.4725 LP  0  0  0  0  0  0  0  0  0  0  0  0  # atno 16568 bound_to 9334
   12.3255    2.7873   30.1966 LP  0  0  0  0  0  0  0  0  0  0  0  0  # atno 16571 bound_to 11269
   11.9877    2.1857   28.6079 LP  0  0  0  0  0  0  0  0  0  0  0  0  # atno 16572 bound_to 11269
   16.2458    8.7484   18.6211 LP  0  0  0  0  0  0  0  0  0  0  0  0  # atno 16581 bound_to 15454
   14.8938    7.8996   18.2773 LP  0  0  0  0  0  0  0  0  0  0  0  0  # atno 16582 bound_to 15454
   16.2979   13.1193   25.4598 LP  0  0  0  0  0  0  0  0  0  0  0  0  # atno 16589 bound_to 5760
   16.1773   12.8981   23.8463 LP  0  0  0  0  0  0  0  0  0  0  0  0  # atno 16590 bound_to 5760
   14.7543    5.2748   10.9343 LP  0  0  0  0  0  0  0  0  0  0  0  0  # atno 16601 bound_to 1810
   16.3609    5.4686   11.1538 LP  0  0  0  0  0  0  0  0  0  0  0  0  # atno 16602 bound_to 1810
   14.0730   19.0625   14.4654 LP  0  0  0  0  0  0  0  0  0  0  0  0  # atno 16609 bound_to 8455
   15.3325   19.0462   15.5046 LP  0  0  0  0  0  0  0  0  0  0  0  0  # atno 16610 bound_to 8455
    6.3930    9.4584    9.7312 LP  0  0  0  0  0  0  0  0  0  0  0  0  # atno 16611 bound_to 1872
    7.0103    7.9476    9.6748 LP  0  0  0  0  0  0  0  0  0  0  0  0  # atno 16612 bound_to 1872
    3.4615   17.9340   23.2026 LP  0  0  0  0  0  0  0  0  0  0  0  0  # atno 16621 bound_to 9468
    4.8561   18.3835   22.4817 LP  0  0  0  0  0  0  0  0  0  0  0  0  # atno 16622 bound_to 9468

> <Gold.Score>
     Fitness  S(hb_ext) S(vdw_ext)  S(hb_int)    S(int)      intcor
     28.02       0.00      20.84       0.00      -0.63      -0.76

> <Gold.Goldscore.Fitness>
28.0227

> <Gold.Goldscore.Internal.Vdw>
-0.9261

> <Gold.Goldscore.Internal.Torsion>
-0.4606

> <Gold.Goldscore.External.Vdw>
20.8370

> <Gold.Goldscore.Internal.HBond>
0.0000

> <Gold.Goldscore.External.HBond>
0.0000

> <Gold.Goldscore.Internal.Correction>
-0.7585

> <Gold.Goldscore.Internal.Vdw.Weighted>
-0.9261

> <Gold.Goldscore.Internal.Torsion.Weighted>
-0.4606

> <Gold.Goldscore.External.Vdw.Weighted>
28.6508

> <Gold.Goldscore.Internal.HBond.Weighted>
0.0000

> <Gold.Goldscore.External.HBond.Weighted>
0.0000

> <Gold.Goldscore.Internal.Correction.Weighted>
-0.7585

> <Gold.Rescore>
     Score     S(PLP)   S(hbond)     S(cho)   S(metal)  DE(clash)   DE(tors)     intcor
     12.73     -11.12       0.91       0.00       0.00       0.00       0.55       ----

> <Gold.PLP.Fitness>
12.7285

> <Gold.PLP.PLP>
-11.1222

> <Gold.PLP.part.hbond>
-2.6570

> <Gold.PLP.part.metal>
0.0000

> <Gold.PLP.part.buried>
12.0893

> <Gold.PLP.part.nonpolar>
-28.6015

> <Gold.PLP.part.repulsive>
8.1293

> <Gold.PLP.ligand.clash>
0.0000

> <Gold.PLP.ligand.torsion>
0.5548

> <Gold.PLP.Chemscore.Hbond>
0.9053

> <Gold.PLP.Chemscore.CHOScore>
0.0000

> <Gold.PLP.Chemscore.Metal>
0.0000

> <Gold.Chemscore.Hbonds>
donor molecule, donor type, donor heavy atom, donor atom, acceptor molecule, acceptor atom, score
      L1  H     8    22       P1  7865  0.05

> <Gold.PLP.Chemscore.Internal.Correction>
   9.000000E+99

