#       Name:                CT1002167954
#       Creating user name   hitesit
#       Creation time:       Sun Apr 16 22:53:18 2023


#       File generated by GOLD software.
#

@<TRIPOS>MOLECULE
CT1002167954|ligand_prepared|mol2|1|dock5
    29    30     1
SMALL
NO_CHARGES


@<TRIPOS>ATOM
      1 C1           9.0713  12.7763  11.2268 C.3            1 RES1               0.0000
      2 C2           7.6558  12.3756  11.6899 C.ar           1 RES1               0.0000
      3 C3           9.4371  14.0354  12.0073 C.2            1 RES1               0.0000
      4 C4           9.9704  11.5800  11.5191 C.2            1 RES1               0.0000
      5 C5           9.1691  13.0894   9.7156 C.3            1 RES1               0.0000
      6 C6           6.5327  13.0056  11.1621 C.ar           1 RES1               0.0000
      7 C7           7.4573  11.3777  12.6404 C.ar           1 RES1               0.0000
      8 N8          10.3481  13.9120  13.0147 N.am           1 RES1               0.0000
      9 O9           8.9048  15.1123  11.7686 O.2            1 RES1               0.0000
     10 N10         10.9531  11.7306  12.4621 N.am           1 RES1               0.0000
     11 O11          9.8259  10.5033  10.9533 O.2            1 RES1               0.0000
     12 C12         10.5916  13.0813   9.1785 C.3            1 RES1               0.0000
     13 C13          5.2573  12.6490  11.5676 C.ar           1 RES1               0.0000
     14 C14          6.1810  11.0227  13.0447 C.ar           1 RES1               0.0000
     15 C15         11.1630  12.8329  13.2452 C.2            1 RES1               0.0000
     16 C16          5.0805  11.6572  12.5087 C.ar           1 RES1               0.0000
     17 O17         12.0331  12.8732  14.1103 O.2            1 RES1               0.0000
     18 H18          8.5786  12.3485   9.1626 H              1 RES1               0.0000
     19 H19          8.7273  14.0763   9.5302 H              1 RES1               0.0000
     20 H20          6.6523  13.7901  10.4223 H              1 RES1               0.0000
     21 H21          8.3084  10.8657  13.0765 H              1 RES1               0.0000
     22 H22         10.4311  14.6944  13.6559 H              1 RES1               0.0000
     23 H23         11.5870  10.9486  12.5924 H              1 RES1               0.0000
     24 H24         10.6034  13.3068   8.1142 H              1 RES1               0.0000
     25 H25         11.2009  13.8242   9.6890 H              1 RES1               0.0000
     26 H26         11.0531  12.1067   9.3236 H              1 RES1               0.0000
     27 H27          4.3946  13.1522  11.1438 H              1 RES1               0.0000
     28 H28          6.0466  10.2420  13.7861 H              1 RES1               0.0000
     29 H29          4.0813  11.3777  12.8259 H              1 RES1               0.0000
@<TRIPOS>BOND
    1    1    2 1     
    2    1    3 1     
    3    1    4 1     
    4    1    5 1     
    5    2    6 ar    
    6    2    7 ar    
    7    3    8 1     
    8    3    9 2     
    9    4   10 1     
   10    4   11 2     
   11    5   12 1     
   12    5   18 1     
   13    5   19 1     
   14    6   13 ar    
   15    6   20 1     
   16    7   14 ar    
   17    7   21 1     
   18    8   15 1     
   19    8   22 1     
   20   10   15 1     
   21   10   23 1     
   22   12   24 1     
   23   12   25 1     
   24   12   26 1     
   25   13   16 ar    
   26   13   27 1     
   27   14   16 ar    
   28   14   28 1     
   29   15   17 2     
   30   16   29 1     
@<TRIPOS>SUBSTRUCTURE
      1 RES1           1
@<TRIPOS>SET
DONOR_HYDROGENS      STATIC     ATOMS    <user>   **** ""
2 22 23
ATOM$RED        STATIC     ATOMS    COLORGROUP SYSTEM
2 22 23
@<TRIPOS>COMMENT
> <Gold.Version>
2022.3.0

> <Gold.Id.Protein>
unknown|3mvj_clean|pdb

> <Gold.Protein.RotatedTorsions>
[ 9935 9915 9914 9913 ] final   39.89 input   59.98 | X-H torsion
[ 10984 10935 10934 10932 ] final  -46.83 input   60.03 | X-H torsion
[ 9832 9816 9817 9818 ] final -160.86 input   89.09 | X-H torsion
[ 9883 9871 9872 9873 ] final   -0.83 input -126.12 | X-H torsion
[ 9925 9907 9908 9909 ] final -159.90 input  109.17 | X-H torsion
[ 9887 9876 9875 9872 ] final   11.07 input   59.96 | X-H torsion
[ 10746 10695 10694 10692 ] final   58.32 input   59.99 | X-H torsion
[ 11686 11631 11630 11629 ] final  -13.55 input   60.02 | X-H torsion
[ 9775 9759 9760 9761 ] final  154.13 input  126.36 | X-H torsion
[ 11605 11587 11588 11589 ] final  -11.52 input  114.14 | X-H torsion
[ 11559 11538 11537 11535 ] final  -24.74 input   60.01 | X-H torsion
[ 11374 11358 11359 11360 ] final  -77.02 input   98.08 | X-H torsion
[ 11434 11416 11417 11418 ] final  -99.76 input  102.35 | X-H torsion
[ 11551 11527 11528 11529 ] final   47.68 input  127.83 | X-H torsion
[ 11812 11800 11801 11802 ] final  -42.87 input  127.47 | X-H torsion
[ 11650 11632 11633 11634 ] final  -20.78 input  113.96 | X-H torsion
[ 11482 11466 11467 11468 ] final   -5.93 input  126.08 | X-H torsion
[ 11767 11753 11754 11755 ] final -126.31 input  105.73 | X-H torsion
[ 11713 11697 11698 11699 ] final  178.11 input  116.95 | X-H torsion
[ 11576 11526 11525 11523 ] final  164.56 input   60.00 | X-H torsion
[ 9362 9334 9332 9329 ] final -120.63 input   60.01 | X-H torsion
[ 7768 7713 7712 7711 ] final  -91.39 input   60.03 | X-H torsion
[ 15484 15454 15453 15451 ] final  -76.08 input   59.98 | X-H torsion
[ 5787 5760 5759 5756 ] final   74.47 input   59.99 | X-H torsion
[ 1829 1810 1808 1805 ] final  -72.76 input   60.00 | X-H torsion
[ 8490 8455 8453 8450 ] final -126.28 input   60.02 | X-H torsion
[ 1885 1872 1871 1868 ] final   96.36 input   59.98 | X-H torsion
[ 9510 9468 9467 9465 ] final  144.13 input   60.02 | X-H torsion
[ 3466 3411 3410 3409 ] final   19.53 input   59.97 | X-H torsion
[ 16458 9819 9818 9817 ] final -101.36 input    0.00 | X-H torsion
[ 16464 9874 9873 9872 ] final  -43.81 input    0.00 | X-H torsion
[ 16467 9762 9761 9760 ] final   21.26 input    0.00 | X-H torsion
[ 16495 9617 9616 9615 ] final -178.00 input    0.00 | X-H torsion
[ 16497 9705 9704 9703 ] final  -63.77 input    0.00 | X-H torsion
[ 16500 11530 11529 11528 ] final  135.50 input    0.00 | X-H torsion
[ 16504 11361 11360 11359 ] final   32.95 input    0.00 | X-H torsion
[ 16511 11318 11317 11316 ] final  -91.17 input    0.00 | X-H torsion
[ 16520 11590 11589 11588 ] final  -51.54 input    0.00 | X-H torsion
[ 16523 11756 11755 11754 ] final -141.08 input    0.00 | X-H torsion
[ 16543 11419 11418 11417 ] final -109.06 input   -0.00 | X-H torsion
[ 16547 11469 11468 11467 ] final  -10.87 input    0.00 | X-H torsion
[ 16571 11269 11268 11267 ] final   74.93 input   -0.00 | X-H torsion

> <Gold.Protein.ActiveResidues>
 THR48   LEU49   GLY50   THR51   GLY52   SER53   PHE54   GLY55   ARG56   VAL57  
 LYS78   LYS81   LEU82   LYS83   GLN84   HIS87   GLU127  PHE129  SER130  LEU132 
 ARG133  ARG134  ILE135  GLY136  ARG137  ARG165  ASP166  LEU167  LYS168  PRO169 
 GLU170  ASN171  LEU172  LEU173  THR183  ASP184  GLY186  PHE187  TPO197  LEU198 
 CYS199  GLY200  THR201  PRO202  GLU203  TYR204  LEU205  PRO207  ILE209  ILE210 
 LEU211  SER212  LYS213  VAL226  LEU227  TYR229  GLU230  ALA233  GLY234  TYR235 
 PRO236  PRO237  PHE238  PHE239  ALA240  ASP241  GLN242  PRO243  ILE244  GLN245 
 ILE246  TYR247  GLU248  LYS249  ILE250  VAL251  SER252  ARG256  PHE257  PRO258 
 SER259  PHE327  ASP328  TYR330 

> <Gold.Protein.RotatedAtoms>
   14.6733    5.9927   10.5260 H   0  0  0  0  0  0  0  0  0  0  0  0  # atno 1829 bound_to 1810
    6.7076    9.2066    9.9920 H   0  0  0  0  0  0  0  0  0  0  0  0  # atno 1885 bound_to 1872
    0.7020   10.6182   -6.0538 H   0  0  0  0  0  0  0  0  0  0  0  0  # atno 3466 bound_to 3411
    0.2474   12.0609   -6.7321 H   0  0  0  0  0  0  0  0  0  0  0  0  # atno 3467 bound_to 3411
    1.8205   11.8218   -6.2671 H   0  0  0  0  0  0  0  0  0  0  0  0  # atno 3468 bound_to 3411
   16.7502   12.7026   25.5920 H   0  0  0  0  0  0  0  0  0  0  0  0  # atno 5787 bound_to 5760
    7.7736   12.6652   15.2025 H   0  0  0  0  0  0  0  0  0  0  0  0  # atno 7768 bound_to 7713
    6.2017   13.1286   15.4490 H   0  0  0  0  0  0  0  0  0  0  0  0  # atno 7769 bound_to 7713
    6.9088   13.3512   13.9664 H   0  0  0  0  0  0  0  0  0  0  0  0  # atno 7770 bound_to 7713
   15.5516   18.8062   15.4044 H   0  0  0  0  0  0  0  0  0  0  0  0  # atno 8490 bound_to 8455
    5.0550   13.9968   14.0858 H   0  0  0  0  0  0  0  0  0  0  0  0  # atno 9362 bound_to 9334
    4.7937   18.4368   22.5157 H   0  0  0  0  0  0  0  0  0  0  0  0  # atno 9510 bound_to 9468
    8.2925    6.6971   41.0695 H   0  0  0  0  0  0  0  0  0  0  0  0  # atno 9775 bound_to 9759
    5.2950    7.2703   39.3923 H   0  0  0  0  0  0  0  0  0  0  0  0  # atno 9832 bound_to 9816
    3.8939    9.5102   41.6501 H   0  0  0  0  0  0  0  0  0  0  0  0  # atno 9883 bound_to 9871
    5.5674   12.0940   40.1575 H   0  0  0  0  0  0  0  0  0  0  0  0  # atno 9887 bound_to 9876
    2.7084   10.2342   43.0032 H   0  0  0  0  0  0  0  0  0  0  0  0  # atno 9925 bound_to 9907
   -0.9168    8.0517   42.7285 H   0  0  0  0  0  0  0  0  0  0  0  0  # atno 9935 bound_to 9915
   -1.4274    6.6994   41.9169 H   0  0  0  0  0  0  0  0  0  0  0  0  # atno 9936 bound_to 9915
   -2.1770    7.1538   43.3236 H   0  0  0  0  0  0  0  0  0  0  0  0  # atno 9937 bound_to 9915
   -3.7394   16.7328   31.1466 H   0  0  0  0  0  0  0  0  0  0  0  0  # atno 10746 bound_to 10695
   -3.0585   15.3923   33.1107 H   0  0  0  0  0  0  0  0  0  0  0  0  # atno 10984 bound_to 10935
   11.4783    4.7295   30.7332 H   0  0  0  0  0  0  0  0  0  0  0  0  # atno 11374 bound_to 11358
    8.7912    3.6065   29.8995 H   0  0  0  0  0  0  0  0  0  0  0  0  # atno 11434 bound_to 11416
    9.5968    1.5769   31.2271 H   0  0  0  0  0  0  0  0  0  0  0  0  # atno 11482 bound_to 11466
    9.2995    2.3893   32.6865 H   0  0  0  0  0  0  0  0  0  0  0  0  # atno 11551 bound_to 11527
   13.2125    7.8054   35.4096 H   0  0  0  0  0  0  0  0  0  0  0  0  # atno 11559 bound_to 11538
   -3.5418   10.2662   11.6354 H   0  0  0  0  0  0  0  0  0  0  0  0  # atno 11576 bound_to 11526
    7.5290    1.4657   33.9984 H   0  0  0  0  0  0  0  0  0  0  0  0  # atno 11605 bound_to 11587
    6.4936   -0.2588   34.2662 H   0  0  0  0  0  0  0  0  0  0  0  0  # atno 11650 bound_to 11632
   -7.8383    8.8874   25.7057 H   0  0  0  0  0  0  0  0  0  0  0  0  # atno 11686 bound_to 11631
   -8.8100    9.0877   27.0329 H   0  0  0  0  0  0  0  0  0  0  0  0  # atno 11687 bound_to 11631
   -9.1918    7.9484   25.8920 H   0  0  0  0  0  0  0  0  0  0  0  0  # atno 11688 bound_to 11631
    8.5693   -1.1830   35.8495 H   0  0  0  0  0  0  0  0  0  0  0  0  # atno 11713 bound_to 11697
    6.3785    0.2456   38.3540 H   0  0  0  0  0  0  0  0  0  0  0  0  # atno 11767 bound_to 11753
    3.3885   -1.0766   37.9822 H   0  0  0  0  0  0  0  0  0  0  0  0  # atno 11812 bound_to 11800
   15.6835    8.1275   18.8582 H   0  0  0  0  0  0  0  0  0  0  0  0  # atno 15484 bound_to 15454
    1.8834   10.8346   40.4903 LP  0  0  0  0  0  0  0  0  0  0  0  0  # atno 16458 bound_to 9819
    1.6817    9.6245   41.7130 LP  0  0  0  0  0  0  0  0  0  0  0  0  # atno 16459 bound_to 9819
   -2.2366   14.5977   34.2689 LP  0  0  0  0  0  0  0  0  0  0  0  0  # atno 16460 bound_to 10935
   -3.4996   13.8809   33.5223 LP  0  0  0  0  0  0  0  0  0  0  0  0  # atno 16461 bound_to 10935
    5.5325    8.1630   40.8744 LP  0  0  0  0  0  0  0  0  0  0  0  0  # atno 16462 bound_to 9816
    5.0703   10.2553   40.5930 LP  0  0  0  0  0  0  0  0  0  0  0  0  # atno 16463 bound_to 9871
    3.0789   13.4155   43.6025 LP  0  0  0  0  0  0  0  0  0  0  0  0  # atno 16464 bound_to 9874
    1.6475   12.4494   43.7358 LP  0  0  0  0  0  0  0  0  0  0  0  0  # atno 16465 bound_to 9874
    4.0935   10.6084   44.0015 LP  0  0  0  0  0  0  0  0  0  0  0  0  # atno 16466 bound_to 9907
    6.3293    9.2126   37.6203 LP  0  0  0  0  0  0  0  0  0  0  0  0  # atno 16467 bound_to 9762
    4.9802    9.8244   38.5178 LP  0  0  0  0  0  0  0  0  0  0  0  0  # atno 16468 bound_to 9762
    5.5064   13.7134   40.3060 LP  0  0  0  0  0  0  0  0  0  0  0  0  # atno 16469 bound_to 9876
    4.5354   12.9516   39.2367 LP  0  0  0  0  0  0  0  0  0  0  0  0  # atno 16470 bound_to 9876
   -4.5304   16.2552   29.8078 LP  0  0  0  0  0  0  0  0  0  0  0  0  # atno 16477 bound_to 10695
   -5.0287   17.5775   30.6262 LP  0  0  0  0  0  0  0  0  0  0  0  0  # atno 16478 bound_to 10695
    5.0871    6.1991   42.0182 LP  0  0  0  0  0  0  0  0  0  0  0  0  # atno 16495 bound_to 9617
    5.3180    5.0375   40.7544 LP  0  0  0  0  0  0  0  0  0  0  0  0  # atno 16496 bound_to 9617
    6.6794   10.1314   41.6830 LP  0  0  0  0  0  0  0  0  0  0  0  0  # atno 16497 bound_to 9705
    7.9913   10.1176   40.5521 LP  0  0  0  0  0  0  0  0  0  0  0  0  # atno 16498 bound_to 9705
    7.3512    8.1076   41.4977 LP  0  0  0  0  0  0  0  0  0  0  0  0  # atno 16499 bound_to 9759
    5.6019    2.1034   35.5373 LP  0  0  0  0  0  0  0  0  0  0  0  0  # atno 16500 bound_to 11530
    7.0825    1.7477   36.3626 LP  0  0  0  0  0  0  0  0  0  0  0  0  # atno 16501 bound_to 11530
    7.0881    4.1858   31.1712 LP  0  0  0  0  0  0  0  0  0  0  0  0  # atno 16504 bound_to 11361
    7.6678    2.5679   31.3872 LP  0  0  0  0  0  0  0  0  0  0  0  0  # atno 16505 bound_to 11361
    6.9800    2.5865   32.7708 LP  0  0  0  0  0  0  0  0  0  0  0  0  # atno 16508 bound_to 11587
   12.3984    8.9638   34.6079 LP  0  0  0  0  0  0  0  0  0  0  0  0  # atno 16509 bound_to 11538
   13.2641    7.8509   33.7840 LP  0  0  0  0  0  0  0  0  0  0  0  0  # atno 16510 bound_to 11538
   11.1218    3.1595   32.0757 LP  0  0  0  0  0  0  0  0  0  0  0  0  # atno 16511 bound_to 11318
   10.9786    4.6987   32.8569 LP  0  0  0  0  0  0  0  0  0  0  0  0  # atno 16512 bound_to 11318
   11.0935    5.3290   29.1474 LP  0  0  0  0  0  0  0  0  0  0  0  0  # atno 16513 bound_to 11358
   10.3843    3.0568   29.4419 LP  0  0  0  0  0  0  0  0  0  0  0  0  # atno 16514 bound_to 11416
   10.4711    2.4735   33.9748 LP  0  0  0  0  0  0  0  0  0  0  0  0  # atno 16515 bound_to 11527
    4.4360   -0.2595   35.2820 LP  0  0  0  0  0  0  0  0  0  0  0  0  # atno 16520 bound_to 11590
    4.5369   -1.7684   34.4375 LP  0  0  0  0  0  0  0  0  0  0  0  0  # atno 16521 bound_to 11590
    3.9549   -1.1425   36.3300 LP  0  0  0  0  0  0  0  0  0  0  0  0  # atno 16522 bound_to 11800
    2.3317   -2.0332   39.3150 LP  0  0  0  0  0  0  0  0  0  0  0  0  # atno 16523 bound_to 11756
    2.0633   -0.3468   39.6051 LP  0  0  0  0  0  0  0  0  0  0  0  0  # atno 16524 bound_to 11756
    8.1111    0.1604   32.2109 LP  0  0  0  0  0  0  0  0  0  0  0  0  # atno 16543 bound_to 11419
    8.5119   -0.9377   30.9328 LP  0  0  0  0  0  0  0  0  0  0  0  0  # atno 16544 bound_to 11419
    7.2004   -0.8379   32.7790 LP  0  0  0  0  0  0  0  0  0  0  0  0  # atno 16545 bound_to 11632
   11.1365    1.0514   30.5784 LP  0  0  0  0  0  0  0  0  0  0  0  0  # atno 16546 bound_to 11466
    9.4526   -0.4676   34.2986 LP  0  0  0  0  0  0  0  0  0  0  0  0  # atno 16547 bound_to 11469
    8.7391    0.8405   35.1816 LP  0  0  0  0  0  0  0  0  0  0  0  0  # atno 16548 bound_to 11469
    5.6394   -0.1865   36.8305 LP  0  0  0  0  0  0  0  0  0  0  0  0  # atno 16549 bound_to 11753
    6.8164   -1.2261   35.9307 LP  0  0  0  0  0  0  0  0  0  0  0  0  # atno 16550 bound_to 11697
   -2.7371   10.9594   12.8683 LP  0  0  0  0  0  0  0  0  0  0  0  0  # atno 16565 bound_to 11526
   -3.2586   11.8686   11.6162 LP  0  0  0  0  0  0  0  0  0  0  0  0  # atno 16566 bound_to 11526
    4.7168   15.5887   14.0700 LP  0  0  0  0  0  0  0  0  0  0  0  0  # atno 16567 bound_to 9334
    4.0518   14.5989   12.9544 LP  0  0  0  0  0  0  0  0  0  0  0  0  # atno 16568 bound_to 9334
   12.8184    1.9315   29.4645 LP  0  0  0  0  0  0  0  0  0  0  0  0  # atno 16571 bound_to 11269
   11.4947    3.0416   29.3400 LP  0  0  0  0  0  0  0  0  0  0  0  0  # atno 16572 bound_to 11269
   14.7736    8.3259   17.5242 LP  0  0  0  0  0  0  0  0  0  0  0  0  # atno 16581 bound_to 15454
   16.1068    9.2413   17.7504 LP  0  0  0  0  0  0  0  0  0  0  0  0  # atno 16582 bound_to 15454
   15.9179   13.2469   24.3043 LP  0  0  0  0  0  0  0  0  0  0  0  0  # atno 16589 bound_to 5760
   17.0598   12.0950   24.1148 LP  0  0  0  0  0  0  0  0  0  0  0  0  # atno 16590 bound_to 5760
   15.6980    4.9824   11.2865 LP  0  0  0  0  0  0  0  0  0  0  0  0  # atno 16601 bound_to 1810
   16.2521    6.3734   10.6345 LP  0  0  0  0  0  0  0  0  0  0  0  0  # atno 16602 bound_to 1810
   15.0111   18.0511   14.0682 LP  0  0  0  0  0  0  0  0  0  0  0  0  # atno 16609 bound_to 8455
   14.1347   19.2535   14.7411 LP  0  0  0  0  0  0  0  0  0  0  0  0  # atno 16610 bound_to 8455
    6.8039    7.7411    9.2915 LP  0  0  0  0  0  0  0  0  0  0  0  0  # atno 16611 bound_to 1872
    5.8199    8.8847    8.6668 LP  0  0  0  0  0  0  0  0  0  0  0  0  # atno 16612 bound_to 1872
    4.5373   16.8305   22.5450 LP  0  0  0  0  0  0  0  0  0  0  0  0  # atno 16621 bound_to 9468
    3.4437   17.8471   23.2061 LP  0  0  0  0  0  0  0  0  0  0  0  0  # atno 16622 bound_to 9468

> <Gold.Score>
     Fitness  S(hb_ext) S(vdw_ext)  S(hb_int)    S(int)      intcor
     32.83       4.70      21.32       0.00      -1.18      -0.76

> <Gold.Goldscore.Fitness>
32.8304

> <Gold.Goldscore.Internal.Vdw>
-1.1439

> <Gold.Goldscore.Internal.Torsion>
-0.7980

> <Gold.Goldscore.External.Vdw>
21.3216

> <Gold.Goldscore.Internal.HBond>
0.0000

> <Gold.Goldscore.External.HBond>
4.6965

> <Gold.Goldscore.Internal.Correction>
-0.7585

> <Gold.Goldscore.Hbonds>
donor molecule, donor type, donor heavy atom, donor atom, acceptor molecule, acceptor atom, score
      P1  H  1867  1886       L1    11  0.19
      P1  H  7864  7898       L1     9  0.56
      L1  H     8    22       P1  7865  0.98
      L1  H    10    23       P1  1807  0.61

> <Gold.Goldscore.Internal.Vdw.Weighted>
-1.1439

> <Gold.Goldscore.Internal.Torsion.Weighted>
-0.7980

> <Gold.Goldscore.External.Vdw.Weighted>
29.3172

> <Gold.Goldscore.Internal.HBond.Weighted>
0.0000

> <Gold.Goldscore.External.HBond.Weighted>
4.6965

> <Gold.Goldscore.Internal.Correction.Weighted>
-0.7585

> <Gold.Rescore>
     Score     S(PLP)   S(hbond)     S(cho)   S(metal)  DE(clash)   DE(tors)     intcor
     25.21     -22.47       1.54       0.00       0.00       0.00       0.94       ----

> <Gold.PLP.Fitness>
25.2125

> <Gold.PLP.PLP>
-22.4718

> <Gold.PLP.part.hbond>
-1.8835

> <Gold.PLP.part.metal>
0.0000

> <Gold.PLP.part.buried>
-1.0432

> <Gold.PLP.part.nonpolar>
-23.6305

> <Gold.PLP.part.repulsive>
5.0882

> <Gold.PLP.ligand.clash>
0.0000

> <Gold.PLP.ligand.torsion>
0.9447

> <Gold.PLP.Chemscore.Hbond>
1.5434

> <Gold.PLP.Chemscore.CHOScore>
0.0000

> <Gold.PLP.Chemscore.Metal>
0.0000

> <Gold.Chemscore.Hbonds>
donor molecule, donor type, donor heavy atom, donor atom, acceptor molecule, acceptor atom, score
      L1  H     8    22       P1  7865  0.99
      P1  H  1867  1886       L1    11  0.47
      P1  H  7864  7898       L1     9  0.06

> <Gold.PLP.Chemscore.Internal.Correction>
   9.000000E+99

