#       Name:                CT1002167954
#       Creating user name   hitesit
#       Creation time:       Sun Apr 16 22:53:26 2023


#       File generated by GOLD software.
#

@<TRIPOS>MOLECULE
CT1002167954|ligand_prepared|mol2|1|dock9
    29    30     1
SMALL
NO_CHARGES


@<TRIPOS>ATOM
      1 C1          13.5080  12.7335  14.2078 C.3            1 RES1               0.0000
      2 C2          13.9329  12.4966  12.7442 C.ar           1 RES1               0.0000
      3 C3          12.3469  13.7225  14.1621 C.2            1 RES1               0.0000
      4 C4          13.1385  11.3659  14.7716 C.2            1 RES1               0.0000
      5 C5          14.6262  13.3295  15.0943 C.3            1 RES1               0.0000
      6 C6          15.1413  11.8726  12.4493 C.ar           1 RES1               0.0000
      7 C7          13.1271  12.8932  11.6802 C.ar           1 RES1               0.0000
      8 N8          11.0952  13.2390  14.4057 N.am           1 RES1               0.0000
      9 O9          12.5221  14.9009  13.8778 O.2            1 RES1               0.0000
     10 N10         11.8317  11.1472  15.1210 N.am           1 RES1               0.0000
     11 O11         13.9640  10.4703  14.9008 O.2            1 RES1               0.0000
     12 C12         15.4215  14.4349  14.4177 C.3            1 RES1               0.0000
     13 C13         15.5290  11.6505  11.1383 C.ar           1 RES1               0.0000
     14 C14         13.5168  12.6703  10.3699 C.ar           1 RES1               0.0000
     15 C15         10.7874  12.0115  14.9349 C.2            1 RES1               0.0000
     16 C16         14.7170  12.0487  10.0979 C.ar           1 RES1               0.0000
     17 O17          9.6301  11.7219  15.2247 O.2            1 RES1               0.0000
     18 H18         14.1749  13.7293  16.0107 H              1 RES1               0.0000
     19 H19         15.3145  12.5254  15.3828 H              1 RES1               0.0000
     20 H20         15.7946  11.5544  13.2549 H              1 RES1               0.0000
     21 H21         12.1792  13.3850  11.8704 H              1 RES1               0.0000
     22 H22         10.3159  13.8463  14.1728 H              1 RES1               0.0000
     23 H23         11.6176  10.2577  15.5607 H              1 RES1               0.0000
     24 H24         16.1926  14.8179  15.0828 H              1 RES1               0.0000
     25 H25         15.9048  14.0657  13.5156 H              1 RES1               0.0000
     26 H26         14.7720  15.2625  14.1398 H              1 RES1               0.0000
     27 H27         16.4751  11.1621  10.9295 H              1 RES1               0.0000
     28 H28         12.8749  12.9860   9.5541 H              1 RES1               0.0000
     29 H29         15.0207  11.8743   9.0710 H              1 RES1               0.0000
@<TRIPOS>BOND
    1    1    2 1     
    2    1    3 1     
    3    1    4 1     
    4    1    5 1     
    5    2    6 ar    
    6    2    7 ar    
    7    3    8 1     
    8    3    9 2     
    9    4   10 1     
   10    4   11 2     
   11    5   12 1     
   12    5   18 1     
   13    5   19 1     
   14    6   13 ar    
   15    6   20 1     
   16    7   14 ar    
   17    7   21 1     
   18    8   15 1     
   19    8   22 1     
   20   10   15 1     
   21   10   23 1     
   22   12   24 1     
   23   12   25 1     
   24   12   26 1     
   25   13   16 ar    
   26   13   27 1     
   27   14   16 ar    
   28   14   28 1     
   29   15   17 2     
   30   16   29 1     
@<TRIPOS>SUBSTRUCTURE
      1 RES1           1
@<TRIPOS>SET
DONOR_HYDROGENS      STATIC     ATOMS    <user>   **** ""
2 22 23
ATOM$RED        STATIC     ATOMS    COLORGROUP SYSTEM
2 22 23
@<TRIPOS>COMMENT
> <Gold.Version>
2022.3.0

> <Gold.Id.Protein>
unknown|3mvj_clean|pdb

> <Gold.Protein.RotatedTorsions>
[ 9935 9915 9914 9913 ] final  160.34 input   59.98 | X-H torsion
[ 10984 10935 10934 10932 ] final -141.57 input   60.03 | X-H torsion
[ 9832 9816 9817 9818 ] final -169.91 input   89.09 | X-H torsion
[ 9883 9871 9872 9873 ] final  160.04 input -126.12 | X-H torsion
[ 9925 9907 9908 9909 ] final   73.70 input  109.17 | X-H torsion
[ 9887 9876 9875 9872 ] final  124.15 input   59.96 | X-H torsion
[ 10746 10695 10694 10692 ] final   37.12 input   59.99 | X-H torsion
[ 11686 11631 11630 11629 ] final    4.84 input   60.02 | X-H torsion
[ 9775 9759 9760 9761 ] final  -31.10 input  126.36 | X-H torsion
[ 11605 11587 11588 11589 ] final   63.06 input  114.14 | X-H torsion
[ 11559 11538 11537 11535 ] final  -67.24 input   60.01 | X-H torsion
[ 11374 11358 11359 11360 ] final   40.10 input   98.08 | X-H torsion
[ 11434 11416 11417 11418 ] final  -95.77 input  102.35 | X-H torsion
[ 11551 11527 11528 11529 ] final -164.98 input  127.83 | X-H torsion
[ 11812 11800 11801 11802 ] final   62.48 input  127.47 | X-H torsion
[ 11650 11632 11633 11634 ] final -110.59 input  113.96 | X-H torsion
[ 11482 11466 11467 11468 ] final  -72.32 input  126.08 | X-H torsion
[ 11767 11753 11754 11755 ] final  104.28 input  105.73 | X-H torsion
[ 11713 11697 11698 11699 ] final  -83.19 input  116.95 | X-H torsion
[ 11576 11526 11525 11523 ] final   87.82 input   60.00 | X-H torsion
[ 9362 9334 9332 9329 ] final  -69.08 input   60.01 | X-H torsion
[ 7768 7713 7712 7711 ] final  142.46 input   60.03 | X-H torsion
[ 15484 15454 15453 15451 ] final    7.27 input   59.98 | X-H torsion
[ 5787 5760 5759 5756 ] final -148.75 input   59.99 | X-H torsion
[ 1829 1810 1808 1805 ] final -178.68 input   60.00 | X-H torsion
[ 8490 8455 8453 8450 ] final   41.40 input   60.02 | X-H torsion
[ 1885 1872 1871 1868 ] final    1.40 input   59.98 | X-H torsion
[ 9510 9468 9467 9465 ] final  -31.34 input   60.02 | X-H torsion
[ 3466 3411 3410 3409 ] final  -15.86 input   59.97 | X-H torsion
[ 16458 9819 9818 9817 ] final  -96.11 input    0.00 | X-H torsion
[ 16464 9874 9873 9872 ] final  144.18 input    0.00 | X-H torsion
[ 16467 9762 9761 9760 ] final  100.19 input    0.00 | X-H torsion
[ 16495 9617 9616 9615 ] final   59.55 input    0.00 | X-H torsion
[ 16497 9705 9704 9703 ] final  156.28 input    0.00 | X-H torsion
[ 16500 11530 11529 11528 ] final  165.43 input    0.00 | X-H torsion
[ 16504 11361 11360 11359 ] final -117.36 input    0.00 | X-H torsion
[ 16511 11318 11317 11316 ] final  127.09 input    0.00 | X-H torsion
[ 16520 11590 11589 11588 ] final -173.30 input    0.00 | X-H torsion
[ 16523 11756 11755 11754 ] final   -5.67 input    0.00 | X-H torsion
[ 16543 11419 11418 11417 ] final   57.56 input   -0.00 | X-H torsion
[ 16547 11469 11468 11467 ] final    6.72 input    0.00 | X-H torsion
[ 16571 11269 11268 11267 ] final  167.89 input   -0.00 | X-H torsion

> <Gold.Protein.ActiveResidues>
 THR48   LEU49   GLY50   THR51   GLY52   SER53   PHE54   GLY55   ARG56   VAL57  
 LYS78   LYS81   LEU82   LYS83   GLN84   HIS87   GLU127  PHE129  SER130  LEU132 
 ARG133  ARG134  ILE135  GLY136  ARG137  ARG165  ASP166  LEU167  LYS168  PRO169 
 GLU170  ASN171  LEU172  LEU173  THR183  ASP184  GLY186  PHE187  TPO197  LEU198 
 CYS199  GLY200  THR201  PRO202  GLU203  TYR204  LEU205  PRO207  ILE209  ILE210 
 LEU211  SER212  LYS213  VAL226  LEU227  TYR229  GLU230  ALA233  GLY234  TYR235 
 PRO236  PRO237  PHE238  PHE239  ALA240  ASP241  GLN242  PRO243  ILE244  GLN245 
 ILE246  TYR247  GLU248  LYS249  ILE250  VAL251  SER252  ARG256  PHE257  PRO258 
 SER259  PHE327  ASP328  TYR330 

> <Gold.Protein.RotatedAtoms>
   15.4709    4.9596   11.2556 H   0  0  0  0  0  0  0  0  0  0  0  0  # atno 1829 bound_to 1810
    6.9846    7.9082    9.6162 H   0  0  0  0  0  0  0  0  0  0  0  0  # atno 1885 bound_to 1872
    1.2688   10.7016   -5.9533 H   0  0  0  0  0  0  0  0  0  0  0  0  # atno 3466 bound_to 3411
   -0.0020   11.5545   -6.5901 H   0  0  0  0  0  0  0  0  0  0  0  0  # atno 3467 bound_to 3411
    1.5031   12.2447   -6.5095 H   0  0  0  0  0  0  0  0  0  0  0  0  # atno 3468 bound_to 3411
   16.8957   12.2119   23.9286 H   0  0  0  0  0  0  0  0  0  0  0  0  # atno 5787 bound_to 5760
    6.8121   13.3781   13.9870 H   0  0  0  0  0  0  0  0  0  0  0  0  # atno 7768 bound_to 7713
    7.8134   12.6814   15.1090 H   0  0  0  0  0  0  0  0  0  0  0  0  # atno 7769 bound_to 7713
    6.2597   13.0851   15.5218 H   0  0  0  0  0  0  0  0  0  0  0  0  # atno 7770 bound_to 7713
   14.1588   18.7524   14.1709 H   0  0  0  0  0  0  0  0  0  0  0  0  # atno 8490 bound_to 8455
    4.5871   13.8280   13.4409 H   0  0  0  0  0  0  0  0  0  0  0  0  # atno 9362 bound_to 9334
    3.7746   16.9328   22.9602 H   0  0  0  0  0  0  0  0  0  0  0  0  # atno 9510 bound_to 9468
    7.4009    8.1721   41.4772 H   0  0  0  0  0  0  0  0  0  0  0  0  # atno 9775 bound_to 9759
    5.2480    7.1681   39.4743 H   0  0  0  0  0  0  0  0  0  0  0  0  # atno 9832 bound_to 9816
    4.8388   10.3318   40.4331 H   0  0  0  0  0  0  0  0  0  0  0  0  # atno 9883 bound_to 9871
    4.5476   12.8387   39.2376 H   0  0  0  0  0  0  0  0  0  0  0  0  # atno 9887 bound_to 9876
    3.9690    9.8415   43.8693 H   0  0  0  0  0  0  0  0  0  0  0  0  # atno 9925 bound_to 9907
   -1.4327    6.6952   41.9190 H   0  0  0  0  0  0  0  0  0  0  0  0  # atno 9935 bound_to 9915
   -2.1739    7.1597   43.3273 H   0  0  0  0  0  0  0  0  0  0  0  0  # atno 9936 bound_to 9915
   -0.9137    8.0499   42.7216 H   0  0  0  0  0  0  0  0  0  0  0  0  # atno 9937 bound_to 9915
   -3.6829   16.4672   30.9351 H   0  0  0  0  0  0  0  0  0  0  0  0  # atno 10746 bound_to 10695
   -2.1986   14.9711   34.1013 H   0  0  0  0  0  0  0  0  0  0  0  0  # atno 10984 bound_to 10935
   11.1175    4.4405   29.3297 H   0  0  0  0  0  0  0  0  0  0  0  0  # atno 11374 bound_to 11358
    8.8073    3.5978   29.9581 H   0  0  0  0  0  0  0  0  0  0  0  0  # atno 11434 bound_to 11416
    9.7717    0.6598   30.9422 H   0  0  0  0  0  0  0  0  0  0  0  0  # atno 11482 bound_to 11466
   10.4956    2.9074   33.7470 H   0  0  0  0  0  0  0  0  0  0  0  0  # atno 11551 bound_to 11527
   12.8104    8.3412   35.5166 H   0  0  0  0  0  0  0  0  0  0  0  0  # atno 11559 bound_to 11538
   -2.9728   10.3471   12.6456 H   0  0  0  0  0  0  0  0  0  0  0  0  # atno 11576 bound_to 11526
    7.7094    1.4115   32.9369 H   0  0  0  0  0  0  0  0  0  0  0  0  # atno 11605 bound_to 11587
    6.0551   -0.8122   33.2437 H   0  0  0  0  0  0  0  0  0  0  0  0  # atno 11650 bound_to 11632
   -7.8084    9.0824   25.9395 H   0  0  0  0  0  0  0  0  0  0  0  0  # atno 11686 bound_to 11631
   -9.0463    8.8941   27.0248 H   0  0  0  0  0  0  0  0  0  0  0  0  # atno 11687 bound_to 11631
   -8.9853    7.9472   25.6664 H   0  0  0  0  0  0  0  0  0  0  0  0  # atno 11688 bound_to 11631
    7.5670   -2.0731   36.1013 H   0  0  0  0  0  0  0  0  0  0  0  0  # atno 11713 bound_to 11697
    5.8047    0.5394   36.8910 H   0  0  0  0  0  0  0  0  0  0  0  0  # atno 11767 bound_to 11753
    4.3670   -1.6611   37.1574 H   0  0  0  0  0  0  0  0  0  0  0  0  # atno 11812 bound_to 11800
   16.3003    9.0334   18.2682 H   0  0  0  0  0  0  0  0  0  0  0  0  # atno 15484 bound_to 15454
    1.8569   10.7812   40.4382 LP  0  0  0  0  0  0  0  0  0  0  0  0  # atno 16458 bound_to 9819
    1.7082    9.6780   41.7651 LP  0  0  0  0  0  0  0  0  0  0  0  0  # atno 16459 bound_to 9819
   -3.2423   13.7548   33.8187 LP  0  0  0  0  0  0  0  0  0  0  0  0  # atno 16460 bound_to 10935
   -3.3597   15.1479   32.9749 LP  0  0  0  0  0  0  0  0  0  0  0  0  # atno 16461 bound_to 10935
    5.5786    8.2632   40.7939 LP  0  0  0  0  0  0  0  0  0  0  0  0  # atno 16462 bound_to 9816
    4.1494    9.4546   41.7790 LP  0  0  0  0  0  0  0  0  0  0  0  0  # atno 16463 bound_to 9871
    1.6781   12.4350   43.8516 LP  0  0  0  0  0  0  0  0  0  0  0  0  # atno 16464 bound_to 9874
    3.0483   13.4298   43.4868 LP  0  0  0  0  0  0  0  0  0  0  0  0  # atno 16465 bound_to 9874
    2.8631   10.9918   43.1561 LP  0  0  0  0  0  0  0  0  0  0  0  0  # atno 16466 bound_to 9907
    5.2642    8.9429   37.5532 LP  0  0  0  0  0  0  0  0  0  0  0  0  # atno 16467 bound_to 9762
    6.0453   10.0941   38.5850 LP  0  0  0  0  0  0  0  0  0  0  0  0  # atno 16468 bound_to 9762
    5.6365   12.1476   40.2299 LP  0  0  0  0  0  0  0  0  0  0  0  0  # atno 16469 bound_to 9876
    5.4321   13.7677   40.2390 LP  0  0  0  0  0  0  0  0  0  0  0  0  # atno 16470 bound_to 9876
   -4.7938   16.4726   29.7467 LP  0  0  0  0  0  0  0  0  0  0  0  0  # atno 16477 bound_to 10695
   -4.8223   17.6278   30.9004 LP  0  0  0  0  0  0  0  0  0  0  0  0  # atno 16478 bound_to 10695
    4.5977    5.0359   41.1742 LP  0  0  0  0  0  0  0  0  0  0  0  0  # atno 16495 bound_to 9617
    5.8074    6.2007   41.5984 LP  0  0  0  0  0  0  0  0  0  0  0  0  # atno 16496 bound_to 9617
    7.4990    9.9102   40.2946 LP  0  0  0  0  0  0  0  0  0  0  0  0  # atno 16497 bound_to 9705
    7.1717   10.3388   41.9405 LP  0  0  0  0  0  0  0  0  0  0  0  0  # atno 16498 bound_to 9705
    8.2187    6.6724   41.1010 LP  0  0  0  0  0  0  0  0  0  0  0  0  # atno 16499 bound_to 9759
    5.6633    1.6641   35.4801 LP  0  0  0  0  0  0  0  0  0  0  0  0  # atno 16500 bound_to 11530
    7.0211    2.1870   36.4198 LP  0  0  0  0  0  0  0  0  0  0  0  0  # atno 16501 bound_to 11530
    7.8304    2.7940   31.7327 LP  0  0  0  0  0  0  0  0  0  0  0  0  # atno 16504 bound_to 11361
    6.9256    3.9597   30.8257 LP  0  0  0  0  0  0  0  0  0  0  0  0  # atno 16505 bound_to 11361
    6.8054    2.6389   33.7977 LP  0  0  0  0  0  0  0  0  0  0  0  0  # atno 16508 bound_to 11587
   12.5644    8.7831   33.9701 LP  0  0  0  0  0  0  0  0  0  0  0  0  # atno 16509 bound_to 11538
   13.5032    7.4919   34.3140 LP  0  0  0  0  0  0  0  0  0  0  0  0  # atno 16510 bound_to 11538
   10.4888    4.5753   32.5978 LP  0  0  0  0  0  0  0  0  0  0  0  0  # atno 16511 bound_to 11318
   11.6115    3.2829   32.3348 LP  0  0  0  0  0  0  0  0  0  0  0  0  # atno 16512 bound_to 11318
   11.4569    5.6201   30.5608 LP  0  0  0  0  0  0  0  0  0  0  0  0  # atno 16513 bound_to 11358
   10.3685    3.0654   29.3844 LP  0  0  0  0  0  0  0  0  0  0  0  0  # atno 16514 bound_to 11416
    9.2855    1.9600   32.9237 LP  0  0  0  0  0  0  0  0  0  0  0  0  # atno 16515 bound_to 11527
    5.0071   -1.6521   35.1274 LP  0  0  0  0  0  0  0  0  0  0  0  0  # atno 16520 bound_to 11590
    3.9657   -0.3758   34.5921 LP  0  0  0  0  0  0  0  0  0  0  0  0  # atno 16521 bound_to 11590
    3.0001   -0.5720   37.1349 LP  0  0  0  0  0  0  0  0  0  0  0  0  # atno 16522 bound_to 11800
    2.5620   -0.5847   39.9607 LP  0  0  0  0  0  0  0  0  0  0  0  0  # atno 16523 bound_to 11756
    1.8329   -1.7953   38.9593 LP  0  0  0  0  0  0  0  0  0  0  0  0  # atno 16524 bound_to 11756
    8.3519   -0.8540   30.8426 LP  0  0  0  0  0  0  0  0  0  0  0  0  # atno 16543 bound_to 11419
    8.2711    0.0768   32.3010 LP  0  0  0  0  0  0  0  0  0  0  0  0  # atno 16544 bound_to 11419
    7.6316   -0.2937   33.7844 LP  0  0  0  0  0  0  0  0  0  0  0  0  # atno 16545 bound_to 11632
   10.9678    1.9362   30.8533 LP  0  0  0  0  0  0  0  0  0  0  0  0  # atno 16546 bound_to 11466
    9.6435   -0.4313   34.4784 LP  0  0  0  0  0  0  0  0  0  0  0  0  # atno 16547 bound_to 11469
    8.5482    0.8042   35.0018 LP  0  0  0  0  0  0  0  0  0  0  0  0  # atno 16548 bound_to 11469
    6.1997   -0.4735   38.2592 LP  0  0  0  0  0  0  0  0  0  0  0  0  # atno 16549 bound_to 11753
    7.7707   -0.3786   35.6910 LP  0  0  0  0  0  0  0  0  0  0  0  0  # atno 16550 bound_to 11697
   -2.9183   11.9170   12.2203 LP  0  0  0  0  0  0  0  0  0  0  0  0  # atno 16565 bound_to 11526
   -3.6504   10.8294   11.2468 LP  0  0  0  0  0  0  0  0  0  0  0  0  # atno 16566 bound_to 11526
    5.1321   14.9886   14.4434 LP  0  0  0  0  0  0  0  0  0  0  0  0  # atno 16567 bound_to 9334
    4.1074   15.3689   13.2301 LP  0  0  0  0  0  0  0  0  0  0  0  0  # atno 16568 bound_to 9334
   12.2961    2.8113   30.1928 LP  0  0  0  0  0  0  0  0  0  0  0  0  # atno 16571 bound_to 11269
   12.0170    2.1617   28.6116 LP  0  0  0  0  0  0  0  0  0  0  0  0  # atno 16572 bound_to 11269
   15.1918    7.8973   18.6257 LP  0  0  0  0  0  0  0  0  0  0  0  0  # atno 16581 bound_to 15454
   15.0673    8.7573   17.2432 LP  0  0  0  0  0  0  0  0  0  0  0  0  # atno 16582 bound_to 15454
   16.9363   12.5117   25.5273 LP  0  0  0  0  0  0  0  0  0  0  0  0  # atno 16589 bound_to 5760
   15.8949   13.3244   24.5673 LP  0  0  0  0  0  0  0  0  0  0  0  0  # atno 16590 bound_to 5760
   16.3753    6.2137   10.7473 LP  0  0  0  0  0  0  0  0  0  0  0  0  # atno 16601 bound_to 1810
   14.7719    6.1820   10.4393 LP  0  0  0  0  0  0  0  0  0  0  0  0  # atno 16602 bound_to 1810
   14.9673   19.2857   15.4784 LP  0  0  0  0  0  0  0  0  0  0  0  0  # atno 16609 bound_to 8455
   15.5816   18.0731   14.5735 LP  0  0  0  0  0  0  0  0  0  0  0  0  # atno 16610 bound_to 8455
    5.9019    8.5002    8.5555 LP  0  0  0  0  0  0  0  0  0  0  0  0  # atno 16611 bound_to 1872
    6.4428    9.4336    9.7814 LP  0  0  0  0  0  0  0  0  0  0  0  0  # atno 16612 bound_to 1872
    3.9217   18.5527   22.9976 LP  0  0  0  0  0  0  0  0  0  0  0  0  # atno 16621 bound_to 9468
    5.0857   17.6398   22.3058 LP  0  0  0  0  0  0  0  0  0  0  0  0  # atno 16622 bound_to 9468

> <Gold.Score>
     Fitness  S(hb_ext) S(vdw_ext)  S(hb_int)    S(int)      intcor
     36.61       6.04      24.42       0.00      -3.01      -0.76

> <Gold.Goldscore.Fitness>
36.6136

> <Gold.Goldscore.Internal.Vdw>
-2.9312

> <Gold.Goldscore.Internal.Torsion>
-0.8375

> <Gold.Goldscore.External.Vdw>
24.4239

> <Gold.Goldscore.Internal.HBond>
0.0000

> <Gold.Goldscore.External.HBond>
6.0411

> <Gold.Goldscore.Internal.Correction>
-0.7585

> <Gold.Goldscore.Hbonds>
donor molecule, donor type, donor heavy atom, donor atom, acceptor molecule, acceptor atom, score
      P1  H  7713  7769       L1    17  1.00
      P1  H  1804  1825       L1    11  0.02

> <Gold.Goldscore.Internal.Vdw.Weighted>
-2.9312

> <Gold.Goldscore.Internal.Torsion.Weighted>
-0.8375

> <Gold.Goldscore.External.Vdw.Weighted>
33.5828

> <Gold.Goldscore.Internal.HBond.Weighted>
0.0000

> <Gold.Goldscore.External.HBond.Weighted>
6.0411

> <Gold.Goldscore.Internal.Correction.Weighted>
-0.7585

> <Gold.Rescore>
     Score     S(PLP)   S(hbond)     S(cho)   S(metal)  DE(clash)   DE(tors)     intcor
     21.29     -21.63       0.51       0.00       0.00       1.26       0.31       ----

> <Gold.PLP.Fitness>
21.2921

> <Gold.PLP.PLP>
-21.6307

> <Gold.PLP.part.hbond>
-2.0000

> <Gold.PLP.part.metal>
0.0000

> <Gold.PLP.part.buried>
1.0874

> <Gold.PLP.part.nonpolar>
-26.7232

> <Gold.PLP.part.repulsive>
5.6365

> <Gold.PLP.ligand.clash>
1.2558

> <Gold.PLP.ligand.torsion>
0.3128

> <Gold.PLP.Chemscore.Hbond>
0.5143

> <Gold.PLP.Chemscore.CHOScore>
0.0000

> <Gold.PLP.Chemscore.Metal>
0.0000

> <Gold.Chemscore.Hbonds>
donor molecule, donor type, donor heavy atom, donor atom, acceptor molecule, acceptor atom, score
      P1  H  7713  7769       L1    17  1.00
      P1  H  1804  1825       L1    11  0.38

> <Gold.PLP.Chemscore.Internal.Correction>
   9.000000E+99

