#       Name:                CT1002167954
#       Creating user name   hitesit
#       Creation time:       Sun Apr 16 22:53:22 2023


#       File generated by GOLD software.
#

@<TRIPOS>MOLECULE
CT1002167954|ligand_prepared|mol2|1|dock7
    29    30     1
SMALL
NO_CHARGES


@<TRIPOS>ATOM
      1 C1          13.3002  12.4652  13.9123 C.3            1 RES1               0.0000
      2 C2          13.7775  12.3201  12.4529 C.ar           1 RES1               0.0000
      3 C3          12.1553  11.4720  14.0894 C.2            1 RES1               0.0000
      4 C4          14.5142  12.1778  14.7888 C.2            1 RES1               0.0000
      5 C5          12.7821  13.8795  14.2626 C.3            1 RES1               0.0000
      6 C6          12.9975  12.7932  11.4019 C.ar           1 RES1               0.0000
      7 C7          14.9945  11.7191  12.1426 C.ar           1 RES1               0.0000
      8 N8          12.4043  10.3433  14.8132 N.am           1 RES1               0.0000
      9 O9          11.0623  11.6574  13.5686 O.2            1 RES1               0.0000
     10 N10         14.4822  11.0626  15.5845 N.am           1 RES1               0.0000
     11 O11         15.5050  12.8979  14.7851 O.2            1 RES1               0.0000
     12 C12         13.6691  15.0023  13.7481 C.3            1 RES1               0.0000
     13 C13         13.4200  12.6725  10.0885 C.ar           1 RES1               0.0000
     14 C14         15.4150  11.5991  10.8283 C.ar           1 RES1               0.0000
     15 C15         13.4949  10.1157  15.6135 C.2            1 RES1               0.0000
     16 C16         14.6291  12.0758   9.8008 C.ar           1 RES1               0.0000
     17 O17         13.5629   9.1112  16.3161 O.2            1 RES1               0.0000
     18 H18         11.7770  14.0020  13.8406 H              1 RES1               0.0000
     19 H19         12.7005  13.9657  15.3532 H              1 RES1               0.0000
     20 H20         12.0419  13.2634  11.6088 H              1 RES1               0.0000
     21 H21         15.6287  11.3358  12.9347 H              1 RES1               0.0000
     22 H22         11.7160   9.5996  14.7538 H              1 RES1               0.0000
     23 H23         15.2670  10.9258  16.2136 H              1 RES1               0.0000
     24 H24         13.2602  15.9728  14.0211 H              1 RES1               0.0000
     25 H25         14.6701  14.9262  14.1676 H              1 RES1               0.0000
     26 H26         13.7520  14.9623  12.6639 H              1 RES1               0.0000
     27 H27         12.7972  13.0480   9.2833 H              1 RES1               0.0000
     28 H28         16.3671  11.1283  10.6066 H              1 RES1               0.0000
     29 H29         14.9601  11.9817   8.7718 H              1 RES1               0.0000
@<TRIPOS>BOND
    1    1    2 1     
    2    1    3 1     
    3    1    4 1     
    4    1    5 1     
    5    2    6 ar    
    6    2    7 ar    
    7    3    8 1     
    8    3    9 2     
    9    4   10 1     
   10    4   11 2     
   11    5   12 1     
   12    5   18 1     
   13    5   19 1     
   14    6   13 ar    
   15    6   20 1     
   16    7   14 ar    
   17    7   21 1     
   18    8   15 1     
   19    8   22 1     
   20   10   15 1     
   21   10   23 1     
   22   12   24 1     
   23   12   25 1     
   24   12   26 1     
   25   13   16 ar    
   26   13   27 1     
   27   14   16 ar    
   28   14   28 1     
   29   15   17 2     
   30   16   29 1     
@<TRIPOS>SUBSTRUCTURE
      1 RES1           1
@<TRIPOS>SET
DONOR_HYDROGENS      STATIC     ATOMS    <user>   **** ""
2 22 23
ATOM$RED        STATIC     ATOMS    COLORGROUP SYSTEM
2 22 23
@<TRIPOS>COMMENT
> <Gold.Version>
2022.3.0

> <Gold.Id.Protein>
unknown|3mvj_clean|pdb

> <Gold.Protein.RotatedTorsions>
[ 9935 9915 9914 9913 ] final  112.50 input   59.98 | X-H torsion
[ 10984 10935 10934 10932 ] final  177.76 input   60.03 | X-H torsion
[ 9832 9816 9817 9818 ] final -117.68 input   89.09 | X-H torsion
[ 9883 9871 9872 9873 ] final   -0.11 input -126.12 | X-H torsion
[ 9925 9907 9908 9909 ] final  178.64 input  109.17 | X-H torsion
[ 9887 9876 9875 9872 ] final  167.61 input   59.96 | X-H torsion
[ 10746 10695 10694 10692 ] final  -83.51 input   59.99 | X-H torsion
[ 11686 11631 11630 11629 ] final  145.10 input   60.02 | X-H torsion
[ 9775 9759 9760 9761 ] final -145.80 input  126.36 | X-H torsion
[ 11605 11587 11588 11589 ] final  -96.45 input  114.14 | X-H torsion
[ 11559 11538 11537 11535 ] final  -64.97 input   60.01 | X-H torsion
[ 11374 11358 11359 11360 ] final  159.91 input   98.08 | X-H torsion
[ 11434 11416 11417 11418 ] final  -60.21 input  102.35 | X-H torsion
[ 11551 11527 11528 11529 ] final  111.66 input  127.83 | X-H torsion
[ 11812 11800 11801 11802 ] final  101.57 input  127.47 | X-H torsion
[ 11650 11632 11633 11634 ] final   75.74 input  113.96 | X-H torsion
[ 11482 11466 11467 11468 ] final  123.18 input  126.08 | X-H torsion
[ 11767 11753 11754 11755 ] final  -17.01 input  105.73 | X-H torsion
[ 11713 11697 11698 11699 ] final -138.25 input  116.95 | X-H torsion
[ 11576 11526 11525 11523 ] final  -53.12 input   60.00 | X-H torsion
[ 9362 9334 9332 9329 ] final -133.91 input   60.01 | X-H torsion
[ 7768 7713 7712 7711 ] final  152.10 input   60.03 | X-H torsion
[ 15484 15454 15453 15451 ] final  143.38 input   59.98 | X-H torsion
[ 5787 5760 5759 5756 ] final  -45.55 input   59.99 | X-H torsion
[ 1829 1810 1808 1805 ] final  -55.07 input   60.00 | X-H torsion
[ 8490 8455 8453 8450 ] final   37.84 input   60.02 | X-H torsion
[ 1885 1872 1871 1868 ] final   35.12 input   59.98 | X-H torsion
[ 9510 9468 9467 9465 ] final   39.53 input   60.02 | X-H torsion
[ 3466 3411 3410 3409 ] final   98.41 input   59.97 | X-H torsion
[ 16458 9819 9818 9817 ] final  -76.79 input    0.00 | X-H torsion
[ 16464 9874 9873 9872 ] final  -30.20 input    0.00 | X-H torsion
[ 16467 9762 9761 9760 ] final   37.49 input    0.00 | X-H torsion
[ 16495 9617 9616 9615 ] final -119.36 input    0.00 | X-H torsion
[ 16497 9705 9704 9703 ] final  -15.78 input    0.00 | X-H torsion
[ 16500 11530 11529 11528 ] final  -96.05 input    0.00 | X-H torsion
[ 16504 11361 11360 11359 ] final  171.35 input    0.00 | X-H torsion
[ 16511 11318 11317 11316 ] final   59.48 input    0.00 | X-H torsion
[ 16520 11590 11589 11588 ] final  123.89 input    0.00 | X-H torsion
[ 16523 11756 11755 11754 ] final   57.83 input    0.00 | X-H torsion
[ 16543 11419 11418 11417 ] final   56.18 input   -0.00 | X-H torsion
[ 16547 11469 11468 11467 ] final   54.56 input    0.00 | X-H torsion
[ 16571 11269 11268 11267 ] final  126.20 input   -0.00 | X-H torsion

> <Gold.Protein.ActiveResidues>
 THR48   LEU49   GLY50   THR51   GLY52   SER53   PHE54   GLY55   ARG56   VAL57  
 LYS78   LYS81   LEU82   LYS83   GLN84   HIS87   GLU127  PHE129  SER130  LEU132 
 ARG133  ARG134  ILE135  GLY136  ARG137  ARG165  ASP166  LEU167  LYS168  PRO169 
 GLU170  ASN171  LEU172  LEU173  THR183  ASP184  GLY186  PHE187  TPO197  LEU198 
 CYS199  GLY200  THR201  PRO202  GLU203  TYR204  LEU205  PRO207  ILE209  ILE210 
 LEU211  SER212  LYS213  VAL226  LEU227  TYR229  GLU230  ALA233  GLY234  TYR235 
 PRO236  PRO237  PHE238  PHE239  ALA240  ASP241  GLN242  PRO243  ILE244  GLN245 
 ILE246  TYR247  GLU248  LYS249  ILE250  VAL251  SER252  ARG256  PHE257  PRO258 
 SER259  PHE327  ASP328  TYR330 

> <Gold.Protein.RotatedAtoms>
   14.8108    6.2253   10.4261 H   0  0  0  0  0  0  0  0  0  0  0  0  # atno 1829 bound_to 1810
    7.0660    8.3237    9.9561 H   0  0  0  0  0  0  0  0  0  0  0  0  # atno 1885 bound_to 1872
   -0.0102   11.4648   -6.5573 H   0  0  0  0  0  0  0  0  0  0  0  0  # atno 3466 bound_to 3411
    1.4269   12.2909   -6.5453 H   0  0  0  0  0  0  0  0  0  0  0  0  # atno 3467 bound_to 3411
    1.3534   10.7454   -5.9504 H   0  0  0  0  0  0  0  0  0  0  0  0  # atno 3468 bound_to 3411
   15.9208   13.2408   24.3071 H   0  0  0  0  0  0  0  0  0  0  0  0  # atno 5787 bound_to 5760
    6.9644   13.3344   13.9596 H   0  0  0  0  0  0  0  0  0  0  0  0  # atno 7768 bound_to 7713
    7.7480   12.6583   15.2541 H   0  0  0  0  0  0  0  0  0  0  0  0  # atno 7769 bound_to 7713
    6.1728   13.1520   15.4041 H   0  0  0  0  0  0  0  0  0  0  0  0  # atno 7770 bound_to 7713
   14.1383   18.7954   14.2042 H   0  0  0  0  0  0  0  0  0  0  0  0  # atno 8490 bound_to 8455
    5.1306   14.1467   14.2226 H   0  0  0  0  0  0  0  0  0  0  0  0  # atno 9362 bound_to 9334
    4.7302   16.9588   22.4465 H   0  0  0  0  0  0  0  0  0  0  0  0  # atno 9510 bound_to 9468
    8.6579    7.5045   41.0269 H   0  0  0  0  0  0  0  0  0  0  0  0  # atno 9775 bound_to 9759
    5.5384    7.8609   39.2788 H   0  0  0  0  0  0  0  0  0  0  0  0  # atno 9832 bound_to 9816
    3.8859    9.5133   41.6431 H   0  0  0  0  0  0  0  0  0  0  0  0  # atno 9883 bound_to 9871
    4.6466   13.4993   39.4232 H   0  0  0  0  0  0  0  0  0  0  0  0  # atno 9887 bound_to 9876
    2.8235    9.9317   43.0643 H   0  0  0  0  0  0  0  0  0  0  0  0  # atno 9925 bound_to 9907
   -0.9175    7.2754   41.9023 H   0  0  0  0  0  0  0  0  0  0  0  0  # atno 9935 bound_to 9915
   -2.1769    6.6270   42.7635 H   0  0  0  0  0  0  0  0  0  0  0  0  # atno 9936 bound_to 9915
   -1.4260    8.0027   43.3027 H   0  0  0  0  0  0  0  0  0  0  0  0  # atno 9937 bound_to 9915
   -4.7968   16.4842   29.7512 H   0  0  0  0  0  0  0  0  0  0  0  0  # atno 10746 bound_to 10695
   -2.3317   14.3668   34.3032 H   0  0  0  0  0  0  0  0  0  0  0  0  # atno 10984 bound_to 10935
   11.3143    5.8690   29.7368 H   0  0  0  0  0  0  0  0  0  0  0  0  # atno 11374 bound_to 11358
    9.1054    3.4698   30.3876 H   0  0  0  0  0  0  0  0  0  0  0  0  # atno 11434 bound_to 11416
   11.1324    1.7755   30.7866 H   0  0  0  0  0  0  0  0  0  0  0  0  # atno 11482 bound_to 11466
    9.8017    3.1530   32.8448 H   0  0  0  0  0  0  0  0  0  0  0  0  # atno 11551 bound_to 11527
   12.8319    8.3117   35.5237 H   0  0  0  0  0  0  0  0  0  0  0  0  # atno 11559 bound_to 11538
   -3.0783   11.9527   11.9207 H   0  0  0  0  0  0  0  0  0  0  0  0  # atno 11576 bound_to 11526
    6.8625    2.4640   34.0511 H   0  0  0  0  0  0  0  0  0  0  0  0  # atno 11605 bound_to 11587
    7.6785   -0.3198   33.7029 H   0  0  0  0  0  0  0  0  0  0  0  0  # atno 11650 bound_to 11632
   -9.2553    8.6515   26.9203 H   0  0  0  0  0  0  0  0  0  0  0  0  # atno 11686 bound_to 11631
   -8.7147    8.0282   25.4833 H   0  0  0  0  0  0  0  0  0  0  0  0  # atno 11687 bound_to 11631
   -7.8705    9.2442   26.2277 H   0  0  0  0  0  0  0  0  0  0  0  0  # atno 11688 bound_to 11631
    8.3424   -1.7952   35.9914 H   0  0  0  0  0  0  0  0  0  0  0  0  # atno 11713 bound_to 11697
    5.8258   -0.8388   37.5804 H   0  0  0  0  0  0  0  0  0  0  0  0  # atno 11767 bound_to 11753
    4.2775   -1.4671   36.6055 H   0  0  0  0  0  0  0  0  0  0  0  0  # atno 11812 bound_to 11800
   14.9129    8.5652   17.3355 H   0  0  0  0  0  0  0  0  0  0  0  0  # atno 15484 bound_to 15454
    1.7556   10.5482   40.2968 LP  0  0  0  0  0  0  0  0  0  0  0  0  # atno 16458 bound_to 9819
    1.8095    9.9110   41.9065 LP  0  0  0  0  0  0  0  0  0  0  0  0  # atno 16459 bound_to 9819
   -3.6057   14.0306   33.3482 LP  0  0  0  0  0  0  0  0  0  0  0  0  # atno 16460 bound_to 10935
   -2.8624   15.4807   33.2421 LP  0  0  0  0  0  0  0  0  0  0  0  0  # atno 16461 bound_to 10935
    5.2937    7.5838   40.9857 LP  0  0  0  0  0  0  0  0  0  0  0  0  # atno 16462 bound_to 9816
    5.0781   10.2523   40.5997 LP  0  0  0  0  0  0  0  0  0  0  0  0  # atno 16463 bound_to 9871
    3.0187   13.4341   43.4072 LP  0  0  0  0  0  0  0  0  0  0  0  0  # atno 16464 bound_to 9874
    1.7077   12.4307   43.9311 LP  0  0  0  0  0  0  0  0  0  0  0  0  # atno 16465 bound_to 9874
    3.9812   10.9037   43.9419 LP  0  0  0  0  0  0  0  0  0  0  0  0  # atno 16466 bound_to 9907
    6.1543    9.0776   37.5158 LP  0  0  0  0  0  0  0  0  0  0  0  0  # atno 16467 bound_to 9762
    5.1552    9.9594   38.6223 LP  0  0  0  0  0  0  0  0  0  0  0  0  # atno 16468 bound_to 9762
    5.1657   11.9897   39.7393 LP  0  0  0  0  0  0  0  0  0  0  0  0  # atno 16469 bound_to 9876
    5.8033   13.2604   40.5427 LP  0  0  0  0  0  0  0  0  0  0  0  0  # atno 16470 bound_to 9876
   -4.8150   17.6277   30.9081 LP  0  0  0  0  0  0  0  0  0  0  0  0  # atno 16477 bound_to 10695
   -3.6784   16.4555   30.9322 LP  0  0  0  0  0  0  0  0  0  0  0  0  # atno 16478 bound_to 10695
    5.8172    6.1945   41.5867 LP  0  0  0  0  0  0  0  0  0  0  0  0  # atno 16495 bound_to 9617
    4.5879    5.0421   41.1860 LP  0  0  0  0  0  0  0  0  0  0  0  0  # atno 16496 bound_to 9617
    7.2873   10.3704   41.9465 LP  0  0  0  0  0  0  0  0  0  0  0  0  # atno 16497 bound_to 9705
    7.3834    9.8785   40.2886 LP  0  0  0  0  0  0  0  0  0  0  0  0  # atno 16498 bound_to 9705
    6.9956    7.3219   41.5392 LP  0  0  0  0  0  0  0  0  0  0  0  0  # atno 16499 bound_to 9759
    6.7440    1.1626   36.0304 LP  0  0  0  0  0  0  0  0  0  0  0  0  # atno 16500 bound_to 11530
    5.9404    2.6885   35.8695 LP  0  0  0  0  0  0  0  0  0  0  0  0  # atno 16501 bound_to 11530
    7.3257    2.6113   30.8778 LP  0  0  0  0  0  0  0  0  0  0  0  0  # atno 16504 bound_to 11361
    7.4302    4.1424   31.6806 LP  0  0  0  0  0  0  0  0  0  0  0  0  # atno 16505 bound_to 11361
    7.6248    1.6207   32.7198 LP  0  0  0  0  0  0  0  0  0  0  0  0  # atno 16508 bound_to 11587
   12.5489    8.8021   33.9983 LP  0  0  0  0  0  0  0  0  0  0  0  0  # atno 16509 bound_to 11538
   13.4971    7.5026   34.2787 LP  0  0  0  0  0  0  0  0  0  0  0  0  # atno 16510 bound_to 11538
   11.3875    4.5667   32.9454 LP  0  0  0  0  0  0  0  0  0  0  0  0  # atno 16511 bound_to 11318
   10.7129    3.2914   31.9871 LP  0  0  0  0  0  0  0  0  0  0  0  0  # atno 16512 bound_to 11318
   11.2587    4.1814   30.1508 LP  0  0  0  0  0  0  0  0  0  0  0  0  # atno 16513 bound_to 11358
   10.0759    3.1910   28.9628 LP  0  0  0  0  0  0  0  0  0  0  0  0  # atno 16514 bound_to 11416
    9.9733    1.7166   33.8179 LP  0  0  0  0  0  0  0  0  0  0  0  0  # atno 16515 bound_to 11527
    4.4905   -1.7434   34.3930 LP  0  0  0  0  0  0  0  0  0  0  0  0  # atno 16520 bound_to 11590
    4.4824   -0.2845   35.3265 LP  0  0  0  0  0  0  0  0  0  0  0  0  # atno 16521 bound_to 11590
    3.0874   -0.7614   37.6735 LP  0  0  0  0  0  0  0  0  0  0  0  0  # atno 16522 bound_to 11800
    1.8581   -0.3946   39.4138 LP  0  0  0  0  0  0  0  0  0  0  0  0  # atno 16523 bound_to 11756
    2.5368   -1.9854   39.5062 LP  0  0  0  0  0  0  0  0  0  0  0  0  # atno 16524 bound_to 11756
    8.3351   -0.8439   30.8355 LP  0  0  0  0  0  0  0  0  0  0  0  0  # atno 16543 bound_to 11419
    8.2879    0.0667   32.3081 LP  0  0  0  0  0  0  0  0  0  0  0  0  # atno 16544 bound_to 11419
    6.0354   -0.7779   33.3329 LP  0  0  0  0  0  0  0  0  0  0  0  0  # atno 16545 bound_to 11632
    9.6552    0.8598   31.0033 LP  0  0  0  0  0  0  0  0  0  0  0  0  # atno 16546 bound_to 11466
    9.8690   -0.0682   35.0357 LP  0  0  0  0  0  0  0  0  0  0  0  0  # atno 16547 bound_to 11469
    8.3227    0.4412   34.4446 LP  0  0  0  0  0  0  0  0  0  0  0  0  # atno 16548 bound_to 11469
    6.1792    0.8726   37.5860 LP  0  0  0  0  0  0  0  0  0  0  0  0  # atno 16549 bound_to 11753
    7.0324   -0.6433   35.7956 LP  0  0  0  0  0  0  0  0  0  0  0  0  # atno 16550 bound_to 11697
   -3.6300   10.5175   11.3876 LP  0  0  0  0  0  0  0  0  0  0  0  0  # atno 16565 bound_to 11526
   -2.8326   10.6118   12.8095 LP  0  0  0  0  0  0  0  0  0  0  0  0  # atno 16566 bound_to 11526
    4.5802   15.6461   13.9100 LP  0  0  0  0  0  0  0  0  0  0  0  0  # atno 16567 bound_to 9334
    4.1123   14.3906   12.9766 LP  0  0  0  0  0  0  0  0  0  0  0  0  # atno 16568 bound_to 9334
   12.7064    2.3705   30.0612 LP  0  0  0  0  0  0  0  0  0  0  0  0  # atno 16571 bound_to 11269
   11.6067    2.6025   28.7433 LP  0  0  0  0  0  0  0  0  0  0  0  0  # atno 16572 bound_to 11269
   16.2539    9.1578   18.0409 LP  0  0  0  0  0  0  0  0  0  0  0  0  # atno 16581 bound_to 15454
   15.4029    7.9686   18.7676 LP  0  0  0  0  0  0  0  0  0  0  0  0  # atno 16582 bound_to 15454
   17.0599   12.0949   24.1149 LP  0  0  0  0  0  0  0  0  0  0  0  0  # atno 16589 bound_to 5760
   16.7532   12.7049   25.5983 LP  0  0  0  0  0  0  0  0  0  0  0  0  # atno 16590 bound_to 5760
   15.4127    4.9536   11.2444 LP  0  0  0  0  0  0  0  0  0  0  0  0  # atno 16601 bound_to 1810
   16.3991    6.1682   10.7771 LP  0  0  0  0  0  0  0  0  0  0  0  0  # atno 16602 bound_to 1810
   15.0184   19.2603   15.4916 LP  0  0  0  0  0  0  0  0  0  0  0  0  # atno 16609 bound_to 8455
   15.5511   18.0552   14.5268 LP  0  0  0  0  0  0  0  0  0  0  0  0  # atno 16610 bound_to 8455
    6.1676    8.0283    8.6319 LP  0  0  0  0  0  0  0  0  0  0  0  0  # atno 16611 bound_to 1872
    6.0951    9.4869    9.3626 LP  0  0  0  0  0  0  0  0  0  0  0  0  # atno 16612 bound_to 1872
    3.4329   17.5949   23.1943 LP  0  0  0  0  0  0  0  0  0  0  0  0  # atno 16621 bound_to 9468
    4.6121   18.5714   22.6265 LP  0  0  0  0  0  0  0  0  0  0  0  0  # atno 16622 bound_to 9468

> <Gold.Score>
     Fitness  S(hb_ext) S(vdw_ext)  S(hb_int)    S(int)      intcor
     35.03       2.12      26.21       0.00      -3.12      -0.76

> <Gold.Goldscore.Fitness>
35.0319

> <Gold.Goldscore.Internal.Vdw>
-3.1659

> <Gold.Goldscore.Internal.Torsion>
-0.7155

> <Gold.Goldscore.External.Vdw>
26.2062

> <Gold.Goldscore.Internal.HBond>
0.0000

> <Gold.Goldscore.External.HBond>
2.1212

> <Gold.Goldscore.Internal.Correction>
-0.7585

> <Gold.Goldscore.Hbonds>
donor molecule, donor type, donor heavy atom, donor atom, acceptor molecule, acceptor atom, score
      P1  H 15454 15484       L1    17  1.00
      P1  H  1804  1825       L1    17  0.06

> <Gold.Goldscore.Internal.Vdw.Weighted>
-3.1659

> <Gold.Goldscore.Internal.Torsion.Weighted>
-0.7155

> <Gold.Goldscore.External.Vdw.Weighted>
36.0335

> <Gold.Goldscore.Internal.HBond.Weighted>
0.0000

> <Gold.Goldscore.External.HBond.Weighted>
2.1212

> <Gold.Goldscore.Internal.Correction.Weighted>
-0.7585

> <Gold.Rescore>
     Score     S(PLP)   S(hbond)     S(cho)   S(metal)  DE(clash)   DE(tors)     intcor
     36.54     -34.66       1.15       0.00       0.00       1.35       0.12       ----

> <Gold.PLP.Fitness>
36.5439

> <Gold.PLP.PLP>
-34.6598

> <Gold.PLP.part.hbond>
-3.0000

> <Gold.PLP.part.metal>
0.0000

> <Gold.PLP.part.buried>
-2.4855

> <Gold.PLP.part.nonpolar>
-30.3970

> <Gold.PLP.part.repulsive>
0.5591

> <Gold.PLP.ligand.clash>
1.3477

> <Gold.PLP.ligand.torsion>
0.1157

> <Gold.PLP.Chemscore.Hbond>
1.1544

> <Gold.PLP.Chemscore.CHOScore>
0.0000

> <Gold.PLP.Chemscore.Metal>
0.0000

> <Gold.Chemscore.Hbonds>
donor molecule, donor type, donor heavy atom, donor atom, acceptor molecule, acceptor atom, score
      P1  H 15454 15484       L1    17  1.00

> <Gold.PLP.Chemscore.Internal.Correction>
   9.000000E+99

