#       Name:                CT1002167954
#       Creating user name   hitesit
#       Creation time:       Sun Apr 16 22:53:14 2023


#       File generated by GOLD software.
#

@<TRIPOS>MOLECULE
CT1002167954|ligand_prepared|mol2|1|dock3
    29    30     1
SMALL
NO_CHARGES


@<TRIPOS>ATOM
      1 C1           8.9499  12.7335  11.3002 C.3            1 RES1               0.0000
      2 C2           7.4918  12.4731  11.7301 C.ar           1 RES1               0.0000
      3 C3           9.3879  14.0059  12.0194 C.2            1 RES1               0.0000
      4 C4           9.7400  11.4912  11.6968 C.2            1 RES1               0.0000
      5 C5           9.1243  12.9447   9.7782 C.3            1 RES1               0.0000
      6 C6           6.4440  13.1782  11.1456 C.ar           1 RES1               0.0000
      7 C7           7.1792  11.5307  12.7062 C.ar           1 RES1               0.0000
      8 N8          10.2510  13.8743  13.0671 N.am           1 RES1               0.0000
      9 O9           8.9519  15.1043  11.6974 O.2            1 RES1               0.0000
     10 N10         10.6986  11.6227  12.6672 N.am           1 RES1               0.0000
     11 O11          9.5296  10.3963  11.1897 O.2            1 RES1               0.0000
     12 C12         10.5760  13.0096   9.3305 C.3            1 RES1               0.0000
     13 C13          5.1309  12.9476  11.5212 C.ar           1 RES1               0.0000
     14 C14          5.8654  11.3017  13.0804 C.ar           1 RES1               0.0000
     15 C15         10.9688  12.7513  13.3920 C.2            1 RES1               0.0000
     16 C16          4.8407  12.0090  12.4883 C.ar           1 RES1               0.0000
     17 O17         11.8090  12.7769  14.2867 O.2            1 RES1               0.0000
     18 H18          8.6278  12.1224   9.2484 H              1 RES1               0.0000
     19 H19          8.6245  13.8783   9.4917 H              1 RES1               0.0000
     20 H20          6.6532  13.9225  10.3845 H              1 RES1               0.0000
     21 H21          7.9691  10.9632  13.1864 H              1 RES1               0.0000
     22 H22         10.3741  14.6858  13.6643 H              1 RES1               0.0000
     23 H23         11.2632  10.8033  12.8676 H              1 RES1               0.0000
     24 H24         10.6417  13.1588   8.2548 H              1 RES1               0.0000
     25 H25         11.0939  13.8324   9.8190 H              1 RES1               0.0000
     26 H26         11.0973  12.0869   9.5771 H              1 RES1               0.0000
     27 H27          4.3283  13.5078  11.0531 H              1 RES1               0.0000
     28 H28          5.6416  10.5626  13.8425 H              1 RES1               0.0000
     29 H29          3.8120  11.8282  12.7821 H              1 RES1               0.0000
@<TRIPOS>BOND
    1    1    2 1     
    2    1    3 1     
    3    1    4 1     
    4    1    5 1     
    5    2    6 ar    
    6    2    7 ar    
    7    3    8 1     
    8    3    9 2     
    9    4   10 1     
   10    4   11 2     
   11    5   12 1     
   12    5   18 1     
   13    5   19 1     
   14    6   13 ar    
   15    6   20 1     
   16    7   14 ar    
   17    7   21 1     
   18    8   15 1     
   19    8   22 1     
   20   10   15 1     
   21   10   23 1     
   22   12   24 1     
   23   12   25 1     
   24   12   26 1     
   25   13   16 ar    
   26   13   27 1     
   27   14   16 ar    
   28   14   28 1     
   29   15   17 2     
   30   16   29 1     
@<TRIPOS>SUBSTRUCTURE
      1 RES1           1
@<TRIPOS>SET
DONOR_HYDROGENS      STATIC     ATOMS    <user>   **** ""
2 22 23
ATOM$RED        STATIC     ATOMS    COLORGROUP SYSTEM
2 22 23
@<TRIPOS>COMMENT
> <Gold.Version>
2022.3.0

> <Gold.Id.Protein>
unknown|3mvj_clean|pdb

> <Gold.Protein.RotatedTorsions>
[ 9935 9915 9914 9913 ] final  114.69 input   59.98 | X-H torsion
[ 10984 10935 10934 10932 ] final  -65.20 input   60.03 | X-H torsion
[ 9832 9816 9817 9818 ] final -112.91 input   89.09 | X-H torsion
[ 9883 9871 9872 9873 ] final  -76.09 input -126.12 | X-H torsion
[ 9925 9907 9908 9909 ] final  171.07 input  109.17 | X-H torsion
[ 9887 9876 9875 9872 ] final   83.79 input   59.96 | X-H torsion
[ 10746 10695 10694 10692 ] final  -49.63 input   59.99 | X-H torsion
[ 11686 11631 11630 11629 ] final -113.83 input   60.02 | X-H torsion
[ 9775 9759 9760 9761 ] final  112.35 input  126.36 | X-H torsion
[ 11605 11587 11588 11589 ] final -116.37 input  114.14 | X-H torsion
[ 11559 11538 11537 11535 ] final   96.23 input   60.01 | X-H torsion
[ 11374 11358 11359 11360 ] final  -64.19 input   98.08 | X-H torsion
[ 11434 11416 11417 11418 ] final  -26.15 input  102.35 | X-H torsion
[ 11551 11527 11528 11529 ] final   95.45 input  127.83 | X-H torsion
[ 11812 11800 11801 11802 ] final  -23.10 input  127.47 | X-H torsion
[ 11650 11632 11633 11634 ] final -153.18 input  113.96 | X-H torsion
[ 11482 11466 11467 11468 ] final   38.88 input  126.08 | X-H torsion
[ 11767 11753 11754 11755 ] final -122.50 input  105.73 | X-H torsion
[ 11713 11697 11698 11699 ] final -113.07 input  116.95 | X-H torsion
[ 11576 11526 11525 11523 ] final  -31.64 input   60.00 | X-H torsion
[ 9362 9334 9332 9329 ] final  157.82 input   60.01 | X-H torsion
[ 7768 7713 7712 7711 ] final -123.88 input   60.03 | X-H torsion
[ 15484 15454 15453 15451 ] final   -7.66 input   59.98 | X-H torsion
[ 5787 5760 5759 5756 ] final  156.59 input   59.99 | X-H torsion
[ 1829 1810 1808 1805 ] final   96.12 input   60.00 | X-H torsion
[ 8490 8455 8453 8450 ] final   18.24 input   60.02 | X-H torsion
[ 1885 1872 1871 1868 ] final  109.97 input   59.98 | X-H torsion
[ 9510 9468 9467 9465 ] final  127.84 input   60.02 | X-H torsion
[ 3466 3411 3410 3409 ] final  -44.70 input   59.97 | X-H torsion
[ 16458 9819 9818 9817 ] final -176.06 input    0.00 | X-H torsion
[ 16464 9874 9873 9872 ] final   19.72 input    0.00 | X-H torsion
[ 16467 9762 9761 9760 ] final  146.78 input    0.00 | X-H torsion
[ 16495 9617 9616 9615 ] final   93.75 input    0.00 | X-H torsion
[ 16497 9705 9704 9703 ] final  -55.23 input    0.00 | X-H torsion
[ 16500 11530 11529 11528 ] final  152.88 input    0.00 | X-H torsion
[ 16504 11361 11360 11359 ] final  105.16 input    0.00 | X-H torsion
[ 16511 11318 11317 11316 ] final  -84.12 input    0.00 | X-H torsion
[ 16520 11590 11589 11588 ] final -121.34 input    0.00 | X-H torsion
[ 16523 11756 11755 11754 ] final   43.25 input    0.00 | X-H torsion
[ 16543 11419 11418 11417 ] final   12.60 input   -0.00 | X-H torsion
[ 16547 11469 11468 11467 ] final  103.31 input    0.00 | X-H torsion
[ 16571 11269 11268 11267 ] final  124.04 input   -0.00 | X-H torsion

> <Gold.Protein.ActiveResidues>
 THR48   LEU49   GLY50   THR51   GLY52   SER53   PHE54   GLY55   ARG56   VAL57  
 LYS78   LYS81   LEU82   LYS83   GLN84   HIS87   GLU127  PHE129  SER130  LEU132 
 ARG133  ARG134  ILE135  GLY136  ARG137  ARG165  ASP166  LEU167  LYS168  PRO169 
 GLU170  ASN171  LEU172  LEU173  THR183  ASP184  GLY186  PHE187  TPO197  LEU198 
 CYS199  GLY200  THR201  PRO202  GLU203  TYR204  LEU205  PRO207  ILE209  ILE210 
 LEU211  SER212  LYS213  VAL226  LEU227  TYR229  GLU230  ALA233  GLY234  TYR235 
 PRO236  PRO237  PHE238  PHE239  ALA240  ASP241  GLN242  PRO243  ILE244  GLN245 
 ILE246  TYR247  GLU248  LYS249  ILE250  VAL251  SER252  ARG256  PHE257  PRO258 
 SER259  PHE327  ASP328  TYR330 

> <Gold.Protein.RotatedAtoms>
   16.4496    5.7331   11.0291 H   0  0  0  0  0  0  0  0  0  0  0  0  # atno 1829 bound_to 1810
    6.5675    9.3441    9.8888 H   0  0  0  0  0  0  0  0  0  0  0  0  # atno 1885 bound_to 1872
    1.6449   10.9931   -5.9802 H   0  0  0  0  0  0  0  0  0  0  0  0  # atno 3466 bound_to 3411
    0.0475   11.1178   -6.4053 H   0  0  0  0  0  0  0  0  0  0  0  0  # atno 3467 bound_to 3411
    1.0775   12.3899   -6.6674 H   0  0  0  0  0  0  0  0  0  0  0  0  # atno 3468 bound_to 3411
   17.2475   12.0293   24.6912 H   0  0  0  0  0  0  0  0  0  0  0  0  # atno 5787 bound_to 5760
    7.8659   12.7943   14.6913 H   0  0  0  0  0  0  0  0  0  0  0  0  # atno 7768 bound_to 7713
    6.5890   12.9032   15.7422 H   0  0  0  0  0  0  0  0  0  0  0  0  # atno 7769 bound_to 7713
    6.4294   13.4473   14.1847 H   0  0  0  0  0  0  0  0  0  0  0  0  # atno 7770 bound_to 7713
   14.0801   19.0219   14.4207 H   0  0  0  0  0  0  0  0  0  0  0  0  # atno 8490 bound_to 8455
    5.0504   15.1807   14.3942 H   0  0  0  0  0  0  0  0  0  0  0  0  # atno 9362 bound_to 9334
    4.9481   18.2441   22.4189 H   0  0  0  0  0  0  0  0  0  0  0  0  # atno 9510 bound_to 9468
    7.7054    6.5337   41.2380 H   0  0  0  0  0  0  0  0  0  0  0  0  # atno 9775 bound_to 9759
    5.5635    7.9276   39.2964 H   0  0  0  0  0  0  0  0  0  0  0  0  # atno 9832 bound_to 9816
    4.9657    9.5579   41.7845 H   0  0  0  0  0  0  0  0  0  0  0  0  # atno 9883 bound_to 9871
    4.7794   12.2559   39.3924 H   0  0  0  0  0  0  0  0  0  0  0  0  # atno 9887 bound_to 9876
    2.8847    9.8393   43.1014 H   0  0  0  0  0  0  0  0  0  0  0  0  # atno 9925 bound_to 9907
   -0.9345    7.2452   41.8910 H   0  0  0  0  0  0  0  0  0  0  0  0  # atno 9935 bound_to 9915
   -2.1876    6.6435   42.7942 H   0  0  0  0  0  0  0  0  0  0  0  0  # atno 9936 bound_to 9915
   -1.3984    8.0165   43.2833 H   0  0  0  0  0  0  0  0  0  0  0  0  # atno 9937 bound_to 9915
   -4.3715   16.1729   29.8907 H   0  0  0  0  0  0  0  0  0  0  0  0  # atno 10746 bound_to 10695
   -2.8236   15.4827   33.2722 H   0  0  0  0  0  0  0  0  0  0  0  0  # atno 10984 bound_to 10935
   11.4467    4.5567   30.6518 H   0  0  0  0  0  0  0  0  0  0  0  0  # atno 11374 bound_to 11358
    9.5646    3.2976   30.5487 H   0  0  0  0  0  0  0  0  0  0  0  0  # atno 11434 bound_to 11416
   10.0542    2.0790   31.2066 H   0  0  0  0  0  0  0  0  0  0  0  0  # atno 11482 bound_to 11466
    9.6332    3.0132   32.7306 H   0  0  0  0  0  0  0  0  0  0  0  0  # atno 11551 bound_to 11527
   13.2518    7.8633   33.7821 H   0  0  0  0  0  0  0  0  0  0  0  0  # atno 11559 bound_to 11538
   -2.9180   11.9084   12.2275 H   0  0  0  0  0  0  0  0  0  0  0  0  # atno 11576 bound_to 11526
    6.7755    2.6440   33.8173 H   0  0  0  0  0  0  0  0  0  0  0  0  # atno 11605 bound_to 11587
    6.5040   -0.9399   32.8068 H   0  0  0  0  0  0  0  0  0  0  0  0  # atno 11650 bound_to 11632
   -8.9685    7.9499   25.6516 H   0  0  0  0  0  0  0  0  0  0  0  0  # atno 11686 bound_to 11631
   -7.8101    9.0945   25.9578 H   0  0  0  0  0  0  0  0  0  0  0  0  # atno 11687 bound_to 11631
   -9.0621    8.8790   27.0215 H   0  0  0  0  0  0  0  0  0  0  0  0  # atno 11688 bound_to 11631
    8.0248   -2.0148   36.0583 H   0  0  0  0  0  0  0  0  0  0  0  0  # atno 11713 bound_to 11697
    6.3740    0.1892   38.3699 H   0  0  0  0  0  0  0  0  0  0  0  0  # atno 11767 bound_to 11753
    3.6223   -1.2678   38.0148 H   0  0  0  0  0  0  0  0  0  0  0  0  # atno 11812 bound_to 11800
   16.2924    8.8905   18.4649 H   0  0  0  0  0  0  0  0  0  0  0  0  # atno 15484 bound_to 15454
    2.0845   10.9266   41.5176 LP  0  0  0  0  0  0  0  0  0  0  0  0  # atno 16458 bound_to 9819
    1.4806    9.5325   40.6857 LP  0  0  0  0  0  0  0  0  0  0  0  0  # atno 16459 bound_to 9819
   -2.3519   14.3229   34.3118 LP  0  0  0  0  0  0  0  0  0  0  0  0  # atno 16460 bound_to 10935
   -3.6207   14.0646   33.3167 LP  0  0  0  0  0  0  0  0  0  0  0  0  # atno 16461 bound_to 10935
    5.2691    7.5183   40.9684 LP  0  0  0  0  0  0  0  0  0  0  0  0  # atno 16462 bound_to 9816
    4.0257   10.2088   40.4620 LP  0  0  0  0  0  0  0  0  0  0  0  0  # atno 16463 bound_to 9871
    2.5297   13.2702   42.8893 LP  0  0  0  0  0  0  0  0  0  0  0  0  # atno 16464 bound_to 9874
    2.1967   12.5946   44.4490 LP  0  0  0  0  0  0  0  0  0  0  0  0  # atno 16465 bound_to 9874
    3.9215   10.9939   43.9057 LP  0  0  0  0  0  0  0  0  0  0  0  0  # atno 16466 bound_to 9907
    4.8314    9.2675   37.9733 LP  0  0  0  0  0  0  0  0  0  0  0  0  # atno 16467 bound_to 9762
    6.4781    9.7695   38.1648 LP  0  0  0  0  0  0  0  0  0  0  0  0  # atno 16468 bound_to 9762
    5.8655   12.6785   40.5282 LP  0  0  0  0  0  0  0  0  0  0  0  0  # atno 16469 bound_to 9876
    4.9697   13.8237   39.7848 LP  0  0  0  0  0  0  0  0  0  0  0  0  # atno 16470 bound_to 9876
   -5.1113   17.5043   30.4621 LP  0  0  0  0  0  0  0  0  0  0  0  0  # atno 16477 bound_to 10695
   -3.8108   16.8926   31.2376 LP  0  0  0  0  0  0  0  0  0  0  0  0  # atno 16478 bound_to 10695
    4.4092    5.3153   41.5560 LP  0  0  0  0  0  0  0  0  0  0  0  0  # atno 16495 bound_to 9617
    5.9959    5.9213   41.2166 LP  0  0  0  0  0  0  0  0  0  0  0  0  # atno 16496 bound_to 9617
    6.7648   10.1795   41.7667 LP  0  0  0  0  0  0  0  0  0  0  0  0  # atno 16497 bound_to 9705
    7.9059   10.0694   40.4684 LP  0  0  0  0  0  0  0  0  0  0  0  0  # atno 16498 bound_to 9705
    7.9224    8.2666   41.3338 LP  0  0  0  0  0  0  0  0  0  0  0  0  # atno 16499 bound_to 9759
    5.6133    1.8465   35.4890 LP  0  0  0  0  0  0  0  0  0  0  0  0  # atno 16500 bound_to 11530
    7.0710    2.0046   36.4110 LP  0  0  0  0  0  0  0  0  0  0  0  0  # atno 16501 bound_to 11530
    6.9037    3.3936   30.5548 LP  0  0  0  0  0  0  0  0  0  0  0  0  # atno 16504 bound_to 11361
    7.8522    3.3602   32.0036 LP  0  0  0  0  0  0  0  0  0  0  0  0  # atno 16505 bound_to 11361
    7.7090    1.4465   32.9460 LP  0  0  0  0  0  0  0  0  0  0  0  0  # atno 16508 bound_to 11587
   13.2250    7.7931   35.4074 LP  0  0  0  0  0  0  0  0  0  0  0  0  # atno 16509 bound_to 11538
   12.3981    8.9632   34.6239 LP  0  0  0  0  0  0  0  0  0  0  0  0  # atno 16510 bound_to 11538
   11.2214    3.1570   32.1133 LP  0  0  0  0  0  0  0  0  0  0  0  0  # atno 16511 bound_to 11318
   10.8790    4.7012   32.8192 LP  0  0  0  0  0  0  0  0  0  0  0  0  # atno 16512 bound_to 11318
   11.1253    5.5030   29.2293 LP  0  0  0  0  0  0  0  0  0  0  0  0  # atno 16513 bound_to 11358
    9.6252    3.3600   28.8046 LP  0  0  0  0  0  0  0  0  0  0  0  0  # atno 16514 bound_to 11416
   10.1403    1.8552   33.9312 LP  0  0  0  0  0  0  0  0  0  0  0  0  # atno 16515 bound_to 11527
    5.0144   -1.0195   35.5462 LP  0  0  0  0  0  0  0  0  0  0  0  0  # atno 16520 bound_to 11590
    3.9585   -1.0084   34.1733 LP  0  0  0  0  0  0  0  0  0  0  0  0  # atno 16521 bound_to 11590
    3.7267   -0.9559   36.2982 LP  0  0  0  0  0  0  0  0  0  0  0  0  # atno 16522 bound_to 11800
    2.0142   -0.3498   39.5619 LP  0  0  0  0  0  0  0  0  0  0  0  0  # atno 16523 bound_to 11756
    2.3807   -2.0303   39.3581 LP  0  0  0  0  0  0  0  0  0  0  0  0  # atno 16524 bound_to 11756
    7.8481   -0.4240   30.8410 LP  0  0  0  0  0  0  0  0  0  0  0  0  # atno 16543 bound_to 11419
    8.7749   -0.3532   32.3026 LP  0  0  0  0  0  0  0  0  0  0  0  0  # atno 16544 bound_to 11419
    7.1902   -0.1682   34.2139 LP  0  0  0  0  0  0  0  0  0  0  0  0  # atno 16545 bound_to 11632
   10.6954    0.5670   30.5982 LP  0  0  0  0  0  0  0  0  0  0  0  0  # atno 16546 bound_to 11466
    9.5766    0.4717   35.4016 LP  0  0  0  0  0  0  0  0  0  0  0  0  # atno 16547 bound_to 11469
    8.6151   -0.0988   34.0786 LP  0  0  0  0  0  0  0  0  0  0  0  0  # atno 16548 bound_to 11469
    5.6437   -0.1314   36.8150 LP  0  0  0  0  0  0  0  0  0  0  0  0  # atno 16549 bound_to 11753
    7.3348   -0.4341   35.7319 LP  0  0  0  0  0  0  0  0  0  0  0  0  # atno 16550 bound_to 11697
   -3.6501   10.8379   11.2445 LP  0  0  0  0  0  0  0  0  0  0  0  0  # atno 16565 bound_to 11526
   -2.9738   10.3361   12.6436 LP  0  0  0  0  0  0  0  0  0  0  0  0  # atno 16566 bound_to 11526
    4.0495   15.1997   13.1109 LP  0  0  0  0  0  0  0  0  0  0  0  0  # atno 16567 bound_to 9334
    4.7237   13.7963   13.6032 LP  0  0  0  0  0  0  0  0  0  0  0  0  # atno 16568 bound_to 9334
   12.7214    2.3473   30.0438 LP  0  0  0  0  0  0  0  0  0  0  0  0  # atno 16571 bound_to 11269
   11.5918    2.6257   28.7606 LP  0  0  0  0  0  0  0  0  0  0  0  0  # atno 16572 bound_to 11269
   15.0188    7.8780   18.4532 LP  0  0  0  0  0  0  0  0  0  0  0  0  # atno 16581 bound_to 15454
   15.2483    8.9207   17.2175 LP  0  0  0  0  0  0  0  0  0  0  0  0  # atno 16582 bound_to 15454
   16.3115   13.1083   25.4704 LP  0  0  0  0  0  0  0  0  0  0  0  0  # atno 16589 bound_to 5760
   16.1654   12.9117   23.8559 LP  0  0  0  0  0  0  0  0  0  0  0  0  # atno 16590 bound_to 5760
   15.2072    6.5261   10.3386 LP  0  0  0  0  0  0  0  0  0  0  0  0  # atno 16601 bound_to 1810
   14.9548    5.0911   11.0759 LP  0  0  0  0  0  0  0  0  0  0  0  0  # atno 16602 bound_to 1810
   15.2864   19.0847   15.5110 LP  0  0  0  0  0  0  0  0  0  0  0  0  # atno 16609 bound_to 8455
   15.3417   18.0026   14.2893 LP  0  0  0  0  0  0  0  0  0  0  0  0  # atno 16610 bound_to 8455
    6.9145    7.8097    9.4731 LP  0  0  0  0  0  0  0  0  0  0  0  0  # atno 16611 bound_to 1872
    5.8504    8.6775    8.5892 LP  0  0  0  0  0  0  0  0  0  0  0  0  # atno 16612 bound_to 1872
    4.3067   16.7693   22.6651 LP  0  0  0  0  0  0  0  0  0  0  0  0  # atno 16621 bound_to 9468
    3.5189   18.1025   23.1834 LP  0  0  0  0  0  0  0  0  0  0  0  0  # atno 16622 bound_to 9468

> <Gold.Score>
     Fitness  S(hb_ext) S(vdw_ext)  S(hb_int)    S(int)      intcor
     33.43       4.34      21.92       0.00      -1.04      -0.76

> <Gold.Goldscore.Fitness>
33.4330

> <Gold.Goldscore.Internal.Vdw>
-1.3352

> <Gold.Goldscore.Internal.Torsion>
-0.4644

> <Gold.Goldscore.External.Vdw>
21.9164

> <Gold.Goldscore.Internal.HBond>
0.0000

> <Gold.Goldscore.External.HBond>
4.3389

> <Gold.Goldscore.Internal.Correction>
-0.7585

> <Gold.Goldscore.Hbonds>
donor molecule, donor type, donor heavy atom, donor atom, acceptor molecule, acceptor atom, score
      P1  H  1867  1886       L1    11  0.31
      P1  H  7864  7898       L1     9  0.48
      L1  H     8    22       P1  7865  0.99
      L1  H    10    23       P1  1807  0.39

> <Gold.Goldscore.Internal.Vdw.Weighted>
-1.3352

> <Gold.Goldscore.Internal.Torsion.Weighted>
-0.4644

> <Gold.Goldscore.External.Vdw.Weighted>
30.1351

> <Gold.Goldscore.Internal.HBond.Weighted>
0.0000

> <Gold.Goldscore.External.HBond.Weighted>
4.3389

> <Gold.Goldscore.Internal.Correction.Weighted>
-0.7585

> <Gold.Rescore>
     Score     S(PLP)   S(hbond)     S(cho)   S(metal)  DE(clash)   DE(tors)     intcor
     26.00     -23.29       1.45       0.00       0.00       0.01       0.82       ----

> <Gold.PLP.Fitness>
25.9985

> <Gold.PLP.PLP>
-23.2939

> <Gold.PLP.part.hbond>
-1.7834

> <Gold.PLP.part.metal>
0.0000

> <Gold.PLP.part.buried>
-1.0937

> <Gold.PLP.part.nonpolar>
-23.9937

> <Gold.PLP.part.repulsive>
5.1538

> <Gold.PLP.ligand.clash>
0.0110

> <Gold.PLP.ligand.torsion>
0.8161

> <Gold.PLP.Chemscore.Hbond>
1.4493

> <Gold.PLP.Chemscore.CHOScore>
0.0000

> <Gold.PLP.Chemscore.Metal>
0.0000

> <Gold.Chemscore.Hbonds>
donor molecule, donor type, donor heavy atom, donor atom, acceptor molecule, acceptor atom, score
      L1  H     8    22       P1  7865  0.94
      P1  H  1867  1886       L1    11  0.67

> <Gold.PLP.Chemscore.Internal.Correction>
   9.000000E+99

