#       Name:                CT1002167954
#       Creating user name   hitesit
#       Creation time:       Sun Apr 16 22:53:20 2023


#       File generated by GOLD software.
#

@<TRIPOS>MOLECULE
CT1002167954|ligand_prepared|mol2|1|dock6
    29    30     1
SMALL
NO_CHARGES


@<TRIPOS>ATOM
      1 C1           9.1443  12.5800  11.6803 C.3            1 RES1               0.0000
      2 C2           9.6356  12.2180  13.0967 C.ar           1 RES1               0.0000
      3 C3           8.1956  11.4623  11.2572 C.2            1 RES1               0.0000
      4 C4           8.4815  13.9483  11.7953 C.2            1 RES1               0.0000
      5 C5          10.2778  12.6847  10.6335 C.3            1 RES1               0.0000
      6 C6           8.9105  11.3385  13.8950 C.ar           1 RES1               0.0000
      7 C7          10.8113  12.7525  13.6169 C.ar           1 RES1               0.0000
      8 N8           6.8601  11.7380  11.2447 N.am           1 RES1               0.0000
      9 O9           8.6101  10.3443  10.9769 O.2            1 RES1               0.0000
     10 N10          7.1327  14.0296  11.5675 N.am           1 RES1               0.0000
     11 O11          9.1122  14.9539  12.0975 O.2            1 RES1               0.0000
     12 C12          9.7810  12.7889   9.2001 C.3            1 RES1               0.0000
     13 C13          9.3464  11.0031  15.1662 C.ar           1 RES1               0.0000
     14 C14         11.2454  12.4160  14.8884 C.ar           1 RES1               0.0000
     15 C15          6.2866  12.9814  11.3276 C.2            1 RES1               0.0000
     16 C16         10.5142  11.5411  15.6635 C.ar           1 RES1               0.0000
     17 O17          5.0759  13.1281  11.1869 O.2            1 RES1               0.0000
     18 H18         10.8879  13.5676  10.8608 H              1 RES1               0.0000
     19 H19         10.9217  11.8008  10.7206 H              1 RES1               0.0000
     20 H20          7.9878  10.9069  13.5216 H              1 RES1               0.0000
     21 H21         11.4022  13.4437  13.0254 H              1 RES1               0.0000
     22 H22          6.2294  10.9465  11.1665 H              1 RES1               0.0000
     23 H23          6.7213  14.9575  11.5777 H              1 RES1               0.0000
     24 H24         10.6163  12.8598   8.5066 H              1 RES1               0.0000
     25 H25          9.1911  11.9149   8.9319 H              1 RES1               0.0000
     26 H26          9.1575  13.6712   9.0712 H              1 RES1               0.0000
     27 H27          8.7667  10.3152  15.7727 H              1 RES1               0.0000
     28 H28         12.1647  12.8423  15.2760 H              1 RES1               0.0000
     29 H29         10.8557  11.2779  16.6592 H              1 RES1               0.0000
@<TRIPOS>BOND
    1    1    2 1     
    2    1    3 1     
    3    1    4 1     
    4    1    5 1     
    5    2    6 ar    
    6    2    7 ar    
    7    3    8 1     
    8    3    9 2     
    9    4   10 1     
   10    4   11 2     
   11    5   12 1     
   12    5   18 1     
   13    5   19 1     
   14    6   13 ar    
   15    6   20 1     
   16    7   14 ar    
   17    7   21 1     
   18    8   15 1     
   19    8   22 1     
   20   10   15 1     
   21   10   23 1     
   22   12   24 1     
   23   12   25 1     
   24   12   26 1     
   25   13   16 ar    
   26   13   27 1     
   27   14   16 ar    
   28   14   28 1     
   29   15   17 2     
   30   16   29 1     
@<TRIPOS>SUBSTRUCTURE
      1 RES1           1
@<TRIPOS>SET
DONOR_HYDROGENS      STATIC     ATOMS    <user>   **** ""
2 22 23
ATOM$RED        STATIC     ATOMS    COLORGROUP SYSTEM
2 22 23
@<TRIPOS>COMMENT
> <Gold.Version>
2022.3.0

> <Gold.Id.Protein>
unknown|3mvj_clean|pdb

> <Gold.Protein.RotatedTorsions>
[ 9935 9915 9914 9913 ] final   12.49 input   59.98 | X-H torsion
[ 10984 10935 10934 10932 ] final -143.07 input   60.03 | X-H torsion
[ 9832 9816 9817 9818 ] final    9.61 input   89.09 | X-H torsion
[ 9883 9871 9872 9873 ] final  -15.83 input -126.12 | X-H torsion
[ 9925 9907 9908 9909 ] final  -23.08 input  109.17 | X-H torsion
[ 9887 9876 9875 9872 ] final   65.95 input   59.96 | X-H torsion
[ 10746 10695 10694 10692 ] final -177.69 input   59.99 | X-H torsion
[ 11686 11631 11630 11629 ] final  131.86 input   60.02 | X-H torsion
[ 9775 9759 9760 9761 ] final  150.39 input  126.36 | X-H torsion
[ 11605 11587 11588 11589 ] final   88.88 input  114.14 | X-H torsion
[ 11559 11538 11537 11535 ] final   43.08 input   60.01 | X-H torsion
[ 11374 11358 11359 11360 ] final  157.08 input   98.08 | X-H torsion
[ 11434 11416 11417 11418 ] final  162.72 input  102.35 | X-H torsion
[ 11551 11527 11528 11529 ] final  157.25 input  127.83 | X-H torsion
[ 11812 11800 11801 11802 ] final  -76.43 input  127.47 | X-H torsion
[ 11650 11632 11633 11634 ] final -172.95 input  113.96 | X-H torsion
[ 11482 11466 11467 11468 ] final  -62.55 input  126.08 | X-H torsion
[ 11767 11753 11754 11755 ] final  -91.42 input  105.73 | X-H torsion
[ 11713 11697 11698 11699 ] final   49.25 input  116.95 | X-H torsion
[ 11576 11526 11525 11523 ] final  -57.04 input   60.00 | X-H torsion
[ 9362 9334 9332 9329 ] final -125.09 input   60.01 | X-H torsion
[ 7768 7713 7712 7711 ] final  177.49 input   60.03 | X-H torsion
[ 15484 15454 15453 15451 ] final  -42.95 input   59.98 | X-H torsion
[ 5787 5760 5759 5756 ] final  131.41 input   59.99 | X-H torsion
[ 1829 1810 1808 1805 ] final  -78.13 input   60.00 | X-H torsion
[ 8490 8455 8453 8450 ] final  -58.47 input   60.02 | X-H torsion
[ 1885 1872 1871 1868 ] final   44.58 input   59.98 | X-H torsion
[ 9510 9468 9467 9465 ] final  -59.86 input   60.02 | X-H torsion
[ 3466 3411 3410 3409 ] final   83.49 input   59.97 | X-H torsion
[ 16458 9819 9818 9817 ] final -105.87 input    0.00 | X-H torsion
[ 16464 9874 9873 9872 ] final   27.70 input    0.00 | X-H torsion
[ 16467 9762 9761 9760 ] final  121.91 input    0.00 | X-H torsion
[ 16495 9617 9616 9615 ] final  -98.88 input    0.00 | X-H torsion
[ 16497 9705 9704 9703 ] final  178.85 input    0.00 | X-H torsion
[ 16500 11530 11529 11528 ] final -159.61 input    0.00 | X-H torsion
[ 16504 11361 11360 11359 ] final  -49.62 input    0.00 | X-H torsion
[ 16511 11318 11317 11316 ] final  171.19 input    0.00 | X-H torsion
[ 16520 11590 11589 11588 ] final  -93.31 input    0.00 | X-H torsion
[ 16523 11756 11755 11754 ] final  -60.95 input    0.00 | X-H torsion
[ 16543 11419 11418 11417 ] final  131.90 input   -0.00 | X-H torsion
[ 16547 11469 11468 11467 ] final   -5.99 input    0.00 | X-H torsion
[ 16571 11269 11268 11267 ] final  137.43 input   -0.00 | X-H torsion

> <Gold.Protein.ActiveResidues>
 THR48   LEU49   GLY50   THR51   GLY52   SER53   PHE54   GLY55   ARG56   VAL57  
 LYS78   LYS81   LEU82   LYS83   GLN84   HIS87   GLU127  PHE129  SER130  LEU132 
 ARG133  ARG134  ILE135  GLY136  ARG137  ARG165  ASP166  LEU167  LYS168  PRO169 
 GLU170  ASN171  LEU172  LEU173  THR183  ASP184  GLY186  PHE187  TPO197  LEU198 
 CYS199  GLY200  THR201  PRO202  GLU203  TYR204  LEU205  PRO207  ILE209  ILE210 
 LEU211  SER212  LYS213  VAL226  LEU227  TYR229  GLU230  ALA233  GLY234  TYR235 
 PRO236  PRO237  PHE238  PHE239  ALA240  ASP241  GLN242  PRO243  ILE244  GLN245 
 ILE246  TYR247  GLU248  LYS249  ILE250  VAL251  SER252  ARG256  PHE257  PRO258 
 SER259  PHE327  ASP328  TYR330 

> <Gold.Protein.RotatedAtoms>
   14.6474    5.9172   10.5623 H   0  0  0  0  0  0  0  0  0  0  0  0  # atno 1829 bound_to 1810
    7.0507    8.4650   10.0162 H   0  0  0  0  0  0  0  0  0  0  0  0  # atno 1885 bound_to 1872
    0.0105   11.2363   -6.4619 H   0  0  0  0  0  0  0  0  0  0  0  0  # atno 3466 bound_to 3411
    1.2071   12.3713   -6.6290 H   0  0  0  0  0  0  0  0  0  0  0  0  # atno 3467 bound_to 3411
    1.5525   10.8934   -5.9621 H   0  0  0  0  0  0  0  0  0  0  0  0  # atno 3468 bound_to 3411
   17.2192   12.1391   25.0832 H   0  0  0  0  0  0  0  0  0  0  0  0  # atno 5787 bound_to 5760
    7.3539   13.1844   14.0107 H   0  0  0  0  0  0  0  0  0  0  0  0  # atno 7768 bound_to 7713
    7.4760   12.6508   15.5750 H   0  0  0  0  0  0  0  0  0  0  0  0  # atno 7769 bound_to 7713
    6.0550   13.3094   15.0323 H   0  0  0  0  0  0  0  0  0  0  0  0  # atno 7770 bound_to 7713
   14.6817   19.3812   15.3474 H   0  0  0  0  0  0  0  0  0  0  0  0  # atno 8490 bound_to 8455
    5.0833   14.0432   14.1345 H   0  0  0  0  0  0  0  0  0  0  0  0  # atno 9362 bound_to 9334
    3.5149   17.2765   23.1244 H   0  0  0  0  0  0  0  0  0  0  0  0  # atno 9510 bound_to 9468
    8.2459    6.6647   41.0812 H   0  0  0  0  0  0  0  0  0  0  0  0  # atno 9775 bound_to 9759
    5.5849    8.2786   40.8019 H   0  0  0  0  0  0  0  0  0  0  0  0  # atno 9832 bound_to 9816
    4.0823    9.4599   41.7743 H   0  0  0  0  0  0  0  0  0  0  0  0  # atno 9883 bound_to 9871
    4.9571   12.0865   39.5474 H   0  0  0  0  0  0  0  0  0  0  0  0  # atno 9887 bound_to 9876
    3.7926   11.1517   43.8329 H   0  0  0  0  0  0  0  0  0  0  0  0  # atno 9925 bound_to 9907
   -1.1821    8.0881   43.0944 H   0  0  0  0  0  0  0  0  0  0  0  0  # atno 9935 bound_to 9915
   -1.1018    7.0053   41.8416 H   0  0  0  0  0  0  0  0  0  0  0  0  # atno 9936 bound_to 9915
   -2.2376    6.8110   43.0331 H   0  0  0  0  0  0  0  0  0  0  0  0  # atno 9937 bound_to 9915
   -5.0529   17.5526   30.5704 H   0  0  0  0  0  0  0  0  0  0  0  0  # atno 10746 bound_to 10695
   -2.1971   14.9499   34.1139 H   0  0  0  0  0  0  0  0  0  0  0  0  # atno 10984 bound_to 10935
   11.3038    5.8585   29.6968 H   0  0  0  0  0  0  0  0  0  0  0  0  # atno 11374 bound_to 11358
    9.4983    3.4086   28.7962 H   0  0  0  0  0  0  0  0  0  0  0  0  # atno 11434 bound_to 11416
    9.6802    0.7672   30.9982 H   0  0  0  0  0  0  0  0  0  0  0  0  # atno 11482 bound_to 11466
   10.2697    3.2195   33.3313 H   0  0  0  0  0  0  0  0  0  0  0  0  # atno 11551 bound_to 11527
   13.5133    7.4633   34.4698 H   0  0  0  0  0  0  0  0  0  0  0  0  # atno 11559 bound_to 11538
   -3.1098   11.9469   11.8652 H   0  0  0  0  0  0  0  0  0  0  0  0  # atno 11576 bound_to 11526
    7.5891    1.6539   32.6457 H   0  0  0  0  0  0  0  0  0  0  0  0  # atno 11605 bound_to 11587
    6.7942   -0.9292   32.7237 H   0  0  0  0  0  0  0  0  0  0  0  0  # atno 11650 bound_to 11632
   -9.1265    8.8122   27.0001 H   0  0  0  0  0  0  0  0  0  0  0  0  # atno 11686 bound_to 11631
   -8.8950    7.9662   25.5942 H   0  0  0  0  0  0  0  0  0  0  0  0  # atno 11687 bound_to 11631
   -7.8188    9.1456   26.0371 H   0  0  0  0  0  0  0  0  0  0  0  0  # atno 11688 bound_to 11631
    7.0870   -0.5260   35.8137 H   0  0  0  0  0  0  0  0  0  0  0  0  # atno 11713 bound_to 11697
    6.2796   -0.2751   38.3673 H   0  0  0  0  0  0  0  0  0  0  0  0  # atno 11767 bound_to 11753
    3.0813   -0.7737   37.7089 H   0  0  0  0  0  0  0  0  0  0  0  0  # atno 11812 bound_to 11800
   16.0750    8.4850   18.7970 H   0  0  0  0  0  0  0  0  0  0  0  0  # atno 15484 bound_to 15454
    1.9056   10.8766   40.5394 LP  0  0  0  0  0  0  0  0  0  0  0  0  # atno 16458 bound_to 9819
    1.6595    9.5825   41.6640 LP  0  0  0  0  0  0  0  0  0  0  0  0  # atno 16459 bound_to 9819
   -3.2599   13.7578   33.8015 LP  0  0  0  0  0  0  0  0  0  0  0  0  # atno 16460 bound_to 10935
   -3.3437   15.1663   32.9795 LP  0  0  0  0  0  0  0  0  0  0  0  0  # atno 16461 bound_to 10935
    5.2481    7.1741   39.4918 LP  0  0  0  0  0  0  0  0  0  0  0  0  # atno 16462 bound_to 9816
    4.8867   10.3043   40.4719 LP  0  0  0  0  0  0  0  0  0  0  0  0  # atno 16463 bound_to 9871
    2.4286   13.2154   42.8533 LP  0  0  0  0  0  0  0  0  0  0  0  0  # atno 16464 bound_to 9874
    2.2978   12.6494   44.4850 LP  0  0  0  0  0  0  0  0  0  0  0  0  # atno 16465 bound_to 9874
    3.0353    9.7129   43.1916 LP  0  0  0  0  0  0  0  0  0  0  0  0  # atno 16466 bound_to 9907
    5.0092    9.0575   37.7217 LP  0  0  0  0  0  0  0  0  0  0  0  0  # atno 16467 bound_to 9762
    6.3003    9.9795   38.4165 LP  0  0  0  0  0  0  0  0  0  0  0  0  # atno 16468 bound_to 9762
    5.8676   12.9680   40.5684 LP  0  0  0  0  0  0  0  0  0  0  0  0  # atno 16469 bound_to 9876
    4.7887   13.7046   39.5885 LP  0  0  0  0  0  0  0  0  0  0  0  0  # atno 16470 bound_to 9876
   -3.7571   16.7839   31.1840 LP  0  0  0  0  0  0  0  0  0  0  0  0  # atno 16477 bound_to 10695
   -4.4782   16.2226   29.8307 LP  0  0  0  0  0  0  0  0  0  0  0  0  # atno 16478 bound_to 10695
    5.9567    6.0430   41.3579 LP  0  0  0  0  0  0  0  0  0  0  0  0  # atno 16495 bound_to 9617
    4.4484    5.1936   41.4148 LP  0  0  0  0  0  0  0  0  0  0  0  0  # atno 16496 bound_to 9617
    7.1698    9.8329   40.3191 LP  0  0  0  0  0  0  0  0  0  0  0  0  # atno 16497 bound_to 9705
    7.5009   10.4161   41.9160 LP  0  0  0  0  0  0  0  0  0  0  0  0  # atno 16498 bound_to 9705
    7.3965    8.1391   41.4864 LP  0  0  0  0  0  0  0  0  0  0  0  0  # atno 16499 bound_to 9759
    5.9603    1.2468   35.5712 LP  0  0  0  0  0  0  0  0  0  0  0  0  # atno 16500 bound_to 11530
    6.7240    2.6043   36.3288 LP  0  0  0  0  0  0  0  0  0  0  0  0  # atno 16501 bound_to 11530
    7.7421    3.7216   31.9853 LP  0  0  0  0  0  0  0  0  0  0  0  0  # atno 16504 bound_to 11361
    7.0138    3.0321   30.5731 LP  0  0  0  0  0  0  0  0  0  0  0  0  # atno 16505 bound_to 11361
    6.9218    2.4045   34.0795 LP  0  0  0  0  0  0  0  0  0  0  0  0  # atno 16508 bound_to 11587
   12.7224    8.4671   35.4769 LP  0  0  0  0  0  0  0  0  0  0  0  0  # atno 16509 bound_to 11538
   12.6372    8.6922   33.8617 LP  0  0  0  0  0  0  0  0  0  0  0  0  # atno 16510 bound_to 11538
   10.2322    4.0985   32.2378 LP  0  0  0  0  0  0  0  0  0  0  0  0  # atno 16511 bound_to 11318
   11.8682    3.7596   32.6948 LP  0  0  0  0  0  0  0  0  0  0  0  0  # atno 16512 bound_to 11318
   11.2692    4.1921   30.1911 LP  0  0  0  0  0  0  0  0  0  0  0  0  # atno 16513 bound_to 11358
    9.6902    3.2511   30.5249 LP  0  0  0  0  0  0  0  0  0  0  0  0  # atno 16514 bound_to 11416
    9.5094    1.6506   33.3357 LP  0  0  0  0  0  0  0  0  0  0  0  0  # atno 16515 bound_to 11527
    4.8359   -0.6401   35.5584 LP  0  0  0  0  0  0  0  0  0  0  0  0  # atno 16520 bound_to 11590
    4.1370   -1.3878   34.1611 LP  0  0  0  0  0  0  0  0  0  0  0  0  # atno 16521 bound_to 11590
    4.2547   -1.4380   36.5967 LP  0  0  0  0  0  0  0  0  0  0  0  0  # atno 16522 bound_to 11800
    2.8662   -1.3277   39.9928 LP  0  0  0  0  0  0  0  0  0  0  0  0  # atno 16523 bound_to 11756
    1.5288   -1.0523   38.9272 LP  0  0  0  0  0  0  0  0  0  0  0  0  # atno 16524 bound_to 11756
    8.9927   -0.9147   31.6677 LP  0  0  0  0  0  0  0  0  0  0  0  0  # atno 16543 bound_to 11419
    7.6303    0.1375   31.4759 LP  0  0  0  0  0  0  0  0  0  0  0  0  # atno 16544 bound_to 11419
    6.9049   -0.1787   34.2956 LP  0  0  0  0  0  0  0  0  0  0  0  0  # atno 16545 bound_to 11632
   11.0561    1.8325   30.7992 LP  0  0  0  0  0  0  0  0  0  0  0  0  # atno 16546 bound_to 11466
    9.5097   -0.4636   34.3450 LP  0  0  0  0  0  0  0  0  0  0  0  0  # atno 16547 bound_to 11469
    8.6820    0.8365   35.1352 LP  0  0  0  0  0  0  0  0  0  0  0  0  # atno 16548 bound_to 11469
    5.7360    0.3220   36.8175 LP  0  0  0  0  0  0  0  0  0  0  0  0  # atno 16549 bound_to 11753
    8.2277   -1.8516   35.9648 LP  0  0  0  0  0  0  0  0  0  0  0  0  # atno 16550 bound_to 11697
   -3.6193   10.4655   11.4243 LP  0  0  0  0  0  0  0  0  0  0  0  0  # atno 16565 bound_to 11526
   -2.8115   10.6697   12.8287 LP  0  0  0  0  0  0  0  0  0  0  0  0  # atno 16566 bound_to 11526
    4.6711   15.6134   14.0180 LP  0  0  0  0  0  0  0  0  0  0  0  0  # atno 16567 bound_to 9334
    4.0689   14.5275   12.9574 LP  0  0  0  0  0  0  0  0  0  0  0  0  # atno 16568 bound_to 9334
   12.6165    2.4932   30.1360 LP  0  0  0  0  0  0  0  0  0  0  0  0  # atno 16571 bound_to 11269
   11.6966    2.4798   28.6685 LP  0  0  0  0  0  0  0  0  0  0  0  0  # atno 16572 bound_to 11269
   14.7615    8.0128   17.9610 LP  0  0  0  0  0  0  0  0  0  0  0  0  # atno 16581 bound_to 15454
   15.7246    9.1943   17.3753 LP  0  0  0  0  0  0  0  0  0  0  0  0  # atno 16582 bound_to 15454
   16.0692   13.2852   25.1895 LP  0  0  0  0  0  0  0  0  0  0  0  0  # atno 16589 bound_to 5760
   16.4361   12.6242   23.7420 LP  0  0  0  0  0  0  0  0  0  0  0  0  # atno 16590 bound_to 5760
   15.7829    5.0065   11.2905 LP  0  0  0  0  0  0  0  0  0  0  0  0  # atno 16601 bound_to 1810
   16.1933    6.4253   10.5940 LP  0  0  0  0  0  0  0  0  0  0  0  0  # atno 16602 bound_to 1810
   15.7018   18.2176   14.8439 LP  0  0  0  0  0  0  0  0  0  0  0  0  # atno 16609 bound_to 8455
   14.3203   18.5077   14.0229 LP  0  0  0  0  0  0  0  0  0  0  0  0  # atno 16610 bound_to 8455
    6.2637    7.9257    8.6981 LP  0  0  0  0  0  0  0  0  0  0  0  0  # atno 16611 bound_to 1872
    6.0144    9.4472    9.2359 LP  0  0  0  0  0  0  0  0  0  0  0  0  # atno 16612 bound_to 1872
    4.3248   18.6465   22.7867 LP  0  0  0  0  0  0  0  0  0  0  0  0  # atno 16621 bound_to 9468
    4.9444   17.1998   22.3513 LP  0  0  0  0  0  0  0  0  0  0  0  0  # atno 16622 bound_to 9468

> <Gold.Score>
     Fitness  S(hb_ext) S(vdw_ext)  S(hb_int)    S(int)      intcor
     30.85       2.39      21.52       0.00      -1.13      -0.76

> <Gold.Goldscore.Fitness>
30.8518

> <Gold.Goldscore.Internal.Vdw>
-1.3428

> <Gold.Goldscore.Internal.Torsion>
-0.5457

> <Gold.Goldscore.External.Vdw>
21.5207

> <Gold.Goldscore.Internal.HBond>
0.0000

> <Gold.Goldscore.External.HBond>
2.3909

> <Gold.Goldscore.Internal.Correction>
-0.7585

> <Gold.Goldscore.Hbonds>
donor molecule, donor type, donor heavy atom, donor atom, acceptor molecule, acceptor atom, score
      P1  H  1867  1886       L1     9  0.53
      P1  H  7864  7898       L1    11  0.40
      L1  H    10    23       P1  7619  0.09

> <Gold.Goldscore.Internal.Vdw.Weighted>
-1.3428

> <Gold.Goldscore.Internal.Torsion.Weighted>
-0.5457

> <Gold.Goldscore.External.Vdw.Weighted>
29.5909

> <Gold.Goldscore.Internal.HBond.Weighted>
0.0000

> <Gold.Goldscore.External.HBond.Weighted>
2.3909

> <Gold.Goldscore.Internal.Correction.Weighted>
-0.7585

> <Gold.Rescore>
     Score     S(PLP)   S(hbond)     S(cho)   S(metal)  DE(clash)   DE(tors)     intcor
     28.32     -24.40       2.13       0.00       0.00       1.50       0.49       ----

> <Gold.PLP.Fitness>
28.3169

> <Gold.PLP.PLP>
-24.4046

> <Gold.PLP.part.hbond>
-3.2780

> <Gold.PLP.part.metal>
0.0000

> <Gold.PLP.part.buried>
-4.5495

> <Gold.PLP.part.nonpolar>
-21.2590

> <Gold.PLP.part.repulsive>
4.0314

> <Gold.PLP.ligand.clash>
1.4998

> <Gold.PLP.ligand.torsion>
0.4870

> <Gold.PLP.Chemscore.Hbond>
2.1287

> <Gold.PLP.Chemscore.CHOScore>
0.0000

> <Gold.PLP.Chemscore.Metal>
0.0000

> <Gold.Chemscore.Hbonds>
donor molecule, donor type, donor heavy atom, donor atom, acceptor molecule, acceptor atom, score
      L1  H    10    23       P1  7619  0.67
      P1  H  1867  1886       L1     9  0.99
      P1  H  7864  7898       L1    11  0.28

> <Gold.PLP.Chemscore.Internal.Correction>
   9.000000E+99

