#       Name:                CT1002167954
#       Creating user name   hitesit
#       Creation time:       Sun Apr 16 22:53:24 2023


#       File generated by GOLD software.
#

@<TRIPOS>MOLECULE
CT1002167954|ligand_prepared|mol2|1|dock8
    29    30     1
SMALL
NO_CHARGES


@<TRIPOS>ATOM
      1 C1           9.0202  12.7140  11.6782 C.3            1 RES1               0.0000
      2 C2           9.7728  12.2081  12.9258 C.ar           1 RES1               0.0000
      3 C3           8.1103  11.5723  11.2345 C.2            1 RES1               0.0000
      4 C4           8.2747  13.9717  12.1106 C.2            1 RES1               0.0000
      5 C5           9.9474  13.0898  10.4989 C.3            1 RES1               0.0000
      6 C6          10.9140  12.8632  13.3790 C.ar           1 RES1               0.0000
      7 C7           9.3373  11.0914  13.6342 C.ar           1 RES1               0.0000
      8 N8           6.7736  11.7007  11.4727 N.am           1 RES1               0.0000
      9 O9           8.5631  10.5576  10.7193 O.2            1 RES1               0.0000
     10 N10          6.9048  13.9382  12.1099 N.am           1 RES1               0.0000
     11 O11          8.8612  14.9860  12.4677 O.2            1 RES1               0.0000
     12 C12          9.2037  13.4028   9.2100 C.3            1 RES1               0.0000
     13 C13         11.5935  12.4197  14.5015 C.ar           1 RES1               0.0000
     14 C14         10.0184  10.6495  14.7563 C.ar           1 RES1               0.0000
     15 C15          6.1207  12.8498  11.8400 C.2            1 RES1               0.0000
     16 C16         11.1460  11.3130  15.1911 C.ar           1 RES1               0.0000
     17 O17          4.8957  12.8831  11.9134 O.2            1 RES1               0.0000
     18 H18         10.5440  13.9652  10.7839 H              1 RES1               0.0000
     19 H19         10.6388  12.2584  10.3145 H              1 RES1               0.0000
     20 H20         11.2825  13.7344  12.8478 H              1 RES1               0.0000
     21 H21          8.4532  10.5531  13.3098 H              1 RES1               0.0000
     22 H22          6.2071  10.8650  11.3682 H              1 RES1               0.0000
     23 H23          6.4250  14.8050  12.3310 H              1 RES1               0.0000
     24 H24          9.9008  13.6601   8.4153 H              1 RES1               0.0000
     25 H25          8.6194  12.5450   8.8837 H              1 RES1               0.0000
     26 H26          8.5251  14.2417   9.3503 H              1 RES1               0.0000
     27 H27         12.4812  12.9446  14.8388 H              1 RES1               0.0000
     28 H28          9.6630   9.7776  15.2956 H              1 RES1               0.0000
     29 H29         11.6783  10.9660  16.0706 H              1 RES1               0.0000
@<TRIPOS>BOND
    1    1    2 1     
    2    1    3 1     
    3    1    4 1     
    4    1    5 1     
    5    2    6 ar    
    6    2    7 ar    
    7    3    8 1     
    8    3    9 2     
    9    4   10 1     
   10    4   11 2     
   11    5   12 1     
   12    5   18 1     
   13    5   19 1     
   14    6   13 ar    
   15    6   20 1     
   16    7   14 ar    
   17    7   21 1     
   18    8   15 1     
   19    8   22 1     
   20   10   15 1     
   21   10   23 1     
   22   12   24 1     
   23   12   25 1     
   24   12   26 1     
   25   13   16 ar    
   26   13   27 1     
   27   14   16 ar    
   28   14   28 1     
   29   15   17 2     
   30   16   29 1     
@<TRIPOS>SUBSTRUCTURE
      1 RES1           1
@<TRIPOS>SET
DONOR_HYDROGENS      STATIC     ATOMS    <user>   **** ""
2 22 23
ATOM$RED        STATIC     ATOMS    COLORGROUP SYSTEM
2 22 23
@<TRIPOS>COMMENT
> <Gold.Version>
2022.3.0

> <Gold.Id.Protein>
unknown|3mvj_clean|pdb

> <Gold.Protein.RotatedTorsions>
[ 9935 9915 9914 9913 ] final  -80.61 input   59.98 | X-H torsion
[ 10984 10935 10934 10932 ] final  -10.28 input   60.03 | X-H torsion
[ 9832 9816 9817 9818 ] final    5.72 input   89.09 | X-H torsion
[ 9883 9871 9872 9873 ] final  169.06 input -126.12 | X-H torsion
[ 9925 9907 9908 9909 ] final  -36.59 input  109.17 | X-H torsion
[ 9887 9876 9875 9872 ] final  -29.98 input   59.96 | X-H torsion
[ 10746 10695 10694 10692 ] final  137.20 input   59.99 | X-H torsion
[ 11686 11631 11630 11629 ] final -122.68 input   60.02 | X-H torsion
[ 9775 9759 9760 9761 ] final  115.34 input  126.36 | X-H torsion
[ 11605 11587 11588 11589 ] final  101.46 input  114.14 | X-H torsion
[ 11559 11538 11537 11535 ] final   40.61 input   60.01 | X-H torsion
[ 11374 11358 11359 11360 ] final  -10.15 input   98.08 | X-H torsion
[ 11434 11416 11417 11418 ] final   59.00 input  102.35 | X-H torsion
[ 11551 11527 11528 11529 ] final   -0.10 input  127.83 | X-H torsion
[ 11812 11800 11801 11802 ] final   15.86 input  127.47 | X-H torsion
[ 11650 11632 11633 11634 ] final  103.44 input  113.96 | X-H torsion
[ 11482 11466 11467 11468 ] final  -35.47 input  126.08 | X-H torsion
[ 11767 11753 11754 11755 ] final  -96.48 input  105.73 | X-H torsion
[ 11713 11697 11698 11699 ] final  -68.54 input  116.95 | X-H torsion
[ 11576 11526 11525 11523 ] final   20.29 input   60.00 | X-H torsion
[ 9362 9334 9332 9329 ] final -120.83 input   60.01 | X-H torsion
[ 7768 7713 7712 7711 ] final   79.19 input   60.03 | X-H torsion
[ 15484 15454 15453 15451 ] final  121.93 input   59.98 | X-H torsion
[ 5787 5760 5759 5756 ] final  168.22 input   59.99 | X-H torsion
[ 1829 1810 1808 1805 ] final -105.79 input   60.00 | X-H torsion
[ 8490 8455 8453 8450 ] final  -19.98 input   60.02 | X-H torsion
[ 1885 1872 1871 1868 ] final   -7.07 input   59.98 | X-H torsion
[ 9510 9468 9467 9465 ] final  168.14 input   60.02 | X-H torsion
[ 3466 3411 3410 3409 ] final  121.98 input   59.97 | X-H torsion
[ 16458 9819 9818 9817 ] final   -9.43 input    0.00 | X-H torsion
[ 16464 9874 9873 9872 ] final -121.43 input    0.00 | X-H torsion
[ 16467 9762 9761 9760 ] final  -97.81 input    0.00 | X-H torsion
[ 16495 9617 9616 9615 ] final  178.34 input    0.00 | X-H torsion
[ 16497 9705 9704 9703 ] final  172.76 input    0.00 | X-H torsion
[ 16500 11530 11529 11528 ] final  -25.86 input    0.00 | X-H torsion
[ 16504 11361 11360 11359 ] final   27.67 input    0.00 | X-H torsion
[ 16511 11318 11317 11316 ] final  -22.28 input    0.00 | X-H torsion
[ 16520 11590 11589 11588 ] final  156.75 input    0.00 | X-H torsion
[ 16523 11756 11755 11754 ] final   27.21 input    0.00 | X-H torsion
[ 16543 11419 11418 11417 ] final  -29.93 input   -0.00 | X-H torsion
[ 16547 11469 11468 11467 ] final  -14.57 input    0.00 | X-H torsion
[ 16571 11269 11268 11267 ] final  179.28 input   -0.00 | X-H torsion

> <Gold.Protein.ActiveResidues>
 THR48   LEU49   GLY50   THR51   GLY52   SER53   PHE54   GLY55   ARG56   VAL57  
 LYS78   LYS81   LEU82   LYS83   GLN84   HIS87   GLU127  PHE129  SER130  LEU132 
 ARG133  ARG134  ILE135  GLY136  ARG137  ARG165  ASP166  LEU167  LYS168  PRO169 
 GLU170  ASN171  LEU172  LEU173  THR183  ASP184  GLY186  PHE187  TPO197  LEU198 
 CYS199  GLY200  THR201  PRO202  GLU203  TYR204  LEU205  PRO207  ILE209  ILE210 
 LEU211  SER212  LYS213  VAL226  LEU227  TYR229  GLU230  ALA233  GLY234  TYR235 
 PRO236  PRO237  PHE238  PHE239  ALA240  ASP241  GLN242  PRO243  ILE244  GLN245 
 ILE246  TYR247  GLU248  LYS249  ILE250  VAL251  SER252  ARG256  PHE257  PRO258 
 SER259  PHE327  ASP328  TYR330 

> <Gold.Protein.RotatedAtoms>
   14.6400    5.5242   10.7767 H   0  0  0  0  0  0  0  0  0  0  0  0  # atno 1829 bound_to 1810
    6.9330    7.8370    9.5094 H   0  0  0  0  0  0  0  0  0  0  0  0  # atno 1885 bound_to 1872
    0.0846   11.8245   -6.6776 H   0  0  0  0  0  0  0  0  0  0  0  0  # atno 3466 bound_to 3411
    1.7000   12.0586   -6.3888 H   0  0  0  0  0  0  0  0  0  0  0  0  # atno 3467 bound_to 3411
    0.9856   10.6179   -5.9865 H   0  0  0  0  0  0  0  0  0  0  0  0  # atno 3468 bound_to 3411
   17.2168   12.0200   24.5043 H   0  0  0  0  0  0  0  0  0  0  0  0  # atno 5787 bound_to 5760
    6.0935   13.4050   14.6869 H   0  0  0  0  0  0  0  0  0  0  0  0  # atno 7768 bound_to 7713
    7.6297   13.0345   14.1873 H   0  0  0  0  0  0  0  0  0  0  0  0  # atno 7769 bound_to 7713
    7.1619   12.7053   15.7430 H   0  0  0  0  0  0  0  0  0  0  0  0  # atno 7770 bound_to 7713
   14.2365   19.3377   14.9222 H   0  0  0  0  0  0  0  0  0  0  0  0  # atno 8490 bound_to 8455
    5.0563   13.9988   14.0881 H   0  0  0  0  0  0  0  0  0  0  0  0  # atno 9362 bound_to 9334
    4.4923   18.6108   22.6905 H   0  0  0  0  0  0  0  0  0  0  0  0  # atno 9510 bound_to 9468
    7.7494    6.5302   41.2239 H   0  0  0  0  0  0  0  0  0  0  0  0  # atno 9775 bound_to 9759
    5.6038    8.3180   40.7612 H   0  0  0  0  0  0  0  0  0  0  0  0  # atno 9832 bound_to 9816
    4.9612   10.3097   40.4956 H   0  0  0  0  0  0  0  0  0  0  0  0  # atno 9883 bound_to 9871
    5.8434   12.5834   40.4973 H   0  0  0  0  0  0  0  0  0  0  0  0  # atno 9887 bound_to 9876
    3.6391   11.2483   43.7308 H   0  0  0  0  0  0  0  0  0  0  0  0  # atno 9925 bound_to 9907
   -2.1793    7.1463   43.3197 H   0  0  0  0  0  0  0  0  0  0  0  0  # atno 9935 bound_to 9915
   -0.9208    8.0534   42.7352 H   0  0  0  0  0  0  0  0  0  0  0  0  # atno 9936 bound_to 9915
   -1.4213    6.7040   41.9131 H   0  0  0  0  0  0  0  0  0  0  0  0  # atno 9937 bound_to 9915
   -4.5769   17.5754   31.1071 H   0  0  0  0  0  0  0  0  0  0  0  0  # atno 10746 bound_to 10695
   -3.4646   14.9967   32.9582 H   0  0  0  0  0  0  0  0  0  0  0  0  # atno 10984 bound_to 10935
   11.2604    4.1640   29.9960 H   0  0  0  0  0  0  0  0  0  0  0  0  # atno 11374 bound_to 11358
   10.4194    3.0313   29.7612 H   0  0  0  0  0  0  0  0  0  0  0  0  # atno 11434 bound_to 11416
    9.5393    1.1354   31.1352 H   0  0  0  0  0  0  0  0  0  0  0  0  # atno 11482 bound_to 11466
    9.3555    1.7911   33.0633 H   0  0  0  0  0  0  0  0  0  0  0  0  # atno 11551 bound_to 11527
   13.5149    7.4584   34.5099 H   0  0  0  0  0  0  0  0  0  0  0  0  # atno 11559 bound_to 11538
   -2.7136   11.3452   12.7869 H   0  0  0  0  0  0  0  0  0  0  0  0  # atno 11576 bound_to 11526
    7.5032    1.8028   32.5538 H   0  0  0  0  0  0  0  0  0  0  0  0  # atno 11605 bound_to 11587
    7.7061   -0.4941   33.3202 H   0  0  0  0  0  0  0  0  0  0  0  0  # atno 11650 bound_to 11632
   -9.0756    7.9389   25.7528 H   0  0  0  0  0  0  0  0  0  0  0  0  # atno 11686 bound_to 11631
   -7.8114    9.0066   25.8392 H   0  0  0  0  0  0  0  0  0  0  0  0  # atno 11687 bound_to 11631
   -8.9538    8.9779   27.0390 H   0  0  0  0  0  0  0  0  0  0  0  0  # atno 11688 bound_to 11631
    7.3452   -2.0155   36.1043 H   0  0  0  0  0  0  0  0  0  0  0  0  # atno 11713 bound_to 11697
    6.3015   -0.2019   38.3839 H   0  0  0  0  0  0  0  0  0  0  0  0  # atno 11767 bound_to 11753
    4.0737   -1.5716   37.7867 H   0  0  0  0  0  0  0  0  0  0  0  0  # atno 11812 bound_to 11800
   15.1334    8.8142   17.2323 H   0  0  0  0  0  0  0  0  0  0  0  0  # atno 15484 bound_to 15454
    1.4939    9.6524   40.5241 LP  0  0  0  0  0  0  0  0  0  0  0  0  # atno 16458 bound_to 9819
    2.0712   10.8067   41.6792 LP  0  0  0  0  0  0  0  0  0  0  0  0  # atno 16459 bound_to 9819
   -2.2225   15.1249   34.0017 LP  0  0  0  0  0  0  0  0  0  0  0  0  # atno 16460 bound_to 10935
   -3.1048   13.7521   33.9429 LP  0  0  0  0  0  0  0  0  0  0  0  0  # atno 16461 bound_to 10935
    5.2296    7.1354   39.5318 LP  0  0  0  0  0  0  0  0  0  0  0  0  # atno 16462 bound_to 9816
    4.0301    9.4761   41.7181 LP  0  0  0  0  0  0  0  0  0  0  0  0  # atno 16463 bound_to 9871
    2.6831   12.9023   44.4734 LP  0  0  0  0  0  0  0  0  0  0  0  0  # atno 16464 bound_to 9874
    2.0434   12.9625   42.8649 LP  0  0  0  0  0  0  0  0  0  0  0  0  # atno 16465 bound_to 9874
    3.1850    9.6186   43.2913 LP  0  0  0  0  0  0  0  0  0  0  0  0  # atno 16466 bound_to 9907
    5.7902   10.1274   38.6698 LP  0  0  0  0  0  0  0  0  0  0  0  0  # atno 16467 bound_to 9762
    5.5193    8.9096   37.4683 LP  0  0  0  0  0  0  0  0  0  0  0  0  # atno 16468 bound_to 9762
    5.0392   13.8451   39.8570 LP  0  0  0  0  0  0  0  0  0  0  0  0  # atno 16469 bound_to 9876
    4.7247   12.3272   39.3435 LP  0  0  0  0  0  0  0  0  0  0  0  0  # atno 16470 bound_to 9876
   -3.7180   16.2590   30.6879 LP  0  0  0  0  0  0  0  0  0  0  0  0  # atno 16477 bound_to 10695
   -4.9971   16.7246   29.7858 LP  0  0  0  0  0  0  0  0  0  0  0  0  # atno 16478 bound_to 10695
    5.0369    6.1775   42.0266 LP  0  0  0  0  0  0  0  0  0  0  0  0  # atno 16495 bound_to 9617
    5.3683    5.0592   40.7461 LP  0  0  0  0  0  0  0  0  0  0  0  0  # atno 16496 bound_to 9617
    7.2582    9.8497   40.2999 LP  0  0  0  0  0  0  0  0  0  0  0  0  # atno 16497 bound_to 9705
    7.4125   10.3992   41.9352 LP  0  0  0  0  0  0  0  0  0  0  0  0  # atno 16498 bound_to 9705
    7.8796    8.2700   41.3475 LP  0  0  0  0  0  0  0  0  0  0  0  0  # atno 16499 bound_to 9759
    7.0676    2.0232   36.4129 LP  0  0  0  0  0  0  0  0  0  0  0  0  # atno 16500 bound_to 11530
    5.6168    1.8279   35.4871 LP  0  0  0  0  0  0  0  0  0  0  0  0  # atno 16501 bound_to 11530
    7.1267    4.2046   31.2385 LP  0  0  0  0  0  0  0  0  0  0  0  0  # atno 16504 bound_to 11361
    7.6293    2.5491   31.3199 LP  0  0  0  0  0  0  0  0  0  0  0  0  # atno 16505 bound_to 11361
    7.0049    2.2603   34.1684 LP  0  0  0  0  0  0  0  0  0  0  0  0  # atno 16508 bound_to 11587
   12.7006    8.4976   35.4609 LP  0  0  0  0  0  0  0  0  0  0  0  0  # atno 16509 bound_to 11538
   12.6574    8.6666   33.8373 LP  0  0  0  0  0  0  0  0  0  0  0  0  # atno 16510 bound_to 11538
   11.8369    3.5888   32.5896 LP  0  0  0  0  0  0  0  0  0  0  0  0  # atno 16511 bound_to 11318
   10.2634    4.2694   32.3430 LP  0  0  0  0  0  0  0  0  0  0  0  0  # atno 16512 bound_to 11318
   11.3129    5.8985   29.8898 LP  0  0  0  0  0  0  0  0  0  0  0  0  # atno 16513 bound_to 11358
    8.7861    3.6215   29.5776 LP  0  0  0  0  0  0  0  0  0  0  0  0  # atno 16514 bound_to 11416
   10.4156    3.0664   33.6013 LP  0  0  0  0  0  0  0  0  0  0  0  0  # atno 16515 bound_to 11527
    4.8063   -1.8127   34.7611 LP  0  0  0  0  0  0  0  0  0  0  0  0  # atno 16520 bound_to 11590
    4.1665   -0.2153   34.9584 LP  0  0  0  0  0  0  0  0  0  0  0  0  # atno 16521 bound_to 11590
    3.2863   -0.6594   36.5207 LP  0  0  0  0  0  0  0  0  0  0  0  0  # atno 16522 bound_to 11800
    2.1992   -0.3630   39.7170 LP  0  0  0  0  0  0  0  0  0  0  0  0  # atno 16523 bound_to 11756
    2.1958   -2.0170   39.2030 LP  0  0  0  0  0  0  0  0  0  0  0  0  # atno 16524 bound_to 11756
    7.6178    0.0065   31.2361 LP  0  0  0  0  0  0  0  0  0  0  0  0  # atno 16543 bound_to 11419
    9.0052   -0.7837   31.9075 LP  0  0  0  0  0  0  0  0  0  0  0  0  # atno 16544 bound_to 11419
    6.0083   -0.6065   33.7092 LP  0  0  0  0  0  0  0  0  0  0  0  0  # atno 16545 bound_to 11632
   11.1921    1.4773   30.6671 LP  0  0  0  0  0  0  0  0  0  0  0  0  # atno 16546 bound_to 11466
    9.4074   -0.4675   34.2655 LP  0  0  0  0  0  0  0  0  0  0  0  0  # atno 16547 bound_to 11469
    8.7843    0.8404   35.2148 LP  0  0  0  0  0  0  0  0  0  0  0  0  # atno 16548 bound_to 11469
    5.7146    0.2506   36.8013 LP  0  0  0  0  0  0  0  0  0  0  0  0  # atno 16549 bound_to 11753
    7.9818   -0.4335   35.6881 LP  0  0  0  0  0  0  0  0  0  0  0  0  # atno 16550 bound_to 11697
   -3.4428   11.6286   11.3600 LP  0  0  0  0  0  0  0  0  0  0  0  0  # atno 16565 bound_to 11526
   -3.3870   10.1127   11.9647 LP  0  0  0  0  0  0  0  0  0  0  0  0  # atno 16566 bound_to 11526
    4.7147   15.5900   14.0677 LP  0  0  0  0  0  0  0  0  0  0  0  0  # atno 16567 bound_to 9334
    4.0525   14.5956   12.9544 LP  0  0  0  0  0  0  0  0  0  0  0  0  # atno 16568 bound_to 9334
   12.1611    2.9114   30.1569 LP  0  0  0  0  0  0  0  0  0  0  0  0  # atno 16571 bound_to 11269
   12.1521    2.0616   28.6476 LP  0  0  0  0  0  0  0  0  0  0  0  0  # atno 16572 bound_to 11269
   16.3078    8.9904   18.3444 LP  0  0  0  0  0  0  0  0  0  0  0  0  # atno 16581 bound_to 15454
   15.1268    7.8851   18.5680 LP  0  0  0  0  0  0  0  0  0  0  0  0  # atno 16582 bound_to 15454
   16.4437   12.9965   25.5512 LP  0  0  0  0  0  0  0  0  0  0  0  0  # atno 16589 bound_to 5760
   16.0641   13.0330   23.9634 LP  0  0  0  0  0  0  0  0  0  0  0  0  # atno 16590 bound_to 5760
   16.1709    5.2315   11.2455 LP  0  0  0  0  0  0  0  0  0  0  0  0  # atno 16601 bound_to 1810
   15.8127    6.5960   10.4230 LP  0  0  0  0  0  0  0  0  0  0  0  0  # atno 16602 bound_to 1810
   15.6567   18.6385   15.2992 LP  0  0  0  0  0  0  0  0  0  0  0  0  # atno 16609 bound_to 8455
   14.8139   18.1307   13.9959 LP  0  0  0  0  0  0  0  0  0  0  0  0  # atno 16610 bound_to 8455
    5.8615    8.6317    8.5776 LP  0  0  0  0  0  0  0  0  0  0  0  0  # atno 16611 bound_to 1872
    6.5351    9.3738    9.8669 LP  0  0  0  0  0  0  0  0  0  0  0  0  # atno 16612 bound_to 1872
    4.8318   17.0461   22.4013 LP  0  0  0  0  0  0  0  0  0  0  0  0  # atno 16621 bound_to 9468
    3.4528   17.4563   23.1738 LP  0  0  0  0  0  0  0  0  0  0  0  0  # atno 16622 bound_to 9468

> <Gold.Score>
     Fitness  S(hb_ext) S(vdw_ext)  S(hb_int)    S(int)      intcor
     32.60       6.59      19.79       0.00      -1.20      -0.76

> <Gold.Goldscore.Fitness>
32.5961

> <Gold.Goldscore.Internal.Vdw>
-1.4835

> <Gold.Goldscore.Internal.Torsion>
-0.4742

> <Gold.Goldscore.External.Vdw>
19.7867

> <Gold.Goldscore.Internal.HBond>
0.0000

> <Gold.Goldscore.External.HBond>
6.5887

> <Gold.Goldscore.Internal.Correction>
-0.7585

> <Gold.Goldscore.Hbonds>
donor molecule, donor type, donor heavy atom, donor atom, acceptor molecule, acceptor atom, score
      P1  H  1867  1886       L1     9  0.53
      P1  H  7864  7898       L1    11  0.63
      L1  H    10    23       P1  7618  0.71

> <Gold.Goldscore.Internal.Vdw.Weighted>
-1.4835

> <Gold.Goldscore.Internal.Torsion.Weighted>
-0.4742

> <Gold.Goldscore.External.Vdw.Weighted>
27.2067

> <Gold.Goldscore.Internal.HBond.Weighted>
0.0000

> <Gold.Goldscore.External.HBond.Weighted>
6.5887

> <Gold.Goldscore.Internal.Correction.Weighted>
-0.7585

> <Gold.Rescore>
     Score     S(PLP)   S(hbond)     S(cho)   S(metal)  DE(clash)   DE(tors)     intcor
     30.36     -24.81       2.39       0.00       0.00       1.19       0.21       ----

> <Gold.PLP.Fitness>
30.3625

> <Gold.PLP.PLP>
-24.8146

> <Gold.PLP.part.hbond>
-3.0000

> <Gold.PLP.part.metal>
0.0000

> <Gold.PLP.part.buried>
-5.2375

> <Gold.PLP.part.nonpolar>
-21.5344

> <Gold.PLP.part.repulsive>
4.4637

> <Gold.PLP.ligand.clash>
1.1906

> <Gold.PLP.ligand.torsion>
0.2116

> <Gold.PLP.Chemscore.Hbond>
2.3872

> <Gold.PLP.Chemscore.CHOScore>
0.0000

> <Gold.PLP.Chemscore.Metal>
0.0000

> <Gold.Chemscore.Hbonds>
donor molecule, donor type, donor heavy atom, donor atom, acceptor molecule, acceptor atom, score
      L1  H    10    23       P1  7619  0.26
      P1  H  1867  1886       L1     9  1.00
      P1  H  7864  7898       L1    11  0.84

> <Gold.PLP.Chemscore.Internal.Correction>
   9.000000E+99

