#       Name:                CT1002167954
#       Creating user name   hitesit
#       Creation time:       Sun Apr 16 22:53:09 2023


#       File generated by GOLD software.
#

@<TRIPOS>MOLECULE
CT1002167954|ligand_prepared|mol2|1|dock1
    29    30     1
SMALL
NO_CHARGES


@<TRIPOS>ATOM
      1 C1          10.1481  13.4881   9.9778 C.3            1 RES1               0.0000
      2 C2          11.4657  13.0002  10.6138 C.ar           1 RES1               0.0000
      3 C3           9.3232  12.2375   9.6884 C.2            1 RES1               0.0000
      4 C4           9.5104  14.4335  10.9898 C.2            1 RES1               0.0000
      5 C5          10.3429  14.2650   8.6549 C.3            1 RES1               0.0000
      6 C6          11.5379  12.7328  11.9776 C.ar           1 RES1               0.0000
      7 C7          12.6147  12.8106   9.8505 C.ar           1 RES1               0.0000
      8 N8           8.2531  11.9856  10.4955 N.am           1 RES1               0.0000
      9 O9           9.6303  11.4631   8.7905 O.2            1 RES1               0.0000
     10 N10          8.3240  14.0560  11.5624 N.am           1 RES1               0.0000
     11 O11         10.0329  15.4944  11.3089 O.2            1 RES1               0.0000
     12 C12          9.1290  15.0806   8.2384 C.3            1 RES1               0.0000
     13 C13         12.7151  12.2891  12.5569 C.ar           1 RES1               0.0000
     14 C14         13.7910  12.3671  10.4319 C.ar           1 RES1               0.0000
     15 C15          7.6821  12.8608  11.3841 C.2            1 RES1               0.0000
     16 C16         13.8422  12.1055  11.7846 C.ar           1 RES1               0.0000
     17 O17          6.6463  12.5721  11.9764 O.2            1 RES1               0.0000
     18 H18         11.2008  14.9397   8.7648 H              1 RES1               0.0000
     19 H19         10.5786  13.5501   7.8570 H              1 RES1               0.0000
     20 H20         10.6618  12.8737  12.6018 H              1 RES1               0.0000
     21 H21         12.5980  13.0111   8.7846 H              1 RES1               0.0000
     22 H22          7.8393  11.0608  10.4328 H              1 RES1               0.0000
     23 H23          7.8781  14.7282  12.1785 H              1 RES1               0.0000
     24 H24          9.3190  15.6055   7.3046 H              1 RES1               0.0000
     25 H25          8.2629  14.4378   8.0957 H              1 RES1               0.0000
     26 H26          8.8814  15.8192   8.9981 H              1 RES1               0.0000
     27 H27         12.7505  12.0859  13.6222 H              1 RES1               0.0000
     28 H28         14.6757  12.2246   9.8203 H              1 RES1               0.0000
     29 H29         14.7641  11.7575  12.2386 H              1 RES1               0.0000
@<TRIPOS>BOND
    1    1    2 1     
    2    1    3 1     
    3    1    4 1     
    4    1    5 1     
    5    2    6 ar    
    6    2    7 ar    
    7    3    8 1     
    8    3    9 2     
    9    4   10 1     
   10    4   11 2     
   11    5   12 1     
   12    5   18 1     
   13    5   19 1     
   14    6   13 ar    
   15    6   20 1     
   16    7   14 ar    
   17    7   21 1     
   18    8   15 1     
   19    8   22 1     
   20   10   15 1     
   21   10   23 1     
   22   12   24 1     
   23   12   25 1     
   24   12   26 1     
   25   13   16 ar    
   26   13   27 1     
   27   14   16 ar    
   28   14   28 1     
   29   15   17 2     
   30   16   29 1     
@<TRIPOS>SUBSTRUCTURE
      1 RES1           1
@<TRIPOS>SET
DONOR_HYDROGENS      STATIC     ATOMS    <user>   **** ""
2 22 23
ATOM$RED        STATIC     ATOMS    COLORGROUP SYSTEM
2 22 23
@<TRIPOS>COMMENT
> <Gold.Version>
2022.3.0

> <Gold.Id.Protein>
unknown|3mvj_clean|pdb

> <Gold.Protein.RotatedTorsions>
[ 9935 9915 9914 9913 ] final   26.88 input   59.98 | X-H torsion
[ 10984 10935 10934 10932 ] final   49.62 input   60.03 | X-H torsion
[ 9832 9816 9817 9818 ] final  -77.47 input   89.09 | X-H torsion
[ 9883 9871 9872 9873 ] final   90.97 input -126.12 | X-H torsion
[ 9925 9907 9908 9909 ] final  126.61 input  109.17 | X-H torsion
[ 9887 9876 9875 9872 ] final  105.67 input   59.96 | X-H torsion
[ 10746 10695 10694 10692 ] final  -87.19 input   59.99 | X-H torsion
[ 11686 11631 11630 11629 ] final -135.05 input   60.02 | X-H torsion
[ 9775 9759 9760 9761 ] final  -22.48 input  126.36 | X-H torsion
[ 11605 11587 11588 11589 ] final  -24.62 input  114.14 | X-H torsion
[ 11559 11538 11537 11535 ] final   80.11 input   60.01 | X-H torsion
[ 11374 11358 11359 11360 ] final  121.50 input   98.08 | X-H torsion
[ 11434 11416 11417 11418 ] final  -10.50 input  102.35 | X-H torsion
[ 11551 11527 11528 11529 ] final  -56.01 input  127.83 | X-H torsion
[ 11812 11800 11801 11802 ] final   12.92 input  127.47 | X-H torsion
[ 11650 11632 11633 11634 ] final  -71.77 input  113.96 | X-H torsion
[ 11482 11466 11467 11468 ] final -126.02 input  126.08 | X-H torsion
[ 11767 11753 11754 11755 ] final  176.10 input  105.73 | X-H torsion
[ 11713 11697 11698 11699 ] final   66.42 input  116.95 | X-H torsion
[ 11576 11526 11525 11523 ] final   -2.00 input   60.00 | X-H torsion
[ 9362 9334 9332 9329 ] final  150.95 input   60.01 | X-H torsion
[ 7768 7713 7712 7711 ] final   44.43 input   60.03 | X-H torsion
[ 15484 15454 15453 15451 ] final   71.02 input   59.98 | X-H torsion
[ 5787 5760 5759 5756 ] final  -50.12 input   59.99 | X-H torsion
[ 1829 1810 1808 1805 ] final  178.02 input   60.00 | X-H torsion
[ 8490 8455 8453 8450 ] final  -96.28 input   60.02 | X-H torsion
[ 1885 1872 1871 1868 ] final  167.05 input   59.98 | X-H torsion
[ 9510 9468 9467 9465 ] final    4.56 input   60.02 | X-H torsion
[ 3466 3411 3410 3409 ] final -128.84 input   59.97 | X-H torsion
[ 16458 9819 9818 9817 ] final    9.44 input    0.00 | X-H torsion
[ 16464 9874 9873 9872 ] final   36.13 input    0.00 | X-H torsion
[ 16467 9762 9761 9760 ] final  -49.10 input    0.00 | X-H torsion
[ 16495 9617 9616 9615 ] final -177.40 input    0.00 | X-H torsion
[ 16497 9705 9704 9703 ] final  103.90 input    0.00 | X-H torsion
[ 16500 11530 11529 11528 ] final   24.91 input    0.00 | X-H torsion
[ 16504 11361 11360 11359 ] final    3.33 input    0.00 | X-H torsion
[ 16511 11318 11317 11316 ] final -158.04 input    0.00 | X-H torsion
[ 16520 11590 11589 11588 ] final  -73.94 input    0.00 | X-H torsion
[ 16523 11756 11755 11754 ] final   -2.17 input    0.00 | X-H torsion
[ 16543 11419 11418 11417 ] final  -21.95 input   -0.00 | X-H torsion
[ 16547 11469 11468 11467 ] final -138.84 input    0.00 | X-H torsion
[ 16571 11269 11268 11267 ] final  159.16 input   -0.00 | X-H torsion

> <Gold.Protein.ActiveResidues>
 THR48   LEU49   GLY50   THR51   GLY52   SER53   PHE54   GLY55   ARG56   VAL57  
 LYS78   LYS81   LEU82   LYS83   GLN84   HIS87   GLU127  PHE129  SER130  LEU132 
 ARG133  ARG134  ILE135  GLY136  ARG137  ARG165  ASP166  LEU167  LYS168  PRO169 
 GLU170  ASN171  LEU172  LEU173  THR183  ASP184  GLY186  PHE187  TPO197  LEU198 
 CYS199  GLY200  THR201  PRO202  GLU203  TYR204  LEU205  PRO207  ILE209  ILE210 
 LEU211  SER212  LYS213  VAL226  LEU227  TYR229  GLU230  ALA233  GLY234  TYR235 
 PRO236  PRO237  PHE238  PHE239  ALA240  ASP241  GLN242  PRO243  ILE244  GLN245 
 ILE246  TYR247  GLU248  LYS249  ILE250  VAL251  SER252  ARG256  PHE257  PRO258 
 SER259  PHE327  ASP328  TYR330 

> <Gold.Protein.RotatedAtoms>
   15.5239    4.9620   11.2650 H   0  0  0  0  0  0  0  0  0  0  0  0  # atno 1829 bound_to 1810
    5.9998    9.4277    9.2028 H   0  0  0  0  0  0  0  0  0  0  0  0  # atno 1885 bound_to 1872
    1.5881   12.1791   -6.4638 H   0  0  0  0  0  0  0  0  0  0  0  0  # atno 3466 bound_to 3411
    1.1598   10.6586   -5.9611 H   0  0  0  0  0  0  0  0  0  0  0  0  # atno 3467 bound_to 3411
    0.0222   11.6631   -6.6280 H   0  0  0  0  0  0  0  0  0  0  0  0  # atno 3468 bound_to 3411
   15.9369   13.2111   24.2404 H   0  0  0  0  0  0  0  0  0  0  0  0  # atno 5787 bound_to 5760
    6.0945   13.2332   15.2320 H   0  0  0  0  0  0  0  0  0  0  0  0  # atno 7768 bound_to 7713
    7.1585   13.2675   13.9618 H   0  0  0  0  0  0  0  0  0  0  0  0  # atno 7769 bound_to 7713
    7.6318   12.6444   15.4231 H   0  0  0  0  0  0  0  0  0  0  0  0  # atno 7770 bound_to 7713
   15.2133   19.1373   15.5081 H   0  0  0  0  0  0  0  0  0  0  0  0  # atno 8490 bound_to 8455
    5.0009   15.2737   14.3555 H   0  0  0  0  0  0  0  0  0  0  0  0  # atno 9362 bound_to 9334
    4.2577   16.7730   22.6884 H   0  0  0  0  0  0  0  0  0  0  0  0  # atno 9510 bound_to 9468
    7.2948    8.0959   41.5035 H   0  0  0  0  0  0  0  0  0  0  0  0  # atno 9775 bound_to 9759
    5.7075    8.3492   39.5955 H   0  0  0  0  0  0  0  0  0  0  0  0  # atno 9832 bound_to 9816
    3.8590   10.1480   40.5505 H   0  0  0  0  0  0  0  0  0  0  0  0  # atno 9883 bound_to 9871
    4.6185   12.5482   39.2702 H   0  0  0  0  0  0  0  0  0  0  0  0  # atno 9887 bound_to 9876
    3.3835    9.5426   43.4346 H   0  0  0  0  0  0  0  0  0  0  0  0  # atno 9925 bound_to 9907
   -1.0294    8.0914   42.9096 H   0  0  0  0  0  0  0  0  0  0  0  0  # atno 9935 bound_to 9915
   -1.2658    6.8315   41.8585 H   0  0  0  0  0  0  0  0  0  0  0  0  # atno 9936 bound_to 9915
   -2.2262    6.9818   43.2010 H   0  0  0  0  0  0  0  0  0  0  0  0  # atno 9937 bound_to 9915
   -4.8378   16.5280   29.7519 H   0  0  0  0  0  0  0  0  0  0  0  0  # atno 10746 bound_to 10695
   -3.6362   14.1302   33.2648 H   0  0  0  0  0  0  0  0  0  0  0  0  # atno 10984 bound_to 10935
   11.1808    5.5666   29.2728 H   0  0  0  0  0  0  0  0  0  0  0  0  # atno 11374 bound_to 11358
    9.7894    3.2186   30.5210 H   0  0  0  0  0  0  0  0  0  0  0  0  # atno 11434 bound_to 11416
   10.4984    0.4582   30.6599 H   0  0  0  0  0  0  0  0  0  0  0  0  # atno 11482 bound_to 11466
    9.8523    1.6364   33.6983 H   0  0  0  0  0  0  0  0  0  0  0  0  # atno 11551 bound_to 11527
   13.3718    7.6905   33.9391 H   0  0  0  0  0  0  0  0  0  0  0  0  # atno 11559 bound_to 11538
   -2.7606   11.6511   12.5996 H   0  0  0  0  0  0  0  0  0  0  0  0  # atno 11576 bound_to 11526
    7.4294    1.5905   34.1238 H   0  0  0  0  0  0  0  0  0  0  0  0  # atno 11605 bound_to 11587
    6.0090   -0.5716   33.7749 H   0  0  0  0  0  0  0  0  0  0  0  0  # atno 11650 bound_to 11632
   -9.2063    7.9516   25.9119 H   0  0  0  0  0  0  0  0  0  0  0  0  # atno 11686 bound_to 11631
   -7.8450    8.8698   25.6889 H   0  0  0  0  0  0  0  0  0  0  0  0  # atno 11687 bound_to 11631
   -8.7895    9.1021   27.0303 H   0  0  0  0  0  0  0  0  0  0  0  0  # atno 11688 bound_to 11631
    7.3137   -0.3890   35.7701 H   0  0  0  0  0  0  0  0  0  0  0  0  # atno 11713 bound_to 11697
    6.2497    0.8550   37.7731 H   0  0  0  0  0  0  0  0  0  0  0  0  # atno 11767 bound_to 11753
    4.0436   -1.5546   37.8161 H   0  0  0  0  0  0  0  0  0  0  0  0  # atno 11812 bound_to 11800
   15.8027    9.2129   17.4334 H   0  0  0  0  0  0  0  0  0  0  0  0  # atno 15484 bound_to 15454
    1.4799    9.4939   40.7592 LP  0  0  0  0  0  0  0  0  0  0  0  0  # atno 16458 bound_to 9819
    2.0852   10.9652   41.4441 LP  0  0  0  0  0  0  0  0  0  0  0  0  # atno 16459 bound_to 9819
   -2.7587   15.4995   33.3246 LP  0  0  0  0  0  0  0  0  0  0  0  0  # atno 16460 bound_to 10935
   -2.3958   14.2500   34.3114 LP  0  0  0  0  0  0  0  0  0  0  0  0  # atno 16461 bound_to 10935
    5.1279    7.1048   40.6750 LP  0  0  0  0  0  0  0  0  0  0  0  0  # atno 16462 bound_to 9816
    5.1043    9.6337   41.6646 LP  0  0  0  0  0  0  0  0  0  0  0  0  # atno 16463 bound_to 9871
    2.3205   13.1515   42.8324 LP  0  0  0  0  0  0  0  0  0  0  0  0  # atno 16464 bound_to 9874
    2.4059   12.7133   44.5059 LP  0  0  0  0  0  0  0  0  0  0  0  0  # atno 16465 bound_to 9874
    3.4345   11.2836   43.5805 LP  0  0  0  0  0  0  0  0  0  0  0  0  # atno 16466 bound_to 9907
    6.3806    9.9117   38.3307 LP  0  0  0  0  0  0  0  0  0  0  0  0  # atno 16467 bound_to 9762
    4.9288    9.1253   37.8075 LP  0  0  0  0  0  0  0  0  0  0  0  0  # atno 16468 bound_to 9762
    5.7767   12.3575   40.3974 LP  0  0  0  0  0  0  0  0  0  0  0  0  # atno 16469 bound_to 9876
    5.2205   13.8503   40.0386 LP  0  0  0  0  0  0  0  0  0  0  0  0  # atno 16470 bound_to 9876
   -4.7727   17.6252   30.9512 LP  0  0  0  0  0  0  0  0  0  0  0  0  # atno 16477 bound_to 10695
   -3.6794   16.4139   30.8884 LP  0  0  0  0  0  0  0  0  0  0  0  0  # atno 16478 bound_to 10695
    5.0953    6.2024   42.0166 LP  0  0  0  0  0  0  0  0  0  0  0  0  # atno 16495 bound_to 9617
    5.3098    5.0342   40.7560 LP  0  0  0  0  0  0  0  0  0  0  0  0  # atno 16496 bound_to 9617
    8.0885   10.1871   40.6946 LP  0  0  0  0  0  0  0  0  0  0  0  0  # atno 16497 bound_to 9705
    6.5822   10.0619   41.5405 LP  0  0  0  0  0  0  0  0  0  0  0  0  # atno 16498 bound_to 9705
    8.3220    6.7465   41.0754 LP  0  0  0  0  0  0  0  0  0  0  0  0  # atno 16499 bound_to 9759
    6.6725    2.6428   36.3057 LP  0  0  0  0  0  0  0  0  0  0  0  0  # atno 16500 bound_to 11530
    6.0119    1.2083   35.5943 LP  0  0  0  0  0  0  0  0  0  0  0  0  # atno 16501 bound_to 11530
    7.3262    4.1997   31.5442 LP  0  0  0  0  0  0  0  0  0  0  0  0  # atno 16504 bound_to 11361
    7.4297    2.5540   31.0142 LP  0  0  0  0  0  0  0  0  0  0  0  0  # atno 16505 bound_to 11361
    7.0763    2.4657   32.6494 LP  0  0  0  0  0  0  0  0  0  0  0  0  # atno 16508 bound_to 11587
   13.0770    7.9859   35.5117 LP  0  0  0  0  0  0  0  0  0  0  0  0  # atno 16509 bound_to 11538
   12.4251    8.9445   34.3615 LP  0  0  0  0  0  0  0  0  0  0  0  0  # atno 16510 bound_to 11538
   10.3282    3.6890   32.0526 LP  0  0  0  0  0  0  0  0  0  0  0  0  # atno 16511 bound_to 11318
   11.7722    4.1691   32.8799 LP  0  0  0  0  0  0  0  0  0  0  0  0  # atno 16512 bound_to 11318
   11.3931    4.4860   30.6180 LP  0  0  0  0  0  0  0  0  0  0  0  0  # atno 16513 bound_to 11358
    9.4044    3.4375   28.8318 LP  0  0  0  0  0  0  0  0  0  0  0  0  # atno 16514 bound_to 11416
    9.9231    3.2198   32.9720 LP  0  0  0  0  0  0  0  0  0  0  0  0  # atno 16515 bound_to 11527
    4.6612   -0.4244   35.4696 LP  0  0  0  0  0  0  0  0  0  0  0  0  # atno 16520 bound_to 11590
    4.3117   -1.6035   34.2499 LP  0  0  0  0  0  0  0  0  0  0  0  0  # atno 16521 bound_to 11590
    3.3156   -0.6760   36.4921 LP  0  0  0  0  0  0  0  0  0  0  0  0  # atno 16522 bound_to 11800
    2.5271   -0.5500   39.9414 LP  0  0  0  0  0  0  0  0  0  0  0  0  # atno 16523 bound_to 11756
    1.8679   -1.8300   38.9786 LP  0  0  0  0  0  0  0  0  0  0  0  0  # atno 16524 bound_to 11756
    7.6343   -0.0644   31.1402 LP  0  0  0  0  0  0  0  0  0  0  0  0  # atno 16543 bound_to 11419
    8.9887   -0.7129   32.0034 LP  0  0  0  0  0  0  0  0  0  0  0  0  # atno 16544 bound_to 11419
    7.6769   -0.5303   33.2621 LP  0  0  0  0  0  0  0  0  0  0  0  0  # atno 16545 bound_to 11632
   10.2668    2.1306   31.1256 LP  0  0  0  0  0  0  0  0  0  0  0  0  # atno 16546 bound_to 11466
    8.3348    0.5739   34.5964 LP  0  0  0  0  0  0  0  0  0  0  0  0  # atno 16547 bound_to 11469
    9.8569   -0.2010   34.8838 LP  0  0  0  0  0  0  0  0  0  0  0  0  # atno 16548 bound_to 11469
    5.7652   -0.7816   37.3978 LP  0  0  0  0  0  0  0  0  0  0  0  0  # atno 16549 bound_to 11753
    8.0119   -1.9821   36.0063 LP  0  0  0  0  0  0  0  0  0  0  0  0  # atno 16550 bound_to 11697
   -3.5716   11.3136   11.2297 LP  0  0  0  0  0  0  0  0  0  0  0  0  # atno 16565 bound_to 11526
   -3.2108   10.1195   12.2836 LP  0  0  0  0  0  0  0  0  0  0  0  0  # atno 16566 bound_to 11526
    4.0306   15.1005   13.0603 LP  0  0  0  0  0  0  0  0  0  0  0  0  # atno 16567 bound_to 9334
    4.7924   13.8019   13.6927 LP  0  0  0  0  0  0  0  0  0  0  0  0  # atno 16568 bound_to 9334
   12.3962    2.7258   30.1993 LP  0  0  0  0  0  0  0  0  0  0  0  0  # atno 16571 bound_to 11269
   11.9170    2.2472   28.6051 LP  0  0  0  0  0  0  0  0  0  0  0  0  # atno 16572 bound_to 11269
   16.0161    8.4150   18.8351 LP  0  0  0  0  0  0  0  0  0  0  0  0  # atno 16581 bound_to 15454
   14.7443    8.0588   17.8748 LP  0  0  0  0  0  0  0  0  0  0  0  0  # atno 16582 bound_to 15454
   17.0968   12.0718   24.1763 LP  0  0  0  0  0  0  0  0  0  0  0  0  # atno 16589 bound_to 5760
   16.7000   12.7579   25.6041 LP  0  0  0  0  0  0  0  0  0  0  0  0  # atno 16590 bound_to 5760
   16.3507    6.2538   10.7202 LP  0  0  0  0  0  0  0  0  0  0  0  0  # atno 16601 bound_to 1810
   14.7432    6.1395   10.4569 LP  0  0  0  0  0  0  0  0  0  0  0  0  # atno 16602 bound_to 1810
   15.4064   18.0092   14.3513 LP  0  0  0  0  0  0  0  0  0  0  0  0  # atno 16609 bound_to 8455
   14.0801   18.9619   14.3535 LP  0  0  0  0  0  0  0  0  0  0  0  0  # atno 16610 bound_to 8455
    7.0470    8.5013   10.0351 LP  0  0  0  0  0  0  0  0  0  0  0  0  # atno 16611 bound_to 1872
    6.2899    7.9017    8.7183 LP  0  0  0  0  0  0  0  0  0  0  0  0  # atno 16612 bound_to 1872
    3.5415   18.1506   23.1746 LP  0  0  0  0  0  0  0  0  0  0  0  0  # atno 16621 bound_to 9468
    4.9795   18.2028   22.4025 LP  0  0  0  0  0  0  0  0  0  0  0  0  # atno 16622 bound_to 9468

> <Gold.Score>
     Fitness  S(hb_ext) S(vdw_ext)  S(hb_int)    S(int)      intcor
     34.10       2.87      23.13       0.00      -0.58      -0.78

> <Gold.Goldscore.Fitness>
34.0979

> <Gold.Goldscore.Internal.Vdw>
-0.5663

> <Gold.Goldscore.Internal.Torsion>
-0.7851

> <Gold.Goldscore.External.Vdw>
23.1296

> <Gold.Goldscore.Internal.HBond>
0.0000

> <Gold.Goldscore.External.HBond>
2.8709

> <Gold.Goldscore.Internal.Correction>
-0.7752

> <Gold.Goldscore.Hbonds>
donor molecule, donor type, donor heavy atom, donor atom, acceptor molecule, acceptor atom, score
      P1  H  7713  7769       L1    17  0.28
      P1  H  1900  1933       L1     9  0.26
      L1  H     8    22       P1  1872  0.16
      L1  H    10    23       P1  7619  0.06

> <Gold.Goldscore.Internal.Vdw.Weighted>
-0.5663

> <Gold.Goldscore.Internal.Torsion.Weighted>
-0.7851

> <Gold.Goldscore.External.Vdw.Weighted>
31.8032

> <Gold.Goldscore.Internal.HBond.Weighted>
0.0000

> <Gold.Goldscore.External.HBond.Weighted>
2.8709

> <Gold.Goldscore.Internal.Correction.Weighted>
-0.7752

> <Gold.Rescore>
     Score     S(PLP)   S(hbond)     S(cho)   S(metal)  DE(clash)   DE(tors)     intcor
      4.57      -0.40       2.12       0.00       0.00       0.00       1.10       ----

> <Gold.PLP.Fitness>
4.5742

> <Gold.PLP.PLP>
-0.4014

> <Gold.PLP.part.hbond>
-4.0000

> <Gold.PLP.part.metal>
0.0000

> <Gold.PLP.part.buried>
21.8023

> <Gold.PLP.part.nonpolar>
-27.9014

> <Gold.PLP.part.repulsive>
10.7740

> <Gold.PLP.ligand.clash>
0.0000

> <Gold.PLP.ligand.torsion>
1.1000

> <Gold.PLP.Chemscore.Hbond>
2.1242

> <Gold.PLP.Chemscore.CHOScore>
0.0000

> <Gold.PLP.Chemscore.Metal>
0.0000

> <Gold.Chemscore.Hbonds>
donor molecule, donor type, donor heavy atom, donor atom, acceptor molecule, acceptor atom, score
      L1  H    10    23       P1  7619  0.74
      P1  H  7713  7769       L1    17  0.84
      P1  H  1900  1933       L1     9  0.71

> <Gold.PLP.Chemscore.Internal.Correction>
   9.000000E+99

