#       Name:                CT1002167954
#       Creating user name   hitesit
#       Creation time:       Sun Apr 16 22:53:12 2023


#       File generated by GOLD software.
#

@<TRIPOS>MOLECULE
CT1002167954|ligand_prepared|mol2|1|dock2
    29    30     1
SMALL
NO_CHARGES


@<TRIPOS>ATOM
      1 C1          10.0782  12.8649  11.7907 C.3            1 RES1               0.0000
      2 C2          10.8007  13.0563  10.4416 C.ar           1 RES1               0.0000
      3 C3           9.4467  14.2110  12.1333 C.2            1 RES1               0.0000
      4 C4           9.0702  11.7407  11.5791 C.2            1 RES1               0.0000
      5 C5          11.0165  12.4534  12.9491 C.3            1 RES1               0.0000
      6 C6          12.0963  12.5824  10.2581 C.ar           1 RES1               0.0000
      7 C7          10.1847  13.7012   9.3724 C.ar           1 RES1               0.0000
      8 N8           8.0945  14.3271  11.9992 N.am           1 RES1               0.0000
      9 O9          10.1294  15.1678  12.4780 O.2            1 RES1               0.0000
     10 N10          7.7376  12.0493  11.6614 N.am           1 RES1               0.0000
     11 O11          9.4176  10.5939  11.3253 O.2            1 RES1               0.0000
     12 C12         10.3483  12.4704  14.3149 C.3            1 RES1               0.0000
     13 C13         12.7513  12.7447   9.0486 C.ar           1 RES1               0.0000
     14 C14         10.8417  13.8626   8.1637 C.ar           1 RES1               0.0000
     15 C15          7.2037  13.2976  11.8314 C.2            1 RES1               0.0000
     16 C16         12.1245  13.3844   8.0006 C.ar           1 RES1               0.0000
     17 O17          5.9934  13.5032  11.8404 O.2            1 RES1               0.0000
     18 H18         11.3959  11.4428  12.7542 H              1 RES1               0.0000
     19 H19         11.8750  13.1361  12.9676 H              1 RES1               0.0000
     20 H20         12.6065  12.0786  11.0723 H              1 RES1               0.0000
     21 H21          9.1763  14.0865   9.4782 H              1 RES1               0.0000
     22 H22          7.7102  15.2662  12.0259 H              1 RES1               0.0000
     23 H23          7.0830  11.2768  11.5894 H              1 RES1               0.0000
     24 H24         11.0503  12.1740  15.0915 H              1 RES1               0.0000
     25 H25          9.9812  13.4668  14.5524 H              1 RES1               0.0000
     26 H26          9.5049  11.7835  14.3402 H              1 RES1               0.0000
     27 H27         13.7613  12.3677   8.9258 H              1 RES1               0.0000
     28 H28         10.3447  14.3672   7.3418 H              1 RES1               0.0000
     29 H29         12.6377  13.5110   7.0530 H              1 RES1               0.0000
@<TRIPOS>BOND
    1    1    2 1     
    2    1    3 1     
    3    1    4 1     
    4    1    5 1     
    5    2    6 ar    
    6    2    7 ar    
    7    3    8 1     
    8    3    9 2     
    9    4   10 1     
   10    4   11 2     
   11    5   12 1     
   12    5   18 1     
   13    5   19 1     
   14    6   13 ar    
   15    6   20 1     
   16    7   14 ar    
   17    7   21 1     
   18    8   15 1     
   19    8   22 1     
   20   10   15 1     
   21   10   23 1     
   22   12   24 1     
   23   12   25 1     
   24   12   26 1     
   25   13   16 ar    
   26   13   27 1     
   27   14   16 ar    
   28   14   28 1     
   29   15   17 2     
   30   16   29 1     
@<TRIPOS>SUBSTRUCTURE
      1 RES1           1
@<TRIPOS>SET
DONOR_HYDROGENS      STATIC     ATOMS    <user>   **** ""
2 22 23
ATOM$RED        STATIC     ATOMS    COLORGROUP SYSTEM
2 22 23
@<TRIPOS>COMMENT
> <Gold.Version>
2022.3.0

> <Gold.Id.Protein>
unknown|3mvj_clean|pdb

> <Gold.Protein.RotatedTorsions>
[ 9935 9915 9914 9913 ] final  -98.29 input   59.98 | X-H torsion
[ 10984 10935 10934 10932 ] final   87.59 input   60.03 | X-H torsion
[ 9832 9816 9817 9818 ] final -119.63 input   89.09 | X-H torsion
[ 9883 9871 9872 9873 ] final  120.73 input -126.12 | X-H torsion
[ 9925 9907 9908 9909 ] final  158.35 input  109.17 | X-H torsion
[ 9887 9876 9875 9872 ] final  172.10 input   59.96 | X-H torsion
[ 10746 10695 10694 10692 ] final  138.63 input   59.99 | X-H torsion
[ 11686 11631 11630 11629 ] final  145.90 input   60.02 | X-H torsion
[ 9775 9759 9760 9761 ] final  167.15 input  126.36 | X-H torsion
[ 11605 11587 11588 11589 ] final  -53.27 input  114.14 | X-H torsion
[ 11559 11538 11537 11535 ] final  -35.49 input   60.01 | X-H torsion
[ 11374 11358 11359 11360 ] final -167.57 input   98.08 | X-H torsion
[ 11434 11416 11417 11418 ] final  101.13 input  102.35 | X-H torsion
[ 11551 11527 11528 11529 ] final  119.71 input  127.83 | X-H torsion
[ 11812 11800 11801 11802 ] final   89.87 input  127.47 | X-H torsion
[ 11650 11632 11633 11634 ] final   83.41 input  113.96 | X-H torsion
[ 11482 11466 11467 11468 ] final  117.05 input  126.08 | X-H torsion
[ 11767 11753 11754 11755 ] final    5.24 input  105.73 | X-H torsion
[ 11713 11697 11698 11699 ] final   11.97 input  116.95 | X-H torsion
[ 11576 11526 11525 11523 ] final  -84.30 input   60.00 | X-H torsion
[ 9362 9334 9332 9329 ] final -135.41 input   60.01 | X-H torsion
[ 7768 7713 7712 7711 ] final   70.80 input   60.03 | X-H torsion
[ 15484 15454 15453 15451 ] final -112.61 input   59.98 | X-H torsion
[ 5787 5760 5759 5756 ] final  154.02 input   59.99 | X-H torsion
[ 1829 1810 1808 1805 ] final  -30.94 input   60.00 | X-H torsion
[ 8490 8455 8453 8450 ] final   84.70 input   60.02 | X-H torsion
[ 1885 1872 1871 1868 ] final  121.25 input   59.98 | X-H torsion
[ 9510 9468 9467 9465 ] final  160.23 input   60.02 | X-H torsion
[ 3466 3411 3410 3409 ] final  145.98 input   59.97 | X-H torsion
[ 16458 9819 9818 9817 ] final  -35.05 input    0.00 | X-H torsion
[ 16464 9874 9873 9872 ] final   92.93 input    0.00 | X-H torsion
[ 16467 9762 9761 9760 ] final  154.72 input    0.00 | X-H torsion
[ 16495 9617 9616 9615 ] final   33.60 input    0.00 | X-H torsion
[ 16497 9705 9704 9703 ] final -118.29 input    0.00 | X-H torsion
[ 16500 11530 11529 11528 ] final  157.14 input    0.00 | X-H torsion
[ 16504 11361 11360 11359 ] final -142.43 input    0.00 | X-H torsion
[ 16511 11318 11317 11316 ] final   67.36 input    0.00 | X-H torsion
[ 16520 11590 11589 11588 ] final -107.34 input    0.00 | X-H torsion
[ 16523 11756 11755 11754 ] final  162.38 input    0.00 | X-H torsion
[ 16543 11419 11418 11417 ] final -165.40 input   -0.00 | X-H torsion
[ 16547 11469 11468 11467 ] final   97.49 input    0.00 | X-H torsion
[ 16571 11269 11268 11267 ] final  -75.47 input   -0.00 | X-H torsion

> <Gold.Protein.ActiveResidues>
 THR48   LEU49   GLY50   THR51   GLY52   SER53   PHE54   GLY55   ARG56   VAL57  
 LYS78   LYS81   LEU82   LYS83   GLN84   HIS87   GLU127  PHE129  SER130  LEU132 
 ARG133  ARG134  ILE135  GLY136  ARG137  ARG165  ASP166  LEU167  LYS168  PRO169 
 GLU170  ASN171  LEU172  LEU173  THR183  ASP184  GLY186  PHE187  TPO197  LEU198 
 CYS199  GLY200  THR201  PRO202  GLU203  TYR204  LEU205  PRO207  ILE209  ILE210 
 LEU211  SER212  LYS213  VAL226  LEU227  TYR229  GLU230  ALA233  GLY234  TYR235 
 PRO236  PRO237  PHE238  PHE239  ALA240  ASP241  GLN242  PRO243  ILE244  GLN245 
 ILE246  TYR247  GLU248  LYS249  ILE250  VAL251  SER252  ARG256  PHE257  PRO258 
 SER259  PHE327  ASP328  TYR330 

> <Gold.Protein.RotatedAtoms>
   15.1058    6.4716   10.3507 H   0  0  0  0  0  0  0  0  0  0  0  0  # atno 1829 bound_to 1810
    6.4458    9.4273    9.7787 H   0  0  0  0  0  0  0  0  0  0  0  0  # atno 1885 bound_to 1872
    0.3246   12.1346   -6.7440 H   0  0  0  0  0  0  0  0  0  0  0  0  # atno 3466 bound_to 3411
    1.8446   11.7269   -6.2233 H   0  0  0  0  0  0  0  0  0  0  0  0  # atno 3467 bound_to 3411
    0.6010   10.6394   -6.0857 H   0  0  0  0  0  0  0  0  0  0  0  0  # atno 3468 bound_to 3411
   17.2506   12.0350   24.7327 H   0  0  0  0  0  0  0  0  0  0  0  0  # atno 5787 bound_to 5760
    6.0634   13.3735   14.8200 H   0  0  0  0  0  0  0  0  0  0  0  0  # atno 7768 bound_to 7713
    7.5324   13.0937   14.1056 H   0  0  0  0  0  0  0  0  0  0  0  0  # atno 7769 bound_to 7713
    7.2893   12.6777   15.6915 H   0  0  0  0  0  0  0  0  0  0  0  0  # atno 7770 bound_to 7713
   14.6024   18.2627   13.9697 H   0  0  0  0  0  0  0  0  0  0  0  0  # atno 8490 bound_to 8455
    5.1375   14.1658   14.2365 H   0  0  0  0  0  0  0  0  0  0  0  0  # atno 9362 bound_to 9334
    4.5989   18.5698   22.6301 H   0  0  0  0  0  0  0  0  0  0  0  0  # atno 9510 bound_to 9468
    8.4376    6.8322   41.0363 H   0  0  0  0  0  0  0  0  0  0  0  0  # atno 9775 bound_to 9759
    5.5279    7.8333   39.2734 H   0  0  0  0  0  0  0  0  0  0  0  0  # atno 9832 bound_to 9816
    4.2476   10.2994   40.3694 H   0  0  0  0  0  0  0  0  0  0  0  0  # atno 9883 bound_to 9871
    4.6768   13.5545   39.4607 H   0  0  0  0  0  0  0  0  0  0  0  0  # atno 9887 bound_to 9876
    3.0073    9.7078   43.1793 H   0  0  0  0  0  0  0  0  0  0  0  0  # atno 9925 bound_to 9907
   -2.2352    6.9169   43.1442 H   0  0  0  0  0  0  0  0  0  0  0  0  # atno 9935 bound_to 9915
   -1.0813    8.0955   42.9779 H   0  0  0  0  0  0  0  0  0  0  0  0  # atno 9936 bound_to 9915
   -1.2047    6.8913   41.8457 H   0  0  0  0  0  0  0  0  0  0  0  0  # atno 9937 bound_to 9915
   -4.5951   17.5818   31.0941 H   0  0  0  0  0  0  0  0  0  0  0  0  # atno 10746 bound_to 10695
   -3.3589   13.7942   33.6905 H   0  0  0  0  0  0  0  0  0  0  0  0  # atno 10984 bound_to 10935
   11.4268    5.8409   30.2078 H   0  0  0  0  0  0  0  0  0  0  0  0  # atno 11374 bound_to 11358
   10.2743    3.1136   29.1499 H   0  0  0  0  0  0  0  0  0  0  0  0  # atno 11434 bound_to 11416
   11.0847    1.8507   30.8206 H   0  0  0  0  0  0  0  0  0  0  0  0  # atno 11482 bound_to 11466
    9.8889    3.2015   32.9164 H   0  0  0  0  0  0  0  0  0  0  0  0  # atno 11551 bound_to 11527
   13.1155    7.9314   35.4835 H   0  0  0  0  0  0  0  0  0  0  0  0  # atno 11559 bound_to 11538
   -3.3298   11.7915   11.5158 H   0  0  0  0  0  0  0  0  0  0  0  0  # atno 11576 bound_to 11526
    7.1856    1.9325   34.2559 H   0  0  0  0  0  0  0  0  0  0  0  0  # atno 11605 bound_to 11587
    7.7063   -0.3644   33.5975 H   0  0  0  0  0  0  0  0  0  0  0  0  # atno 11650 bound_to 11632
   -9.2620    8.6417   26.9143 H   0  0  0  0  0  0  0  0  0  0  0  0  # atno 11686 bound_to 11631
   -8.7036    8.0330   25.4778 H   0  0  0  0  0  0  0  0  0  0  0  0  # atno 11687 bound_to 11631
   -7.8749    9.2491   26.2393 H   0  0  0  0  0  0  0  0  0  0  0  0  # atno 11688 bound_to 11631
    6.7953   -1.0065   35.9328 H   0  0  0  0  0  0  0  0  0  0  0  0  # atno 11713 bound_to 11697
    5.7111   -0.7469   37.2725 H   0  0  0  0  0  0  0  0  0  0  0  0  # atno 11767 bound_to 11753
    4.3372   -1.5476   36.7553 H   0  0  0  0  0  0  0  0  0  0  0  0  # atno 11812 bound_to 11800
   15.1971    7.9007   18.6214 H   0  0  0  0  0  0  0  0  0  0  0  0  # atno 15484 bound_to 15454
    1.5617    9.9626   40.3080 LP  0  0  0  0  0  0  0  0  0  0  0  0  # atno 16458 bound_to 9819
    2.0033   10.4965   41.8954 LP  0  0  0  0  0  0  0  0  0  0  0  0  # atno 16459 bound_to 9819
   -3.2383   15.2711   33.0178 LP  0  0  0  0  0  0  0  0  0  0  0  0  # atno 16460 bound_to 10935
   -2.1954   14.8168   34.1894 LP  0  0  0  0  0  0  0  0  0  0  0  0  # atno 16461 bound_to 10935
    5.3041    7.6108   40.9910 LP  0  0  0  0  0  0  0  0  0  0  0  0  # atno 16462 bound_to 9816
    4.7256    9.4861   41.8412 LP  0  0  0  0  0  0  0  0  0  0  0  0  # atno 16463 bound_to 9871
    1.7253   12.6745   43.1433 LP  0  0  0  0  0  0  0  0  0  0  0  0  # atno 16464 bound_to 9874
    3.0012   13.1904   44.1950 LP  0  0  0  0  0  0  0  0  0  0  0  0  # atno 16465 bound_to 9874
    3.8018   11.1223   43.8296 LP  0  0  0  0  0  0  0  0  0  0  0  0  # atno 16466 bound_to 9907
    4.8060    9.3467   38.0599 LP  0  0  0  0  0  0  0  0  0  0  0  0  # atno 16467 bound_to 9762
    6.5035    9.6903   38.0782 LP  0  0  0  0  0  0  0  0  0  0  0  0  # atno 16468 bound_to 9762
    5.1135   12.0035   39.6890 LP  0  0  0  0  0  0  0  0  0  0  0  0  # atno 16469 bound_to 9876
    5.8250   13.1910   40.5552 LP  0  0  0  0  0  0  0  0  0  0  0  0  # atno 16470 bound_to 9876
   -3.7122   16.2714   30.7070 LP  0  0  0  0  0  0  0  0  0  0  0  0  # atno 16477 bound_to 10695
   -4.9845   16.7056   29.7799 LP  0  0  0  0  0  0  0  0  0  0  0  0  # atno 16478 bound_to 10695
    4.8868    4.9555   40.9270 LP  0  0  0  0  0  0  0  0  0  0  0  0  # atno 16495 bound_to 9617
    5.5183    6.2811   41.8457 LP  0  0  0  0  0  0  0  0  0  0  0  0  # atno 16496 bound_to 9617
    6.5262    9.8640   40.9519 LP  0  0  0  0  0  0  0  0  0  0  0  0  # atno 16497 bound_to 9705
    8.1445   10.3850   41.2832 LP  0  0  0  0  0  0  0  0  0  0  0  0  # atno 16498 bound_to 9705
    7.2100    7.9761   41.5301 LP  0  0  0  0  0  0  0  0  0  0  0  0  # atno 16499 bound_to 9759
    5.6265    1.7836   35.4834 LP  0  0  0  0  0  0  0  0  0  0  0  0  # atno 16500 bound_to 11530
    7.0579    2.0674   36.4165 LP  0  0  0  0  0  0  0  0  0  0  0  0  # atno 16501 bound_to 11530
    7.6994    2.5901   31.4453 LP  0  0  0  0  0  0  0  0  0  0  0  0  # atno 16504 bound_to 11361
    7.0565    4.1637   31.1131 LP  0  0  0  0  0  0  0  0  0  0  0  0  # atno 16505 bound_to 11361
    7.3122    2.1349   32.5217 LP  0  0  0  0  0  0  0  0  0  0  0  0  # atno 16508 bound_to 11587
   12.4134    8.9555   34.4321 LP  0  0  0  0  0  0  0  0  0  0  0  0  # atno 16509 bound_to 11538
   13.3469    7.7322   33.8854 LP  0  0  0  0  0  0  0  0  0  0  0  0  # atno 16510 bound_to 11538
   11.2821    4.6205   32.9334 LP  0  0  0  0  0  0  0  0  0  0  0  0  # atno 16511 bound_to 11318
   10.8183    3.2377   31.9992 LP  0  0  0  0  0  0  0  0  0  0  0  0  # atno 16512 bound_to 11318
   11.1454    4.2097   29.6765 LP  0  0  0  0  0  0  0  0  0  0  0  0  # atno 16513 bound_to 11358
    8.9285    3.5407   30.1777 LP  0  0  0  0  0  0  0  0  0  0  0  0  # atno 16514 bound_to 11416
    9.8869    1.6685   33.7469 LP  0  0  0  0  0  0  0  0  0  0  0  0  # atno 16515 bound_to 11527
    4.9387   -0.8243   35.5736 LP  0  0  0  0  0  0  0  0  0  0  0  0  # atno 16520 bound_to 11590
    4.0342   -1.2036   34.1459 LP  0  0  0  0  0  0  0  0  0  0  0  0  # atno 16521 bound_to 11590
    3.0291   -0.6828   37.5273 LP  0  0  0  0  0  0  0  0  0  0  0  0  # atno 16522 bound_to 11800
    1.7247   -1.6607   38.9078 LP  0  0  0  0  0  0  0  0  0  0  0  0  # atno 16523 bound_to 11756
    2.6702   -0.7194   40.0122 LP  0  0  0  0  0  0  0  0  0  0  0  0  # atno 16524 bound_to 11756
    8.7563   -0.3314   32.3127 LP  0  0  0  0  0  0  0  0  0  0  0  0  # atno 16543 bound_to 11419
    7.8667   -0.4458   30.8310 LP  0  0  0  0  0  0  0  0  0  0  0  0  # atno 16544 bound_to 11419
    6.0081   -0.7341   33.4365 LP  0  0  0  0  0  0  0  0  0  0  0  0  # atno 16545 bound_to 11632
    9.7012    0.7873   30.9705 LP  0  0  0  0  0  0  0  0  0  0  0  0  # atno 16546 bound_to 11466
    9.6356    0.4105   35.3792 LP  0  0  0  0  0  0  0  0  0  0  0  0  # atno 16547 bound_to 11469
    8.5561   -0.0376   34.1010 LP  0  0  0  0  0  0  0  0  0  0  0  0  # atno 16548 bound_to 11469
    6.2912    0.7828   37.8867 LP  0  0  0  0  0  0  0  0  0  0  0  0  # atno 16549 bound_to 11753
    8.5054   -1.3942   35.8514 LP  0  0  0  0  0  0  0  0  0  0  0  0  # atno 16550 bound_to 11697
   -3.4921   10.1889   11.7478 LP  0  0  0  0  0  0  0  0  0  0  0  0  # atno 16565 bound_to 11526
   -2.7171   11.1029   12.8571 LP  0  0  0  0  0  0  0  0  0  0  0  0  # atno 16566 bound_to 11526
    4.5647   15.6496   13.8911 LP  0  0  0  0  0  0  0  0  0  0  0  0  # atno 16567 bound_to 9334
    4.1208   14.3680   12.9816 LP  0  0  0  0  0  0  0  0  0  0  0  0  # atno 16568 bound_to 9334
   11.4952    2.8227   28.9556 LP  0  0  0  0  0  0  0  0  0  0  0  0  # atno 16571 bound_to 11269
   12.8180    2.1503   29.8489 LP  0  0  0  0  0  0  0  0  0  0  0  0  # atno 16572 bound_to 11269
   15.0660    8.7560   17.2436 LP  0  0  0  0  0  0  0  0  0  0  0  0  # atno 16581 bound_to 15454
   16.3044    9.0397   18.2695 LP  0  0  0  0  0  0  0  0  0  0  0  0  # atno 16582 bound_to 15454
   16.2836   13.1307   25.4480 LP  0  0  0  0  0  0  0  0  0  0  0  0  # atno 16589 bound_to 5760
   16.1902   12.8835   23.8366 LP  0  0  0  0  0  0  0  0  0  0  0  0  # atno 16590 bound_to 5760
   15.0477    5.0400   11.1229 LP  0  0  0  0  0  0  0  0  0  0  0  0  # atno 16601 bound_to 1810
   16.4670    5.8338   10.9746 LP  0  0  0  0  0  0  0  0  0  0  0  0  # atno 16602 bound_to 1810
   14.3833   19.3959   15.1168 LP  0  0  0  0  0  0  0  0  0  0  0  0  # atno 16609 bound_to 8455
   15.7187   18.4563   15.1378 LP  0  0  0  0  0  0  0  0  0  0  0  0  # atno 16610 bound_to 8455
    6.9863    7.9010    9.6175 LP  0  0  0  0  0  0  0  0  0  0  0  0  # atno 16611 bound_to 1872
    5.9012    8.5024    8.5557 LP  0  0  0  0  0  0  0  0  0  0  0  0  # atno 16612 bound_to 1872
    4.7435   16.9601   22.4429 LP  0  0  0  0  0  0  0  0  0  0  0  0  # atno 16621 bound_to 9468
    3.4338   17.5836   23.1930 LP  0  0  0  0  0  0  0  0  0  0  0  0  # atno 16622 bound_to 9468

> <Gold.Score>
     Fitness  S(hb_ext) S(vdw_ext)  S(hb_int)    S(int)      intcor
     38.65       6.78      23.65       0.00      -0.65      -0.78

> <Gold.Goldscore.Fitness>
38.6523

> <Gold.Goldscore.Internal.Vdw>
-0.9309

> <Gold.Goldscore.Internal.Torsion>
-0.4946

> <Gold.Goldscore.External.Vdw>
23.6508

> <Gold.Goldscore.Internal.HBond>
0.0000

> <Gold.Goldscore.External.HBond>
6.7826

> <Gold.Goldscore.Internal.Correction>
-0.7752

> <Gold.Goldscore.Hbonds>
donor molecule, donor type, donor heavy atom, donor atom, acceptor molecule, acceptor atom, score
      P1  H  1867  1886       L1    11  0.49
      P1  H  7864  7898       L1     9  0.01
      L1  H     8    22       P1  7619  0.96

> <Gold.Goldscore.Internal.Vdw.Weighted>
-0.9309

> <Gold.Goldscore.Internal.Torsion.Weighted>
-0.4946

> <Gold.Goldscore.External.Vdw.Weighted>
32.5199

> <Gold.Goldscore.Internal.HBond.Weighted>
0.0000

> <Gold.Goldscore.External.HBond.Weighted>
6.7826

> <Gold.Goldscore.Internal.Correction.Weighted>
-0.7752

> <Gold.Rescore>
     Score     S(PLP)   S(hbond)     S(cho)   S(metal)  DE(clash)   DE(tors)     intcor
     31.43     -24.80       2.25       0.00       0.00       0.00       0.05       ----

> <Gold.PLP.Fitness>
31.4333

> <Gold.PLP.PLP>
-24.7986

> <Gold.PLP.part.hbond>
-3.5966

> <Gold.PLP.part.metal>
0.0000

> <Gold.PLP.part.buried>
-1.0615

> <Gold.PLP.part.nonpolar>
-23.8661

> <Gold.PLP.part.repulsive>
4.3651

> <Gold.PLP.ligand.clash>
0.0000

> <Gold.PLP.ligand.torsion>
0.0532

> <Gold.PLP.Chemscore.Hbond>
2.2470

> <Gold.PLP.Chemscore.CHOScore>
0.0000

> <Gold.PLP.Chemscore.Metal>
0.0000

> <Gold.Chemscore.Hbonds>
donor molecule, donor type, donor heavy atom, donor atom, acceptor molecule, acceptor atom, score
      L1  H     8    22       P1  7619  0.67
      P1  H  1867  1886       L1    11  1.00
      P1  H  7864  7898       L1     9  0.26

> <Gold.PLP.Chemscore.Internal.Correction>
   9.000000E+99

