@<TRIPOS>MOLECULE
A:IPH351
    13    13     1     0     1
SMALL
NO_CHARGES
****
Generated from the CSD

@<TRIPOS>ATOM
     1 C1      32.3200  10.1450  -3.6570   C.ar      1 IPH351   0.0000
     2 O1      33.6560  10.3400  -3.9460   O.3       1 IPH351   0.0000
     3 C2      31.9050  10.0780  -2.3220   C.ar      1 IPH351   0.0000
     4 C3      30.5450   9.9530  -2.0370   C.ar      1 IPH351   0.0000
     5 C4      29.6170   9.9420  -3.0910   C.ar      1 IPH351   0.0000
     6 C5      30.0400   9.9730  -4.4170   C.ar      1 IPH351   0.0000
     7 C6      31.4060  10.0340  -4.7120   C.ar      1 IPH351   0.0000
     8 H1      30.2059   9.8647  -1.0059   H         1 IPH351   0.0000
     9 H2      28.5516   9.9088  -2.8680   H         1 IPH351   0.0000
    10 H3      29.3085   9.9498  -5.2234   H         1 IPH351   0.0000
    11 H4      31.7524   9.9958  -5.7437   H         1 IPH351   0.0000
    12 H5      32.6351  10.1229  -1.5152   H         1 IPH351   0.0000
    13 H6      34.1898   9.5961  -3.5617   H         1 IPH351   0.0000
@<TRIPOS>BOND
     1     1     2    1
     2     1     3   ar
     3     3     4   ar
     4     4     5   ar
     5     5     6   ar
     6     1     7   ar
     7     6     7   ar
     8     4     8    1
     9     5     9    1
    10     6    10    1
    11     7    11    1
    12     3    12    1
    13     2    13    1
@<TRIPOS>SUBSTRUCTURE
     1 IPH351      1 GROUP             0 A     IPH     0  
@<TRIPOS>SET
CCDC_LIGAND STATIC ATOMS
13 1 2 3 4 5 6 7 8 9 \
10 11 12 13 
