@<TRIPOS>MOLECULE
B:THR5
   267   268    18     0     1
SMALL
NO_CHARGES
****
Generated from the CSD

@<TRIPOS>ATOM
     1 N        9.9510 -13.4330 -18.5220   N.3       1 THR5   0.0000
     2 CA      11.1110 -13.6660 -17.6680   C.3       1 THR5   0.0000
     3 C       11.1340 -12.7050 -16.4850   C.2       1 THR5   0.0000
     4 O       10.6020 -11.5940 -16.5590   O.2       1 THR5   0.0000
     5 CB      12.4560 -13.4770 -18.4090   C.3       1 THR5   0.0000
     6 CG2     12.4620 -14.2250 -19.7300   C.3       1 THR5   0.0000
     7 OG1     12.6170 -12.0890 -18.7180   O.3       1 THR5   0.0000
     8 N       11.7690 -13.1290 -15.4020   N.am      2 THR6   0.0000
     9 CA      11.8410 -12.2670 -14.2160   C.3       2 THR6   0.0000
    10 C       12.6350 -11.0080 -14.5160   C.2       2 THR6   0.0000
    11 O       12.3470  -9.9010 -14.0870   O.2       2 THR6   0.0000
    12 CB      12.5070 -13.0040 -13.0400   C.3       2 THR6   0.0000
    13 CG2     12.5300 -12.1300 -11.7890   C.3       2 THR6   0.0000
    14 OG1     11.7450 -14.1780 -12.7210   O.3       2 THR6   0.0000
    15 N       13.7020 -11.1840 -15.3000   N.am      3 TYR7   0.0000
    16 CA      14.4420  -9.9950 -15.7240   C.3       3 TYR7   0.0000
    17 C       13.5310  -9.0990 -16.5530   C.2       3 TYR7   0.0000
    18 O       13.5120  -7.8840 -16.3410   O.2       3 TYR7   0.0000
    19 CB      15.6960 -10.4130 -16.4840   C.3       3 TYR7   0.0000
    20 CG      16.3740  -9.3440 -17.3010   C.ar      3 TYR7   0.0000
    21 CD1     16.0720  -9.2010 -18.6510   C.ar      3 TYR7   0.0000
    22 CD2     17.3040  -8.4820 -16.7250   C.ar      3 TYR7   0.0000
    23 CE1     16.6740  -8.2290 -19.4250   C.ar      3 TYR7   0.0000
    24 CE2     17.9130  -7.5050 -17.4920   C.ar      3 TYR7   0.0000
    25 CZ      17.5940  -7.3880 -18.8290   C.ar      3 TYR7   0.0000
    26 OH      18.1900  -6.4260 -19.6100   O.3       3 TYR7   0.0000
    27 N       12.7620  -9.6540 -17.5030   N.am      4 ALA8   0.0000
    28 CA      11.8860  -8.7610 -18.2640   C.3       4 ALA8   0.0000
    29 C       10.8970  -8.0470 -17.3500   C.2       4 ALA8   0.0000
    30 O       10.5800  -6.8700 -17.5130   O.2       4 ALA8   0.0000
    31 CB      11.1250  -9.5130 -19.3440   C.3       4 ALA8   0.0000
    32 N       10.3550  -8.7470 -16.3580   N.am      5 ASP9   0.0000
    33 CA       9.4420  -8.0530 -15.4340   C.3       5 ASP9   0.0000
    34 C       10.1550  -6.9520 -14.6730   C.2       5 ASP9   0.0000
    35 O        9.6680  -5.8330 -14.5030   O.2       5 ASP9   0.0000
    36 CB       8.8170  -9.0670 -14.4750   C.3       5 ASP9   0.0000
    37 CG       7.8560  -9.9850 -15.2300   C.ar      5 ASP9   0.0000
    38 OD1      7.2370  -9.5550 -16.2290   O.co2     5 ASP9   0.0000
    39 OD2      7.7250 -11.1490 -14.8060   O.co2     5 ASP9   0.0000
    40 N       11.3750  -7.2430 -14.2040   N.am      6 PHE10   0.0000
    41 CA      12.0940  -6.1710 -13.4990   C.3       6 PHE10   0.0000
    42 C       12.3300  -4.9690 -14.4010   C.2       6 PHE10   0.0000
    43 O       12.1380  -3.8100 -14.0190   O.2       6 PHE10   0.0000
    44 CB      13.4240  -6.6980 -12.9750   C.3       6 PHE10   0.0000
    45 CG      14.3120  -5.6640 -12.2890   C.ar      6 PHE10   0.0000
    46 CD1     14.0280  -5.2000 -11.0170   C.ar      6 PHE10   0.0000
    47 CD2     15.4360  -5.1670 -12.9230   C.ar      6 PHE10   0.0000
    48 CE1     14.8440  -4.2770 -10.3860   C.ar      6 PHE10   0.0000
    49 CE2     16.2680  -4.2570 -12.3060   C.ar      6 PHE10   0.0000
    50 CZ      15.9750  -3.8080 -11.0300   C.ar      6 PHE10   0.0000
    51 N       12.7750  -5.2620 -15.6350   N.am      7 ILE11   0.0000
    52 CA      13.2010  -4.1460 -16.4740   C.3       7 ILE11   0.0000
    53 C       12.0230  -3.2500 -16.7870   C.2       7 ILE11   0.0000
    54 O       12.2040  -2.0460 -16.9960   O.2       7 ILE11   0.0000
    55 CB      13.8830  -4.6260 -17.7660   C.3       7 ILE11   0.0000
    56 CG1     15.3020  -5.1510 -17.5410   C.3       7 ILE11   0.0000
    57 CG2     13.8390  -3.5100 -18.7910   C.3       7 ILE11   0.0000
    58 CD1     16.1910  -4.2450 -16.7040   C.3       7 ILE11   0.0000
    59 N       10.8210  -3.8180 -16.8090   N.am      8 ALA12   0.0000
    60 CA       9.6530  -2.9770 -17.1050   C.3       8 ALA12   0.0000
    61 C        9.0290  -2.3870 -15.8460   C.2       8 ALA12   0.0000
    62 O        8.0260  -1.6680 -15.8790   O.2       8 ALA12   0.0000
    63 CB       8.6210  -3.7890 -17.8800   C.3       8 ALA12   0.0000
    64 N        9.6100  -2.6930 -14.6870   N.am      9 SER13   0.0000
    65 CA       9.0310  -2.2130 -13.4380   C.3       9 SER13   0.0000
    66 C        9.4500  -0.7780 -13.1750   C.2       9 SER13   0.0000
    67 O       10.2690  -0.2250 -13.9090   O.2       9 SER13   0.0000
    68 CB       9.4770  -3.1010 -12.2750   C.3       9 SER13   0.0000
    69 OG      10.7700  -2.6750 -11.8380   O.3       9 SER13   0.0000
    70 N        8.9010  -0.1750 -12.1240   N.am     10 GLY14   0.0000
    71 CA       9.2560   1.2040 -11.8300   C.3      10 GLY14   0.0000
    72 C       10.4360   1.3080 -10.8930   C.2      10 GLY14   0.0000
    73 O       10.7080   2.3860 -10.3530   O.2      10 GLY14   0.0000
    74 N       11.1770   0.2180 -10.6550   N.am     11 ARG15   0.0000
    75 CA      12.2440   0.3440  -9.6570   C.3      11 ARG15   0.0000
    76 C       13.5870  -0.1270 -10.1750   C.2      11 ARG15   0.0000
    77 O       14.3390  -0.7890  -9.4600   O.2      11 ARG15   0.0000
    78 CB      11.8220  -0.4020  -8.3720   C.3      11 ARG15   0.0000
    79 CG      10.6880   0.3570  -7.6820   C.3      11 ARG15   0.0000
    80 CD      10.3670  -0.1480  -6.2970   C.3      11 ARG15   0.0000
    81 NE      11.3610   0.2480  -5.3130   N.2      11 ARG15   0.0000
    82 CZ      11.3150   1.2780  -4.4880   C.ar     11 ARG15   0.0000
    83 NH1     12.3290   1.4760  -3.6500   N.2      11 ARG15   0.0000
    84 NH2     10.2950   2.1230  -4.4620   N.2      11 ARG15   0.0000
    85 N       13.9150   0.2300 -11.4190   N.am     12 THR16   0.0000
    86 CA      15.2370  -0.0860 -11.9520   C.3      12 THR16   0.0000
    87 C       16.1430   1.1290 -11.8280   C.2      12 THR16   0.0000
    88 O       17.3490   1.0670 -12.0320   O.2      12 THR16   0.0000
    89 CB      15.1840  -0.5650 -13.4150   C.3      12 THR16   0.0000
    90 CG2     14.0340  -1.5490 -13.6050   C.3      12 THR16   0.0000
    91 OG1     14.9230   0.5550 -14.2650   O.3      12 THR16   0.0000
    92 N       15.5970   2.2820 -11.4420   N.am     13 GLY17   0.0000
    93 CA      16.4680   3.4060 -11.1490   C.3      13 GLY17   0.0000
    94 C       17.1000   3.3530  -9.7660   C.2      13 GLY17   0.0000
    95 O       16.9090   2.3580  -9.0710   O.2      13 GLY17   0.0000
    96 N       17.8400   4.3950  -9.4040   N.am     14 ARG18   0.0000
    97 CA      18.4490   4.6440  -8.1090   C.3      14 ARG18   0.0000
    98 C       17.3620   4.6790  -7.0440   C.2      14 ARG18   0.0000
    99 O       16.4150   5.4630  -7.1510   O.2      14 ARG18   0.0000
   100 CB      19.2470   5.9550  -8.1270   C.3      14 ARG18   0.0000
   101 CG      20.5770   5.8690  -8.8680   C.3      14 ARG18   0.0000
   102 CD      21.2870   7.2130  -8.9420   C.3      14 ARG18   0.0000
   103 NE      22.3510   7.2960  -7.9300   N.2      14 ARG18   0.0000
   104 CZ      22.2230   7.9330  -6.7700   C.ar     14 ARG18   0.0000
   105 NH1     21.0820   8.5440  -6.4710   N.2      14 ARG18   0.0000
   106 NH2     23.2040   7.9880  -5.8790   N.2      14 ARG18   0.0000
   107 N       17.4290   3.8390  -6.0160   N.am     15 ARG19   0.0000
   108 CA      16.3040   3.7150  -5.0890   C.3      15 ARG19   0.0000
   109 C       16.5080   4.5350  -3.8200   C.2      15 ARG19   0.0000
   110 O       17.5510   4.4560  -3.1860   O.2      15 ARG19   0.0000
   111 CB      16.0770   2.2500  -4.7150   C.3      15 ARG19   0.0000
   112 CG      15.9270   1.3280  -5.9200   C.3      15 ARG19   0.0000
   113 CD      16.4420  -0.0660  -5.5880   C.3      15 ARG19   0.0000
   114 NE      17.9040  -0.1470  -5.6340   N.2      15 ARG19   0.0000
   115 CZ      18.4940  -1.3210  -5.8520   C.ar     15 ARG19   0.0000
   116 NH1     17.7660  -2.4170  -6.0220   N.2      15 ARG19   0.0000
   117 NH2     19.8060  -1.3900  -5.8940   N.2      15 ARG19   0.0000
   118 N       15.4960   5.3240  -3.4630   N.am     16 ASN20   0.0000
   119 CA      15.6120   6.1850  -2.3000   C.3      16 ASN20   0.0000
   120 C       15.4700   5.3530  -1.0310   C.2      16 ASN20   0.0000
   121 O       14.7820   4.3300  -0.9990   O.2      16 ASN20   0.0000
   122 CB      14.5570   7.2860  -2.3150   C.3      16 ASN20   0.0000
   123 CG      14.8670   8.4310  -3.2530   C.2      16 ASN20   0.0000
   124 ND2     14.0010   8.6120  -4.2450   N.am     16 ASN20   0.0000
   125 OD1     15.8570   9.1480  -3.1140   O.2      16 ASN20   0.0000
   126 N       16.1300   5.8420   0.0090   N.am     17 ALA21   0.0000
   127 CA      15.9140   5.3140   1.3460   C.3      17 ALA21   0.0000
   128 C       14.5400   5.7340   1.8580   C.2      17 ALA21   0.0000
   129 O       13.9910   6.7510   1.4330   O.2      17 ALA21   0.0000
   130 CB      16.9880   5.8180   2.3020   C.3      17 ALA21   0.0000
   131 N       13.9870   4.9570   2.7760   N.am     18 ILE22   0.0000
   132 CA      12.8720   5.4080   3.5960   C.3      18 ILE22   0.0000
   133 C       13.4490   6.0870   4.8390   C.2      18 ILE22   0.0000
   134 O       14.3620   5.5080   5.4570   O.2      18 ILE22   0.0000
   135 CB      11.9500   4.2590   4.0430   C.3      18 ILE22   0.0000
   136 CG1     12.6980   3.1930   4.8250   C.3      18 ILE22   0.0000
   137 CG2     11.2070   3.7130   2.8290   C.3      18 ILE22   0.0000
   138 CD1     11.9190   2.0510   5.4210   C.3      18 ILE22   0.0000
   139 H1      16.6297  -3.0911 -10.5368   H         6 PHE10   0.0000
   140 H2      17.5522  -8.5773 -15.6690   H         3 TYR7   0.0000
   141 H3      16.4292  -8.1275 -20.4813   H         3 TYR7   0.0000
   142 H4      15.3446  -9.8705 -19.1077   H         3 TYR7   0.0000
   143 H5       8.2707  -8.5365 -13.6965   H         5 ASP9   0.0000
   144 H6       9.6051  -9.6662 -14.0214   H         5 ASP9   0.0000
   145 H7      17.1547  -3.8919 -12.8221   H         6 PHE10   0.0000
   146 H8       8.6432  -7.6005 -16.0197   H         5 ASP9   0.0000
   147 H9      14.7470  -9.4454 -14.8347   H         3 TYR7   0.0000
   148 H10      9.7927   0.2674  -8.2955   H        11 ARG15   0.0000
   149 H11     10.9732   1.4053  -7.6070   H        11 ARG15   0.0000
   150 H12     10.3180  -1.2355  -6.3250   H        11 ARG15   0.0000
   151 H13      9.3997   0.2513  -5.9957   H        11 ARG15   0.0000
   152 H14     12.6741  -0.4708  -7.6974   H        11 ARG15   0.0000
   153 H15     11.4819  -1.4037  -8.6305   H        11 ARG15   0.0000
   154 H16     11.2043   4.6858   4.7121   H        18 ILE22   0.0000
   155 H17     13.2071   3.6961   5.6457   H        18 ILE22   0.0000
   156 H18     13.4358   2.7601   4.1511   H        18 ILE22   0.0000
   157 H19     11.9260   3.3426   2.0997   H        18 ILE22   0.0000
   158 H20     10.5529   2.8995   3.1394   H        18 ILE22   0.0000
   159 H21     10.6114   4.5068   2.3807   H        18 ILE22   0.0000
   160 H22     11.4112   1.5048   4.6275   H        18 ILE22   0.0000
   161 H23     12.5997   1.3813   5.9445   H        18 ILE22   0.0000
   162 H24     11.1825   2.4408   6.1222   H        18 ILE22   0.0000
   163 H25      7.9455  -2.2537 -13.5152   H         9 SER13   0.0000
   164 H26     13.9261  -3.5610 -15.9101   H         7 ILE11   0.0000
   165 H27     18.6409  -6.8313 -17.0424   H         3 TYR7   0.0000
   166 H28     10.4529  -3.2584 -14.6735   H         9 SER13   0.0000
   167 H29     14.3511   4.0194   2.9121   H        18 ILE22   0.0000
   168 H30     12.2876   6.1343   3.0331   H        18 ILE22   0.0000
   169 H31     13.0713   7.0516   5.1749   H        18 ILE22   0.0000
   170 H32      8.2416  -0.6721 -11.5338   H        10 GLY14   0.0000
   171 H33      8.3998   1.6950 -11.3698   H        10 GLY14   0.0000
   172 H34      9.5049   1.7075 -12.7630   H        10 GLY14   0.0000
   173 H35     10.7236  -1.7289 -11.5399   H         9 SER13   0.0000
   174 H36      8.3089  -4.6443 -17.2825   H         8 ALA12   0.0000
   175 H37      7.7565  -3.1637 -18.0982   H         8 ALA12   0.0000
   176 H38      9.0606  -4.1389 -18.8129   H         8 ALA12   0.0000
   177 H39     19.1307   3.8255  -7.8827   H        14 ARG18   0.0000
   178 H40     19.4484   6.2460  -7.0971   H        14 ARG18   0.0000
   179 H41     18.6375   6.7189  -8.6075   H        14 ARG18   0.0000
   180 H42     20.3909   5.5154  -9.8810   H        14 ARG18   0.0000
   181 H43     21.2215   5.1610  -8.3491   H        14 ARG18   0.0000
   182 H44     20.5646   8.0089  -8.7671   H        14 ARG18   0.0000
   183 H45     21.7252   7.3316  -9.9318   H        14 ARG18   0.0000
   184 H46     20.9837   9.0305  -5.5856   H        14 ARG18   0.0000
   185 H47     23.0678   8.4844  -5.0042   H        14 ARG18   0.0000
   186 H48     18.2647   3.2809  -5.8735   H        15 ARG19   0.0000
   187 H49     15.4088   4.0807  -5.5899   H        15 ARG19   0.0000
   188 H50     15.1697   2.1842  -4.1163   H        15 ARG19   0.0000
   189 H51     16.9267   1.9098  -4.1250   H        15 ARG19   0.0000
   190 H52     16.4979   1.7323  -6.7546   H        15 ARG19   0.0000
   191 H53     14.8753   1.2659  -6.1958   H        15 ARG19   0.0000
   192 H54     16.0298  -0.7717  -6.3078   H        15 ARG19   0.0000
   193 H55     16.1083  -0.3327  -4.5863   H        15 ARG19   0.0000
   194 H56     18.2220  -3.3085  -6.1878   H        15 ARG19   0.0000
   195 H57     20.2623  -2.2814  -6.0597   H        15 ARG19   0.0000
   196 H58     14.6391   5.3232  -4.0070   H        16 ASN20   0.0000
   197 H59     16.5981   6.6471  -2.3053   H        16 ASN20   0.0000
   198 H60     14.4670   7.6861  -1.3062   H        16 ASN20   0.0000
   199 H61     13.6080   6.8452  -2.6166   H        16 ASN20   0.0000
   200 H62     14.1449   9.3618  -4.9138   H        16 ASN20   0.0000
   201 H63     13.1958   8.0004  -4.3337   H        16 ASN20   0.0000
   202 H64     16.7955   6.5956  -0.1300   H        17 ALA21   0.0000
   203 H65     15.9586   4.2266   1.3072   H        17 ALA21   0.0000
   204 H66     16.9560   6.9058   2.3430   H        17 ALA21   0.0000
   205 H67     16.8085   5.4118   3.2963   H        17 ALA21   0.0000
   206 H68     17.9671   5.4967   1.9499   H        17 ALA21   0.0000
   207 H69     11.0077  -0.6556 -11.1433   H        11 ARG15   0.0000
   208 H70     12.3391   1.4000  -9.4084   H        11 ARG15   0.0000
   209 H71     13.9901 -12.1124 -15.5922   H         3 TYR7   0.0000
   210 H72     11.0637 -14.6852 -17.2874   H         1 THR5   0.0000
   211 H73      9.9793 -12.4834 -18.8794   H         1 THR5   0.0000
   212 H74      9.9653 -14.0871 -19.2980   H         1 THR5   0.0000
   213 H75     13.1430  -5.5691 -10.5008   H         6 PHE10   0.0000
   214 H76      9.5254  -4.1379 -12.6042   H         9 SER13   0.0000
   215 H77      8.7664  -3.0134 -11.4545   H         9 SER13   0.0000
   216 H78     12.7868 -10.6520 -17.6863   H         4 ALA8   0.0000
   217 H79     15.7729  -5.2828 -18.5141   H         7 ILE11   0.0000
   218 H80     15.2312  -6.1145 -17.0385   H         7 ILE11   0.0000
   219 H81     15.4194 -11.2207 -17.1601   H         3 TYR7   0.0000
   220 H82     16.4174 -10.7803 -15.7556   H         3 TYR7   0.0000
   221 H83     15.6693  -5.5020 -13.9326   H         6 PHE10   0.0000
   222 H84     12.5063  -8.0078 -18.7475   H         4 ALA8   0.0000
   223 H85      9.9806  -2.1537 -17.7381   H         8 ALA12   0.0000
   224 H86     12.3112   2.2625  -3.0086   H        11 ARG15   0.0000
   225 H87     10.2983   2.9027  -3.8122   H        11 ARG15   0.0000
   226 H88     13.2421   0.7234 -11.9969   H        12 THR16   0.0000
   227 H89     15.6618  -0.8873 -11.3492   H        12 THR16   0.0000
   228 H90     16.1277  -1.0333 -13.6908   H        12 THR16   0.0000
   229 H91     13.0933  -1.0605 -13.3553   H        12 THR16   0.0000
   230 H92     14.0071  -1.8800 -14.6421   H        12 THR16   0.0000
   231 H93     14.1807  -2.4090 -12.9532   H        12 THR16   0.0000
   232 H94     15.6469   1.2265 -14.1594   H        12 THR16   0.0000
   233 H95     14.5899   2.3727 -11.3544   H        13 GLY17   0.0000
   234 H96     15.8830   4.3215 -11.2236   H        13 GLY17   0.0000
   235 H97     17.2658   3.4236 -11.8900   H        13 GLY17   0.0000
   236 H98     17.9986   5.1004 -10.1163   H        14 ARG18   0.0000
   237 H99     17.4937  -5.8240 -19.9826   H         3 TYR7   0.0000
   238 H100    10.8303 -11.9839 -13.9258   H         2 THR6   0.0000
   239 H101    13.2903  -5.4509 -18.1587   H         7 ILE11   0.0000
   240 H102    11.7128 -14.7769 -13.5124   H         2 THR6   0.0000
   241 H103    10.7127  -4.8104 -16.6254   H         8 ALA12   0.0000
   242 H104    11.5101 -11.8727 -11.5071   H         2 THR6   0.0000
   243 H105    13.0054 -12.6745 -10.9745   H         2 THR6   0.0000
   244 H106    13.0910 -11.2191 -11.9928   H         2 THR6   0.0000
   245 H107    11.4911  -5.8519 -12.6501   H         6 PHE10   0.0000
   246 H108    12.2038 -14.0461 -15.3925   H         2 THR6   0.0000
   247 H109    10.5121 -10.2869 -18.8842   H         4 ALA8   0.0000
   248 H110    10.4857  -8.8190 -19.8877   H         4 ALA8   0.0000
   249 H111    11.8320  -9.9718 -20.0337   H         4 ALA8   0.0000
   250 H112    13.9774  -7.1106 -13.8173   H         6 PHE10   0.0000
   251 H113    13.2128  -7.4890 -12.2570   H         6 PHE10   0.0000
   252 H114    15.7464  -4.1094 -15.7192   H         7 ILE11   0.0000
   253 H115    17.1752  -4.6990 -16.5986   H         7 ILE11   0.0000
   254 H116    16.2881  -3.2777 -17.1948   H         7 ILE11   0.0000
   255 H117    10.5648  -9.7331 -16.2407   H         5 ASP9   0.0000
   256 H118    14.5967  -3.9215  -9.3868   H         6 PHE10   0.0000
   257 H119    11.7855  -8.1628 -14.3295   H         6 PHE10   0.0000
   258 H120    13.2789 -13.8183 -17.7826   H         1 THR5   0.0000
   259 H121    12.6175 -11.5606 -17.8773   H         1 THR5   0.0000
   260 H122    11.6597 -13.8495 -20.3634   H         1 THR5   0.0000
   261 H123    13.4186 -14.0742 -20.2282   H         1 THR5   0.0000
   262 H124    12.3121 -15.2878 -19.5460   H         1 THR5   0.0000
   263 H125    14.3626  -2.6383 -18.4013   H         7 ILE11   0.0000
   264 H126    14.3203  -3.8418 -19.7098   H         7 ILE11   0.0000
   265 H127    12.8025  -3.2482 -18.9983   H         7 ILE11   0.0000
   266 H128    13.5233 -13.2867 -13.3106   H         2 THR6   0.0000
   267 H129    12.8132  -6.2195 -15.9696   H         7 ILE11   0.0000
@<TRIPOS>BOND
     1     1     2    1
     2     2     3    1
     3     3     4    2
     4     2     5    1
     5     5     6    1
     6     5     7    1
     7     3     8   am
     8     8     9    1
     9     9    10    1
    10    10    11    2
    11     9    12    1
    12    12    13    1
    13    12    14    1
    14    10    15   am
    15    15    16    1
    16    16    17    1
    17    17    18    2
    18    16    19    1
    19    19    20    1
    20    20    21   ar
    21    20    22   ar
    22    21    23   ar
    23    22    24   ar
    24    23    25   ar
    25    24    25   ar
    26    25    26    1
    27    17    27   am
    28    27    28    1
    29    28    29    1
    30    29    30    2
    31    28    31    1
    32    29    32   am
    33    32    33    1
    34    33    34    1
    35    34    35    2
    36    33    36    1
    37    36    37    1
    38    37    38   ar
    39    37    39   ar
    40    34    40   am
    41    40    41    1
    42    41    42    1
    43    42    43    2
    44    41    44    1
    45    44    45    1
    46    45    46   ar
    47    45    47   ar
    48    46    48   ar
    49    47    49   ar
    50    48    50   ar
    51    49    50   ar
    52    42    51   am
    53    51    52    1
    54    52    53    1
    55    53    54    2
    56    52    55    1
    57    55    56    1
    58    55    57    1
    59    56    58    1
    60    53    59   am
    61    59    60    1
    62    60    61    1
    63    61    62    2
    64    60    63    1
    65    61    64   am
    66    64    65    1
    67    65    66    1
    68    66    67    2
    69    65    68    1
    70    68    69    1
    71    66    70   am
    72    70    71    1
    73    71    72    1
    74    72    73    2
    75    72    74   am
    76    74    75    1
    77    75    76    1
    78    76    77    2
    79    75    78    1
    80    78    79    1
    81    79    80    1
    82    80    81    1
    83    81    82   ar
    84    82    83   ar
    85    82    84   ar
    86    76    85   am
    87    85    86    1
    88    86    87    1
    89    87    88    2
    90    86    89    1
    91    89    90    1
    92    89    91    1
    93    87    92   am
    94    92    93    1
    95    93    94    1
    96    94    95    2
    97    94    96   am
    98    96    97    1
    99    97    98    1
   100    98    99    2
   101    97   100    1
   102   100   101    1
   103   101   102    1
   104   102   103    1
   105   103   104   ar
   106   104   105   ar
   107   104   106   ar
   108    98   107   am
   109   107   108    1
   110   108   109    1
   111   109   110    2
   112   108   111    1
   113   111   112    1
   114   112   113    1
   115   113   114    1
   116   114   115   ar
   117   115   116   ar
   118   115   117   ar
   119   109   118   am
   120   118   119    1
   121   119   120    1
   122   120   121    2
   123   119   122    1
   124   122   123    1
   125   123   124   am
   126   123   125    2
   127   120   126   am
   128   126   127    1
   129   127   128    1
   130   128   129    2
   131   127   130    1
   132   128   131   am
   133   131   132    1
   134   132   133    1
   135   133   134    2
   136   132   135    1
   137   135   136    1
   138   135   137    1
   139   136   138    1
   140    50   139    1
   141    22   140    1
   142    23   141    1
   143    21   142    1
   144    36   143    1
   145    36   144    1
   146    49   145    1
   147    33   146    1
   148    16   147    1
   149    79   148    1
   150    79   149    1
   151    80   150    1
   152    80   151    1
   153    78   152    1
   154    78   153    1
   155   135   154    1
   156   136   155    1
   157   136   156    1
   158   137   157    1
   159   137   158    1
   160   137   159    1
   161   138   160    1
   162   138   161    1
   163   138   162    1
   164    65   163    1
   165    52   164    1
   166    24   165    1
   167    64   166    1
   168   131   167    1
   169   132   168    1
   170   133   169    1
   171    70   170    1
   172    71   171    1
   173    71   172    1
   174    69   173    1
   175    63   174    1
   176    63   175    1
   177    63   176    1
   178    97   177    1
   179   100   178    1
   180   100   179    1
   181   101   180    1
   182   101   181    1
   183   102   182    1
   184   102   183    1
   185   105   184    1
   186   106   185    1
   187   107   186    1
   188   108   187    1
   189   111   188    1
   190   111   189    1
   191   112   190    1
   192   112   191    1
   193   113   192    1
   194   113   193    1
   195   116   194    1
   196   117   195    1
   197   118   196    1
   198   119   197    1
   199   122   198    1
   200   122   199    1
   201   124   200    1
   202   124   201    1
   203   126   202    1
   204   127   203    1
   205   130   204    1
   206   130   205    1
   207   130   206    1
   208    74   207    1
   209    75   208    1
   210    15   209    1
   211     2   210    1
   212     1   211    1
   213     1   212    1
   214    46   213    1
   215    68   214    1
   216    68   215    1
   217    27   216    1
   218    56   217    1
   219    56   218    1
   220    19   219    1
   221    19   220    1
   222    47   221    1
   223    28   222    1
   224    60   223    1
   225    83   224    1
   226    84   225    1
   227    85   226    1
   228    86   227    1
   229    89   228    1
   230    90   229    1
   231    90   230    1
   232    90   231    1
   233    91   232    1
   234    92   233    1
   235    93   234    1
   236    93   235    1
   237    96   236    1
   238    26   237    1
   239     9   238    1
   240    55   239    1
   241    14   240    1
   242    59   241    1
   243    13   242    1
   244    13   243    1
   245    13   244    1
   246    41   245    1
   247     8   246    1
   248    31   247    1
   249    31   248    1
   250    31   249    1
   251    44   250    1
   252    44   251    1
   253    58   252    1
   254    58   253    1
   255    58   254    1
   256    32   255    1
   257    48   256    1
   258    40   257    1
   259     5   258    1
   260     7   259    1
   261     6   260    1
   262     6   261    1
   263     6   262    1
   264    57   263    1
   265    57   264    1
   266    57   265    1
   267    12   266    1
   268    51   267    1
@<TRIPOS>SUBSTRUCTURE
     1 THR5        1 GROUP             0 B     THR     0  
     2 THR6        8 GROUP             0 B     THR     0  
     3 TYR7       15 GROUP             0 B     TYR     0  
     4 ALA8       27 GROUP             0 B     ALA     0  
     5 ASP9       32 GROUP             0 B     ASP     0  
     6 PHE10      40 GROUP             0 B     PHE     0  
     7 ILE11      51 GROUP             0 B     ILE     0  
     8 ALA12      59 GROUP             0 B     ALA     0  
     9 SER13      64 GROUP             0 B     SER     0  
    10 GLY14      70 GROUP             0 B     GLY     0  
    11 ARG15      74 GROUP             0 B     ARG     0  
    12 THR16      85 GROUP             0 B     THR     0  
    13 GLY17      92 GROUP             0 B     GLY     0  
    14 ARG18      96 GROUP             0 B     ARG     0  
    15 ARG19     107 GROUP             0 B     ARG     0  
    16 ASN20     118 GROUP             0 B     ASN     0  
    17 ALA21     126 GROUP             0 B     ALA     0  
    18 ILE22     131 GROUP             0 B     ILE     0  
@<TRIPOS>SET
CCDC_LIGAND STATIC ATOMS
267 1 2 3 4 5 6 7 8 9 \
10 11 12 13 14 15 16 17 18 19 \
20 21 22 23 24 25 26 27 28 29 \
30 31 32 33 34 35 36 37 38 39 \
40 41 42 43 44 45 46 47 48 49 \
50 51 52 53 54 55 56 57 58 59 \
60 61 62 63 64 65 66 67 68 69 \
70 71 72 73 74 75 76 77 78 79 \
80 81 82 83 84 85 86 87 88 89 \
90 91 92 93 94 95 96 97 98 99 \
100 101 102 103 104 105 106 107 108 109 \
110 111 112 113 114 115 116 117 118 119 \
120 121 122 123 124 125 126 127 128 129 \
130 131 132 133 134 135 136 137 138 139 \
140 141 142 143 144 145 146 147 148 149 \
150 151 152 153 154 155 156 157 158 159 \
160 161 162 163 164 165 166 167 168 169 \
170 171 172 173 174 175 176 177 178 179 \
180 181 182 183 184 185 186 187 188 189 \
190 191 192 193 194 195 196 197 198 199 \
200 201 202 203 204 205 206 207 208 209 \
210 211 212 213 214 215 216 217 218 219 \
220 221 222 223 224 225 226 227 228 229 \
230 231 232 233 234 235 236 237 238 239 \
240 241 242 243 244 245 246 247 248 249 \
250 251 252 253 254 255 256 257 258 259 \
260 261 262 263 264 265 266 267 
