@<TRIPOS>MOLECULE
A:IPH352
    13    13     1     0     1
SMALL
NO_CHARGES
****
Generated from the CSD

@<TRIPOS>ATOM
     1 C1      26.4240   8.8430  -4.6510   C.ar      1 IPH352   0.0000
     2 O1      26.9270   8.8690  -5.9450   O.3       1 IPH352   0.0000
     3 C2      26.2560   7.6090  -4.0150   C.ar      1 IPH352   0.0000
     4 C3      25.7700   7.5840  -2.7070   C.ar      1 IPH352   0.0000
     5 C4      25.4670   8.7820  -2.0550   C.ar      1 IPH352   0.0000
     6 C5      25.6380  10.0150  -2.6910   C.ar      1 IPH352   0.0000
     7 C6      26.1010  10.0440  -4.0080   C.ar      1 IPH352   0.0000
     8 H1      26.2100  10.9931  -4.5308   H         1 IPH352   0.0000
     9 H2      25.4128  10.9419  -2.1656   H         1 IPH352   0.0000
    10 H3      25.0910   8.7547  -1.0333   H         1 IPH352   0.0000
    11 H4      26.3224   8.3591  -6.5454   H         1 IPH352   0.0000
    12 H5      26.5005   6.6823  -4.5321   H         1 IPH352   0.0000
    13 H6      25.6273   6.6331  -2.1958   H         1 IPH352   0.0000
@<TRIPOS>BOND
     1     1     2    1
     2     1     3   ar
     3     3     4   ar
     4     4     5   ar
     5     5     6   ar
     6     1     7   ar
     7     6     7   ar
     8     7     8    1
     9     6     9    1
    10     5    10    1
    11     2    11    1
    12     3    12    1
    13     4    13    1
@<TRIPOS>SUBSTRUCTURE
     1 IPH352      1 GROUP             0 A     IPH     0  
@<TRIPOS>SET
CCDC_LIGAND STATIC ATOMS
13 1 2 3 4 5 6 7 8 9 \
10 11 12 13 
