@<TRIPOS>MOLECULE
A:IPH353
    13    13     1     0     1
SMALL
NO_CHARGES
****
Generated from the CSD

@<TRIPOS>ATOM
     1 C1      30.7950  26.4830  -3.2340   C.ar      1 IPH353   0.0000
     2 O1      30.4820  27.8320  -3.1000   O.3       1 IPH353   0.0000
     3 C2      29.7720  25.5470  -3.4210   C.ar      1 IPH353   0.0000
     4 C3      30.0810  24.1860  -3.5410   C.ar      1 IPH353   0.0000
     5 C4      31.4170  23.7880  -3.4660   C.ar      1 IPH353   0.0000
     6 C5      32.4450  24.7240  -3.2990   C.ar      1 IPH353   0.0000
     7 C6      32.1270  26.0730  -3.1370   C.ar      1 IPH353   0.0000
     8 H1      28.7354  25.8766  -3.4733   H         1 IPH353   0.0000
     9 H2      33.4851  24.4015  -3.2956   H         1 IPH353   0.0000
    10 H3      32.9116  26.8011  -2.9364   H         1 IPH353   0.0000
    11 H4      29.2920  23.4504  -3.6904   H         1 IPH353   0.0000
    12 H5      29.8919  27.9581  -2.3114   H         1 IPH353   0.0000
    13 H6      31.6643  22.7299  -3.5387   H         1 IPH353   0.0000
@<TRIPOS>BOND
     1     1     2    1
     2     1     3   ar
     3     3     4   ar
     4     4     5   ar
     5     5     6   ar
     6     1     7   ar
     7     6     7   ar
     8     3     8    1
     9     6     9    1
    10     7    10    1
    11     4    11    1
    12     2    12    1
    13     5    13    1
@<TRIPOS>SUBSTRUCTURE
     1 IPH353      1 GROUP             0 A     IPH     0  
@<TRIPOS>SET
CCDC_LIGAND STATIC ATOMS
13 1 2 3 4 5 6 7 8 9 \
10 11 12 13 
