@<TRIPOS>MOLECULE
B:THR5
   267   268    18     0     1
SMALL
NO_CHARGES
****
Generated from the CSD

@<TRIPOS>ATOM
     1 N       10.0720 -13.3900 -18.3300   N.3       1 THR5   0.0000
     2 CA      11.2880 -13.5910 -17.5610   C.3       1 THR5   0.0000
     3 C       11.3230 -12.5710 -16.4220   C.2       1 THR5   0.0000
     4 O       10.7740 -11.4890 -16.6110   O.2       1 THR5   0.0000
     5 CB      12.5930 -13.4330 -18.3600   C.3       1 THR5   0.0000
     6 CG2     12.5110 -14.1410 -19.7110   C.3       1 THR5   0.0000
     7 OG1     12.8360 -12.0450 -18.6230   O.3       1 THR5   0.0000
     8 N       11.9420 -12.9560 -15.3170   N.am      2 THR6   0.0000
     9 CA      12.0870 -12.0790 -14.1680   C.3       2 THR6   0.0000
    10 C       12.8830 -10.8330 -14.5520   C.2       2 THR6   0.0000
    11 O       12.4920  -9.7430 -14.1650   O.2       2 THR6   0.0000
    12 CB      12.8530 -12.7170 -12.9930   C.3       2 THR6   0.0000
    13 CG2     12.5720 -11.9380 -11.7130   C.3       2 THR6   0.0000
    14 OG1     12.4000 -14.0590 -12.8260   O.3       2 THR6   0.0000
    15 N       13.9700 -11.0500 -15.2990   N.am      3 TYR7   0.0000
    16 CA      14.7170  -9.8600 -15.7330   C.3       3 TYR7   0.0000
    17 C       13.7990  -8.9370 -16.5160   C.2       3 TYR7   0.0000
    18 O       13.7700  -7.7310 -16.2570   O.2       3 TYR7   0.0000
    19 CB      15.9580 -10.2430 -16.5340   C.3       3 TYR7   0.0000
    20 CG      16.6000  -9.1220 -17.3200   C.ar      3 TYR7   0.0000
    21 CD1     16.3460  -8.9950 -18.6810   C.ar      3 TYR7   0.0000
    22 CD2     17.4450  -8.1960 -16.7340   C.ar      3 TYR7   0.0000
    23 CE1     16.9120  -7.9840 -19.4330   C.ar      3 TYR7   0.0000
    24 CE2     18.0180  -7.1790 -17.4780   C.ar      3 TYR7   0.0000
    25 CZ      17.7480  -7.0810 -18.8200   C.ar      3 TYR7   0.0000
    26 OH      18.3110  -6.0780 -19.5770   O.3       3 TYR7   0.0000
    27 N       13.0120  -9.4450 -17.4660   N.am      4 ALA8   0.0000
    28 CA      12.1410  -8.5560 -18.2390   C.3       4 ALA8   0.0000
    29 C       11.1280  -7.8560 -17.3370   C.2       4 ALA8   0.0000
    30 O       10.7700  -6.6870 -17.5170   O.2       4 ALA8   0.0000
    31 CB      11.4070  -9.3200 -19.3350   C.3       4 ALA8   0.0000
    32 N       10.6340  -8.5740 -16.3290   N.am      5 ASP9   0.0000
    33 CA       9.6860  -7.9530 -15.3970   C.3       5 ASP9   0.0000
    34 C       10.3470  -6.8150 -14.6340   C.2       5 ASP9   0.0000
    35 O        9.8280  -5.7110 -14.4690   O.2       5 ASP9   0.0000
    36 CB       9.1560  -9.0100 -14.4320   C.3       5 ASP9   0.0000
    37 CG       8.2300 -10.0040 -15.1100   C.ar      5 ASP9   0.0000
    38 OD1      7.6220  -9.6550 -16.1400   O.co2     5 ASP9   0.0000
    39 OD2      8.1230 -11.1420 -14.6120   O.co2     5 ASP9   0.0000
    40 N       11.5590  -7.0770 -14.1510   N.am      6 PHE10   0.0000
    41 CA      12.2960  -6.0220 -13.4520   C.3       6 PHE10   0.0000
    42 C       12.4560  -4.7630 -14.2910   C.2       6 PHE10   0.0000
    43 O       12.0990  -3.6440 -13.9010   O.2       6 PHE10   0.0000
    44 CB      13.6770  -6.5550 -13.0420   C.3       6 PHE10   0.0000
    45 CG      14.5090  -5.5350 -12.2800   C.ar      6 PHE10   0.0000
    46 CD1     14.1060  -5.0940 -11.0330   C.ar      6 PHE10   0.0000
    47 CD2     15.6790  -5.0420 -12.8320   C.ar      6 PHE10   0.0000
    48 CE1     14.8600  -4.1610 -10.3330   C.ar      6 PHE10   0.0000
    49 CE2     16.4370  -4.1060 -12.1450   C.ar      6 PHE10   0.0000
    50 CZ      16.0230  -3.6740 -10.8950   C.ar      6 PHE10   0.0000
    51 N       13.0110  -4.9550 -15.4840   N.am      7 ILE11   0.0000
    52 CA      13.3420  -3.8430 -16.3820   C.3       7 ILE11   0.0000
    53 C       12.1470  -2.9800 -16.7160   C.2       7 ILE11   0.0000
    54 O       12.2140  -1.7750 -16.9510   O.2       7 ILE11   0.0000
    55 CB      13.9950  -4.4610 -17.6390   C.3       7 ILE11   0.0000
    56 CG1     15.3620  -5.0690 -17.3070   C.3       7 ILE11   0.0000
    57 CG2     14.0800  -3.4810 -18.7850   C.3       7 ILE11   0.0000
    58 CD1     16.3910  -4.0950 -16.7770   C.3       7 ILE11   0.0000
    59 N       10.9730  -3.6060 -16.7400   N.am      8 ALA12   0.0000
    60 CA       9.7390  -2.9140 -17.0460   C.3       8 ALA12   0.0000
    61 C        9.1070  -2.3740 -15.7670   C.2       8 ALA12   0.0000
    62 O        8.0810  -1.7060 -15.8720   O.2       8 ALA12   0.0000
    63 CB       8.7570  -3.8410 -17.7550   C.3       8 ALA12   0.0000
    64 N        9.7170  -2.6780 -14.6180   N.am      9 SER13   0.0000
    65 CA       9.1750  -2.1970 -13.3530   C.3       9 SER13   0.0000
    66 C        9.5810  -0.7490 -13.1000   C.2       9 SER13   0.0000
    67 O       10.4950  -0.2370 -13.7480   O.2       9 SER13   0.0000
    68 CB       9.6730  -3.0580 -12.1920   C.3       9 SER13   0.0000
    69 OG      10.9920  -2.6790 -11.8070   O.3       9 SER13   0.0000
    70 N        8.9230  -0.0870 -12.1550   N.am     10 GLY14   0.0000
    71 CA       9.2460   1.2760 -11.7850   C.3      10 GLY14   0.0000
    72 C       10.3480   1.3880 -10.7500   C.2      10 GLY14   0.0000
    73 O       10.5280   2.4650 -10.1690   O.2      10 GLY14   0.0000
    74 N       11.1090   0.3220 -10.4970   N.am     11 ARG15   0.0000
    75 CA      12.1790   0.3810  -9.5170   C.3      11 ARG15   0.0000
    76 C       13.5570   0.0080 -10.0540   C.2      11 ARG15   0.0000
    77 O       14.3080  -0.6870  -9.3540   O.2      11 ARG15   0.0000
    78 CB      11.8880  -0.5620  -8.3370   C.3      11 ARG15   0.0000
    79 CG      10.4550  -0.6170  -7.8540   C.3      11 ARG15   0.0000
    80 CD      10.2040   0.2330  -6.6370   C.3      11 ARG15   0.0000
    81 NE      11.1170   0.0380  -5.5150   N.2      11 ARG15   0.0000
    82 CZ      11.2390   0.9880  -4.5780   C.ar     11 ARG15   0.0000
    83 NH1     12.0560   0.8470  -3.5470   N.2      11 ARG15   0.0000
    84 NH2     10.5230   2.1020  -4.6960   N.2      11 ARG15   0.0000
    85 N       13.9640   0.4390 -11.2420   N.am     12 THR16   0.0000
    86 CA      15.2950   0.0760 -11.7260   C.3      12 THR16   0.0000
    87 C       16.2710   1.2470 -11.6040   C.2      12 THR16   0.0000
    88 O       17.4860   1.0660 -11.7620   O.2      12 THR16   0.0000
    89 CB      15.2300  -0.3900 -13.1940   C.3      12 THR16   0.0000
    90 CG2     14.1670  -1.4640 -13.3550   C.3      12 THR16   0.0000
    91 OG1     14.8060   0.7140 -13.9940   O.3      12 THR16   0.0000
    92 N       15.7200   2.4200 -11.3080   N.am     13 GLY17   0.0000
    93 CA      16.4750   3.6150 -10.9860   C.3      13 GLY17   0.0000
    94 C       16.9930   3.6440  -9.5570   C.2      13 GLY17   0.0000
    95 O       16.7770   2.7090  -8.7860   O.2      13 GLY17   0.0000
    96 N       17.6920   4.7030  -9.1590   N.am     14 ARG18   0.0000
    97 CA      18.2370   4.7510  -7.8000   C.3      14 ARG18   0.0000
    98 C       17.1080   4.7350  -6.7760   C.2      14 ARG18   0.0000
    99 O       16.1240   5.4520  -6.9230   O.2      14 ARG18   0.0000
   100 CB      19.1140   5.9780  -7.5830   C.3      14 ARG18   0.0000
   101 CG      20.3670   6.0210  -8.4380   C.3      14 ARG18   0.0000
   102 CD      21.2030   7.2610  -8.1330   C.3      14 ARG18   0.0000
   103 NE      22.5060   7.1320  -8.8010   N.2      14 ARG18   0.0000
   104 CZ      22.6530   7.2570 -10.1160   C.ar     14 ARG18   0.0000
   105 NH1     21.6000   7.5130 -10.8800   N.2      14 ARG18   0.0000
   106 NH2     23.8530   7.1260 -10.6570   N.2      14 ARG18   0.0000
   107 N       17.2460   3.9220  -5.7380   N.am     15 ARG19   0.0000
   108 CA      16.1630   3.7500  -4.7770   C.3      15 ARG19   0.0000
   109 C       16.4290   4.5850  -3.5280   C.2      15 ARG19   0.0000
   110 O       17.4590   4.3740  -2.8940   O.2      15 ARG19   0.0000
   111 CB      16.0090   2.2730  -4.4000   C.3      15 ARG19   0.0000
   112 CG      15.5940   1.3630  -5.5470   C.3      15 ARG19   0.0000
   113 CD      16.1130  -0.0590  -5.4070   C.3      15 ARG19   0.0000
   114 NE      17.5720  -0.1420  -5.5030   N.2      15 ARG19   0.0000
   115 CZ      18.2510  -1.2480  -5.7680   C.ar     15 ARG19   0.0000
   116 NH1     17.6170  -2.4000  -5.9710   N.2      15 ARG19   0.0000
   117 NH2     19.5800  -1.2220  -5.8310   N.2      15 ARG19   0.0000
   118 N       15.5030   5.4780  -3.2270   N.am     16 ASN20   0.0000
   119 CA      15.4350   6.3060  -2.0480   C.3      16 ASN20   0.0000
   120 C       15.2700   5.4440  -0.7980   C.2      16 ASN20   0.0000
   121 O       14.4960   4.4920  -0.8180   O.2      16 ASN20   0.0000
   122 CB      14.2470   7.2720  -2.0930   C.3      16 ASN20   0.0000
   123 CG      14.3170   8.2140  -3.2800   C.2      16 ASN20   0.0000
   124 ND2     13.1810   8.4280  -3.9350   N.am     16 ASN20   0.0000
   125 OD1     15.3920   8.7280  -3.5830   O.2      16 ASN20   0.0000
   126 N       15.9980   5.8140   0.2440   N.am     17 ALA21   0.0000
   127 CA      15.8120   5.1910   1.5460   C.3      17 ALA21   0.0000
   128 C       14.4480   5.5950   2.0810   C.2      17 ALA21   0.0000
   129 O       13.8230   6.5250   1.5640   O.2      17 ALA21   0.0000
   130 CB      16.9310   5.6070   2.4850   C.3      17 ALA21   0.0000
   131 N       13.9540   4.9190   3.1090   N.am     18 ILE22   0.0000
   132 CA      12.6890   5.3490   3.6980   C.3      18 ILE22   0.0000
   133 C       12.9790   6.2410   4.9070   C.2      18 ILE22   0.0000
   134 O       13.8720   5.8130   5.6540   O.2      18 ILE22   0.0000
   135 CB      11.8310   4.1650   4.1590   C.3      18 ILE22   0.0000
   136 CG1     12.4440   3.3850   5.3310   C.3      18 ILE22   0.0000
   137 CG2     11.5210   3.2320   2.9990   C.3      18 ILE22   0.0000
   138 CD1     12.0180   1.9290   5.3300   C.3      18 ILE22   0.0000
   139 H1      14.2190  -6.8413 -13.9421   H         6 PHE10   0.0000
   140 H2      13.5367  -7.4300 -12.4090   H         6 PHE10   0.0000
   141 H3      15.6841  -9.7107 -19.1664   H         3 TYR7   0.0000
   142 H4      17.6629  -8.2686 -15.6695   H         3 TYR7   0.0000
   143 H5      15.0454  -9.3277 -14.8415   H         3 TYR7   0.0000
   144 H6       8.3487   1.7435 -11.3822   H        10 GLY14   0.0000
   145 H7       9.5619   1.8086 -12.6808   H        10 GLY14   0.0000
   146 H8      15.6750 -11.0255 -17.2365   H         3 TYR7   0.0000
   147 H9      16.6996 -10.6313 -15.8375   H         3 TYR7   0.0000
   148 H10      8.1627  -0.5552 -11.6723   H        10 GLY14   0.0000
   149 H11     13.1976  -1.0616 -13.0648   H        12 THR16   0.0000
   150 H12     14.1301  -1.7852 -14.3949   H        12 THR16   0.0000
   151 H13     14.4116  -2.3148 -12.7207   H        12 THR16   0.0000
   152 H14     15.4558   1.4591 -13.9009   H        12 THR16   0.0000
   153 H15     14.7070   2.4829 -11.3074   H        13 GLY17   0.0000
   154 H16     10.9374  -0.5442 -10.9975   H        11 ARG15   0.0000
   155 H17     16.0056  -5.3910 -13.8105   H         6 PHE10   0.0000
   156 H18     16.2007  -0.7558 -13.5255   H        12 THR16   0.0000
   157 H19     16.9235   6.6897   2.6014   H        17 ALA21   0.0000
   158 H20     16.7838   5.1365   3.4560   H        17 ALA21   0.0000
   159 H21     17.8880   5.2930   2.0708   H        17 ALA21   0.0000
   160 H22     14.4480   4.1142   3.4812   H        18 ILE22   0.0000
   161 H23     12.1319   5.9237   2.9596   H        18 ILE22   0.0000
   162 H24     12.4468   7.1722   5.0955   H        18 ILE22   0.0000
   163 H25     21.3504   7.3472  -7.0575   H        14 ARG18   0.0000
   164 H26     20.6895   8.1479  -8.5013   H        14 ARG18   0.0000
   165 H27     21.7127   7.6084 -11.8842   H        14 ARG18   0.0000
   166 H28     23.9702   7.2206 -11.6608   H        14 ARG18   0.0000
   167 H29     18.1152   3.4136  -5.6108   H        15 ARG19   0.0000
   168 H30     15.2350   4.0916  -5.2332   H        15 ARG19   0.0000
   169 H31     15.2540   2.1995  -3.6186   H        15 ARG19   0.0000
   170 H32     16.9647   1.9197  -4.0157   H        15 ARG19   0.0000
   171 H33     15.9788   1.7811  -6.4760   H        15 ARG19   0.0000
   172 H34     14.5062   1.3312  -5.5863   H        15 ARG19   0.0000
   173 H35     15.6770  -0.6681  -6.1975   H        15 ARG19   0.0000
   174 H36     15.8053  -0.4480  -4.4375   H        15 ARG19   0.0000
   175 H37     18.1466  -3.2419  -6.1734   H        15 ARG19   0.0000
   176 H38     20.0952  -2.0726  -6.0344   H        15 ARG19   0.0000
   177 H39     14.7543   5.5946  -3.9023   H        16 ASN20   0.0000
   178 H40     16.3564   6.8803  -1.9640   H        16 ASN20   0.0000
   179 H41     14.2401   7.8618  -1.1776   H        16 ASN20   0.0000
   180 H42     13.3270   6.6931  -2.1588   H        16 ASN20   0.0000
   181 H43     13.1672   9.0491  -4.7377   H        16 ASN20   0.0000
   182 H44     12.3269   7.9704  -3.6327   H        16 ASN20   0.0000
   183 H45     16.6959   6.5426   0.1332   H        17 ALA21   0.0000
   184 H46     15.8369   4.1090   1.4257   H        17 ALA21   0.0000
   185 H47     10.8823   4.5720   4.5057   H        18 ILE22   0.0000
   186 H48     12.1235   3.8444   6.2649   H        18 ILE22   0.0000
   187 H49     13.5293   3.4337   5.2563   H        18 ILE22   0.0000
   188 H50     12.4514   2.8479   2.5834   H        18 ILE22   0.0000
   189 H51     10.9119   2.4019   3.3536   H        18 ILE22   0.0000
   190 H52     10.9777   3.7780   2.2292   H        18 ILE22   0.0000
   191 H53     12.3396   1.4573   4.4026   H        18 ILE22   0.0000
   192 H54     12.4748   1.4165   6.1754   H        18 ILE22   0.0000
   193 H55     10.9338   1.8680   5.4113   H        18 ILE22   0.0000
   194 H56     14.2645 -11.9874 -15.5535   H         3 TYR7   0.0000
   195 H57     17.5921  -5.5222 -19.9774   H         3 TYR7   0.0000
   196 H58     15.8302   4.4798 -11.1356   H        13 GLY17   0.0000
   197 H59     17.3268   3.6760 -11.6618   H        13 GLY17   0.0000
   198 H60     17.8478   5.4775  -9.7963   H        14 ARG18   0.0000
   199 H61      9.9637  -2.0759 -17.7040   H         8 ALA12   0.0000
   200 H62     13.1877  -5.4823 -10.5951   H         6 PHE10   0.0000
   201 H63     10.9113  -9.5427 -16.2069   H         5 ASP9   0.0000
   202 H64      9.6776  -4.1027 -12.4992   H         9 SER13   0.0000
   203 H65      9.0036  -2.9325 -11.3423   H         9 SER13   0.0000
   204 H66     13.3524  -5.2779 -17.9641   H         7 ILE11   0.0000
   205 H67     17.3522  -3.7127 -12.5851   H         6 PHE10   0.0000
   206 H68     16.6987  -7.9032 -20.4979   H         3 TYR7   0.0000
   207 H69     15.7603  -5.5179 -18.2157   H         7 ILE11   0.0000
   208 H70     15.2125  -5.8427 -16.5553   H         7 ILE11   0.0000
   209 H71     11.9685  -7.9986 -14.2659   H         6 PHE10   0.0000
   210 H72     10.9418  -4.6001 -16.5373   H         8 ALA12   0.0000
   211 H73     14.6772  -2.6215 -18.4841   H         7 ILE11   0.0000
   212 H74     14.5459  -3.9646 -19.6423   H         7 ILE11   0.0000
   213 H75     13.0781  -3.1503 -19.0549   H         7 ILE11   0.0000
   214 H76     10.7955 -10.1011 -18.8858   H         4 ALA8   0.0000
   215 H77     10.7692  -8.6342 -19.8908   H         4 ALA8   0.0000
   216 H78     12.1319  -9.7704 -20.0114   H         4 ALA8   0.0000
   217 H79     16.6205  -2.9438 -10.3512   H         6 PHE10   0.0000
   218 H80     12.5715 -14.5723 -13.6586   H         2 THR6   0.0000
   219 H81     10.2118  -1.6501  -7.6102   H        11 ARG15   0.0000
   220 H82      9.8060  -0.2711  -8.6571   H        11 ARG15   0.0000
   221 H83     11.7472  -5.7629 -12.5478   H         6 PHE10   0.0000
   222 H84     18.8489   3.8633  -7.6466   H        14 ARG18   0.0000
   223 H85     19.4162   5.9982  -6.5370   H        14 ARG18   0.0000
   224 H86     18.5203   6.8631  -7.8065   H        14 ARG18   0.0000
   225 H87     20.0796   6.0362  -9.4883   H        14 ARG18   0.0000
   226 H88     20.9639   5.1325  -8.2378   H        14 ARG18   0.0000
   227 H89      9.1955   0.0203  -6.2855   H        11 ARG15   0.0000
   228 H90     10.2698   1.2765  -6.9413   H        11 ARG15   0.0000
   229 H91     11.2643 -14.5909 -17.1302   H         1 THR5   0.0000
   230 H92     10.0637 -12.4489 -18.7100   H         1 THR5   0.0000
   231 H93     10.0373 -14.0620 -19.0899   H         1 THR5   0.0000
   232 H94     15.6687  -0.7479 -11.1198   H        12 THR16   0.0000
   233 H95     11.5039 -11.9598 -11.5019   H         2 THR6   0.0000
   234 H96     13.1149 -12.3918 -10.8853   H         2 THR6   0.0000
   235 H97     12.8965 -10.9059 -11.8375   H         2 THR6   0.0000
   236 H98      8.0883  -2.2551 -13.3921   H         9 SER13   0.0000
   237 H99     12.2298   1.3985  -9.1324   H        11 ARG15   0.0000
   238 H100    13.3544   1.0174 -11.8112   H        12 THR16   0.0000
   239 H101    13.9217 -12.7111 -13.2020   H         2 THR6   0.0000
   240 H102    10.9932  -1.7277 -11.5223   H         9 SER13   0.0000
   241 H103     8.6085  -8.5110 -13.6337   H         5 ASP9   0.0000
   242 H104    10.0007  -9.5519 -14.0092   H         5 ASP9   0.0000
   243 H105    14.5372  -3.8173  -9.3514   H         6 PHE10   0.0000
   244 H106    14.0839  -3.2176 -15.8876   H         7 ILE11   0.0000
   245 H107    10.6022   2.8327  -3.9960   H        11 ARG15   0.0000
   246 H108    12.1281   1.5834  -2.8522   H        11 ARG15   0.0000
   247 H109    11.6958 -13.7160 -20.2947   H         1 THR5   0.0000
   248 H110    13.4492 -14.0086 -20.2477   H         1 THR5   0.0000
   249 H111    12.3295 -15.2032 -19.5538   H         1 THR5   0.0000
   250 H112    13.0167 -10.4427 -17.6524   H         4 ALA8   0.0000
   251 H113    12.7615  -7.7952 -18.7102   H         4 ALA8   0.0000
   252 H114    10.5590  -3.2447 -14.6258   H         9 SER13   0.0000
   253 H115     8.5318  -4.6910 -17.1126   H         8 ALA12   0.0000
   254 H116     7.8387  -3.2981 -17.9739   H         8 ALA12   0.0000
   255 H117     9.1994  -4.1958 -18.6847   H         8 ALA12   0.0000
   256 H118    13.2126  -5.9036 -15.7837   H         7 ILE11   0.0000
   257 H119    11.0985 -11.7770 -13.8251   H         2 THR6   0.0000
   258 H120     8.8497  -7.5509 -15.9670   H         5 ASP9   0.0000
   259 H121    12.3276 -13.8938 -15.2711   H         2 THR6   0.0000
   260 H122    12.9158 -11.5543 -17.7634   H         1 THR5   0.0000
   261 H123    12.5075  -0.2448  -7.4994   H        11 ARG15   0.0000
   262 H124    12.1740  -1.5683  -8.6394   H        11 ARG15   0.0000
   263 H125    13.4219 -13.8436 -17.7853   H         1 THR5   0.0000
   264 H126    18.6808  -6.4591 -17.0001   H         3 TYR7   0.0000
   265 H127    16.0226  -3.6423 -15.8576   H         7 ILE11   0.0000
   266 H128    17.3209  -4.6242 -16.5738   H         7 ILE11   0.0000
   267 H129    16.5703  -3.3174 -17.5180   H         7 ILE11   0.0000
@<TRIPOS>BOND
     1     1     2    1
     2     2     3    1
     3     3     4    2
     4     2     5    1
     5     5     6    1
     6     5     7    1
     7     3     8   am
     8     8     9    1
     9     9    10    1
    10    10    11    2
    11     9    12    1
    12    12    13    1
    13    12    14    1
    14    10    15   am
    15    15    16    1
    16    16    17    1
    17    17    18    2
    18    16    19    1
    19    19    20    1
    20    20    21   ar
    21    20    22   ar
    22    21    23   ar
    23    22    24   ar
    24    23    25   ar
    25    24    25   ar
    26    25    26    1
    27    17    27   am
    28    27    28    1
    29    28    29    1
    30    29    30    2
    31    28    31    1
    32    29    32   am
    33    32    33    1
    34    33    34    1
    35    34    35    2
    36    33    36    1
    37    36    37    1
    38    37    38   ar
    39    37    39   ar
    40    34    40   am
    41    40    41    1
    42    41    42    1
    43    42    43    2
    44    41    44    1
    45    44    45    1
    46    45    46   ar
    47    45    47   ar
    48    46    48   ar
    49    47    49   ar
    50    48    50   ar
    51    49    50   ar
    52    42    51   am
    53    51    52    1
    54    52    53    1
    55    53    54    2
    56    52    55    1
    57    55    56    1
    58    55    57    1
    59    56    58    1
    60    53    59   am
    61    59    60    1
    62    60    61    1
    63    61    62    2
    64    60    63    1
    65    61    64   am
    66    64    65    1
    67    65    66    1
    68    66    67    2
    69    65    68    1
    70    68    69    1
    71    66    70   am
    72    70    71    1
    73    71    72    1
    74    72    73    2
    75    72    74   am
    76    74    75    1
    77    75    76    1
    78    76    77    2
    79    75    78    1
    80    78    79    1
    81    79    80    1
    82    80    81    1
    83    81    82   ar
    84    82    83   ar
    85    82    84   ar
    86    76    85   am
    87    85    86    1
    88    86    87    1
    89    87    88    2
    90    86    89    1
    91    89    90    1
    92    89    91    1
    93    87    92   am
    94    92    93    1
    95    93    94    1
    96    94    95    2
    97    94    96   am
    98    96    97    1
    99    97    98    1
   100    98    99    2
   101    97   100    1
   102   100   101    1
   103   101   102    1
   104   102   103    1
   105   103   104   ar
   106   104   105   ar
   107   104   106   ar
   108    98   107   am
   109   107   108    1
   110   108   109    1
   111   109   110    2
   112   108   111    1
   113   111   112    1
   114   112   113    1
   115   113   114    1
   116   114   115   ar
   117   115   116   ar
   118   115   117   ar
   119   109   118   am
   120   118   119    1
   121   119   120    1
   122   120   121    2
   123   119   122    1
   124   122   123    1
   125   123   124   am
   126   123   125    2
   127   120   126   am
   128   126   127    1
   129   127   128    1
   130   128   129    2
   131   127   130    1
   132   128   131   am
   133   131   132    1
   134   132   133    1
   135   133   134    2
   136   132   135    1
   137   135   136    1
   138   135   137    1
   139   136   138    1
   140    44   139    1
   141    44   140    1
   142    21   141    1
   143    22   142    1
   144    16   143    1
   145    71   144    1
   146    71   145    1
   147    19   146    1
   148    19   147    1
   149    70   148    1
   150    90   149    1
   151    90   150    1
   152    90   151    1
   153    91   152    1
   154    92   153    1
   155    74   154    1
   156    47   155    1
   157    89   156    1
   158   130   157    1
   159   130   158    1
   160   130   159    1
   161   131   160    1
   162   132   161    1
   163   133   162    1
   164   102   163    1
   165   102   164    1
   166   105   165    1
   167   106   166    1
   168   107   167    1
   169   108   168    1
   170   111   169    1
   171   111   170    1
   172   112   171    1
   173   112   172    1
   174   113   173    1
   175   113   174    1
   176   116   175    1
   177   117   176    1
   178   118   177    1
   179   119   178    1
   180   122   179    1
   181   122   180    1
   182   124   181    1
   183   124   182    1
   184   126   183    1
   185   127   184    1
   186   135   185    1
   187   136   186    1
   188   136   187    1
   189   137   188    1
   190   137   189    1
   191   137   190    1
   192   138   191    1
   193   138   192    1
   194   138   193    1
   195    15   194    1
   196    26   195    1
   197    93   196    1
   198    93   197    1
   199    96   198    1
   200    60   199    1
   201    46   200    1
   202    32   201    1
   203    68   202    1
   204    68   203    1
   205    55   204    1
   206    49   205    1
   207    23   206    1
   208    56   207    1
   209    56   208    1
   210    40   209    1
   211    59   210    1
   212    57   211    1
   213    57   212    1
   214    57   213    1
   215    31   214    1
   216    31   215    1
   217    31   216    1
   218    50   217    1
   219    14   218    1
   220    79   219    1
   221    79   220    1
   222    41   221    1
   223    97   222    1
   224   100   223    1
   225   100   224    1
   226   101   225    1
   227   101   226    1
   228    80   227    1
   229    80   228    1
   230     2   229    1
   231     1   230    1
   232     1   231    1
   233    86   232    1
   234    13   233    1
   235    13   234    1
   236    13   235    1
   237    65   236    1
   238    75   237    1
   239    85   238    1
   240    12   239    1
   241    69   240    1
   242    36   241    1
   243    36   242    1
   244    48   243    1
   245    52   244    1
   246    84   245    1
   247    83   246    1
   248     6   247    1
   249     6   248    1
   250     6   249    1
   251    27   250    1
   252    28   251    1
   253    64   252    1
   254    63   253    1
   255    63   254    1
   256    63   255    1
   257    51   256    1
   258     9   257    1
   259    33   258    1
   260     8   259    1
   261     7   260    1
   262    78   261    1
   263    78   262    1
   264     5   263    1
   265    24   264    1
   266    58   265    1
   267    58   266    1
   268    58   267    1
@<TRIPOS>SUBSTRUCTURE
     1 THR5        1 GROUP             0 B     THR     0  
     2 THR6        8 GROUP             0 B     THR     0  
     3 TYR7       15 GROUP             0 B     TYR     0  
     4 ALA8       27 GROUP             0 B     ALA     0  
     5 ASP9       32 GROUP             0 B     ASP     0  
     6 PHE10      40 GROUP             0 B     PHE     0  
     7 ILE11      51 GROUP             0 B     ILE     0  
     8 ALA12      59 GROUP             0 B     ALA     0  
     9 SER13      64 GROUP             0 B     SER     0  
    10 GLY14      70 GROUP             0 B     GLY     0  
    11 ARG15      74 GROUP             0 B     ARG     0  
    12 THR16      85 GROUP             0 B     THR     0  
    13 GLY17      92 GROUP             0 B     GLY     0  
    14 ARG18      96 GROUP             0 B     ARG     0  
    15 ARG19     107 GROUP             0 B     ARG     0  
    16 ASN20     118 GROUP             0 B     ASN     0  
    17 ALA21     126 GROUP             0 B     ALA     0  
    18 ILE22     131 GROUP             0 B     ILE     0  
@<TRIPOS>SET
CCDC_LIGAND STATIC ATOMS
267 1 2 3 4 5 6 7 8 9 \
10 11 12 13 14 15 16 17 18 19 \
20 21 22 23 24 25 26 27 28 29 \
30 31 32 33 34 35 36 37 38 39 \
40 41 42 43 44 45 46 47 48 49 \
50 51 52 53 54 55 56 57 58 59 \
60 61 62 63 64 65 66 67 68 69 \
70 71 72 73 74 75 76 77 78 79 \
80 81 82 83 84 85 86 87 88 89 \
90 91 92 93 94 95 96 97 98 99 \
100 101 102 103 104 105 106 107 108 109 \
110 111 112 113 114 115 116 117 118 119 \
120 121 122 123 124 125 126 127 128 129 \
130 131 132 133 134 135 136 137 138 139 \
140 141 142 143 144 145 146 147 148 149 \
150 151 152 153 154 155 156 157 158 159 \
160 161 162 163 164 165 166 167 168 169 \
170 171 172 173 174 175 176 177 178 179 \
180 181 182 183 184 185 186 187 188 189 \
190 191 192 193 194 195 196 197 198 199 \
200 201 202 203 204 205 206 207 208 209 \
210 211 212 213 214 215 216 217 218 219 \
220 221 222 223 224 225 226 227 228 229 \
230 231 232 233 234 235 236 237 238 239 \
240 241 242 243 244 245 246 247 248 249 \
250 251 252 253 254 255 256 257 258 259 \
260 261 262 263 264 265 266 267 
