@<TRIPOS>MOLECULE
A:YTP2001
    21    21     1     0     1
SMALL
NO_CHARGES
****
Generated from the CSD

@<TRIPOS>ATOM
     1 C1      32.4220  10.1740  -2.7970   C.ar      1 YTP2001   0.0000
     2 C2      32.2020  10.0400  -1.4260   C.ar      1 YTP2001   0.0000
     3 C3      30.8940   9.9940  -0.9240   C.ar      1 YTP2001   0.0000
     4 C4      29.8120  10.0850  -1.8130   C.ar      1 YTP2001   0.0000
     5 C5      30.0360  10.2240  -3.1890   C.ar      1 YTP2001   0.0000
     6 C6      31.3410  10.2620  -3.6820   C.ar      1 YTP2001   0.0000
     7 C7      28.3890   9.9840  -1.3040   C.2       1 YTP2001   0.0000
     8 O8      28.1670   9.9160  -0.1100   O.2       1 YTP2001   0.0000
     9 C9      27.2370   9.9640  -2.2730   C.3       1 YTP2001   0.0000
    10 C10     31.5910  10.4000  -5.1870   C.3       1 YTP2001   0.0000
    11 O11     33.7180  10.2260  -3.3140   O.3       1 YTP2001   0.0000
    12 H1      30.7192   9.8886   0.1457   H         1 YTP2001   0.0000
    13 H2      29.1925  10.3023  -3.8733   H         1 YTP2001   0.0000
    14 H3      33.0483   9.9710  -0.7442   H         1 YTP2001   0.0000
    15 H4      27.3373   9.1079  -2.9385   H         1 YTP2001   0.0000
    16 H5      26.3006   9.8879  -1.7222   H         1 YTP2001   0.0000
    17 H6      27.2398  10.8818  -2.8592   H         1 YTP2001   0.0000
    18 H7      34.2004   9.3894  -3.0828   H         1 YTP2001   0.0000
    19 H8      32.1518   9.5368  -5.5425   H         1 YTP2001   0.0000
    20 H9      30.6373  10.4538  -5.7100   H         1 YTP2001   0.0000
    21 H10     32.1616  11.3075  -5.3785   H         1 YTP2001   0.0000
@<TRIPOS>BOND
     1     1     2   ar
     2     2     3   ar
     3     3     4   ar
     4     4     5   ar
     5     1     6   ar
     6     5     6   ar
     7     4     7    1
     8     7     8    2
     9     7     9    1
    10     6    10    1
    11     1    11    1
    12     3    12    1
    13     5    13    1
    14     2    14    1
    15     9    15    1
    16     9    16    1
    17     9    17    1
    18    11    18    1
    19    10    19    1
    20    10    20    1
    21    10    21    1
@<TRIPOS>SUBSTRUCTURE
     1 YTP2001     1 GROUP             0 A     YTP     0  
@<TRIPOS>SET
CCDC_LIGAND STATIC ATOMS
21 1 2 3 4 5 6 7 8 9 \
10 11 12 13 14 15 16 17 18 19 \
20 21 
