#       Name:                CT1002167954
#       Creating user name   hitesit
#       Creation time:       Sun Apr 16 22:55:52 2023


#       File generated by GOLD software.
#

@<TRIPOS>MOLECULE
CT1002167954|ligand_prepared|mol2|1|dock7
    29    30     1
SMALL
NO_CHARGES


@<TRIPOS>ATOM
      1 C1         138.2031 144.6989 166.3387 C.3            1 RES1               0.0000
      2 C2         137.6702 143.5132 165.5087 C.ar           1 RES1               0.0000
      3 C3         139.4390 144.1869 167.0728 C.2            1 RES1               0.0000
      4 C4         138.4892 145.8202 165.3460 C.2            1 RES1               0.0000
      5 C5         137.1963 145.2320 167.3846 C.3            1 RES1               0.0000
      6 C6         136.3563 143.0789 165.6559 C.ar           1 RES1               0.0000
      7 C7         138.4784 142.8466 164.5915 C.ar           1 RES1               0.0000
      8 N8         140.6577 144.6047 166.6257 N.am           1 RES1               0.0000
      9 O9         139.3473 143.3974 168.0047 O.2            1 RES1               0.0000
     10 N10        139.7918 146.2100 165.1756 N.am           1 RES1               0.0000
     11 O11        137.6002 146.3583 164.6977 O.2            1 RES1               0.0000
     12 C12        137.7385 146.3721 168.2320 C.3            1 RES1               0.0000
     13 C13        135.8670 142.0187 164.9110 C.ar           1 RES1               0.0000
     14 C14        137.9872 141.7864 163.8479 C.ar           1 RES1               0.0000
     15 C15        140.8922 145.6322 165.7477 C.2            1 RES1               0.0000
     16 C16        136.6818 141.3720 164.0063 C.ar           1 RES1               0.0000
     17 O17        142.0364 146.0038 165.5029 O.2            1 RES1               0.0000
     18 H18        136.2951 145.5772 166.8631 H              1 RES1               0.0000
     19 H19        136.9053 144.4073 168.0469 H              1 RES1               0.0000
     20 H20        135.7009 143.5740 166.3647 H              1 RES1               0.0000
     21 H21        139.5089 143.1547 164.4510 H              1 RES1               0.0000
     22 H22        141.4699 144.1071 166.9765 H              1 RES1               0.0000
     23 H23        139.9563 147.0047 164.5658 H              1 RES1               0.0000
     24 H24        136.9925 146.7084 168.9490 H              1 RES1               0.0000
     25 H25        138.6211 146.0563 168.7844 H              1 RES1               0.0000
     26 H26        138.0146 147.2193 167.6076 H              1 RES1               0.0000
     27 H27        134.8394 141.6955 165.0405 H              1 RES1               0.0000
     28 H28        138.6322 141.2800 163.1374 H              1 RES1               0.0000
     29 H29        136.2982 140.5417 163.4227 H              1 RES1               0.0000
@<TRIPOS>BOND
    1    1    2 1     
    2    1    3 1     
    3    1    4 1     
    4    1    5 1     
    5    2    6 ar    
    6    2    7 ar    
    7    3    8 1     
    8    3    9 2     
    9    4   10 1     
   10    4   11 2     
   11    5   12 1     
   12    5   18 1     
   13    5   19 1     
   14    6   13 ar    
   15    6   20 1     
   16    7   14 ar    
   17    7   21 1     
   18    8   15 1     
   19    8   22 1     
   20   10   15 1     
   21   10   23 1     
   22   12   24 1     
   23   12   25 1     
   24   12   26 1     
   25   13   16 ar    
   26   13   27 1     
   27   14   16 ar    
   28   14   28 1     
   29   15   17 2     
   30   16   29 1     
@<TRIPOS>SUBSTRUCTURE
      1 RES1           1
@<TRIPOS>SET
DONOR_HYDROGENS      STATIC     ATOMS    <user>   **** ""
2 22 23
ATOM$RED        STATIC     ATOMS    COLORGROUP SYSTEM
2 22 23
@<TRIPOS>COMMENT
> <Gold.Version>
2022.3.0

> <Gold.Id.Protein>
unknown|7rmi_cavity_clean|pdb

> <Gold.Protein.RotatedTorsions>
[  294  288  286  283 ] final  -76.55 input   60.03 | X-H torsion
[  301  289  290  291 ] final  -55.94 input  115.34 | X-H torsion
[ 4333 4325 4326 4327 ] final  -89.24 input   58.17 | X-H torsion
[  162  159  158  157 ] final   20.55 input   59.97 | X-H torsion
[  352  334  335  336 ] final  -12.68 input   81.54 | X-H torsion
[ 1783 1767 1768 1769 ] final  132.70 input  110.17 | X-H torsion
[  113  103  104  105 ] final   25.85 input  112.99 | X-H torsion
[   82   64   65   66 ] final   53.47 input  112.25 | X-H torsion
[ 1807 1802 1800 1797 ] final   55.72 input   60.00 | X-H torsion
[  208  204  203  201 ] final -142.42 input   60.02 | X-H torsion
[ 1839 1834 1833 1830 ] final  -89.03 input   59.99 | X-H torsion
[ 3268 3259 3258 3256 ] final   98.00 input   59.98 | X-H torsion
[ 4684 4679 4678 4675 ] final  -83.43 input   59.98 | X-H torsion
[ 2741 2733 2732 2730 ] final -107.30 input   60.00 | X-H torsion
[ 3932 3927 3928 3929 ] final  -70.61 input   88.25 | X-H torsion
[ 2774 2765 2764 2762 ] final   10.84 input   60.03 | X-H torsion
[ 3980 3972 3973 3974 ] final  -88.44 input   60.58 | X-H torsion
[ 4755 4748 4746 4743 ] final   23.32 input   60.02 | X-H torsion
[ 1184 1170 1171 1172 ] final   63.74 input   67.97 | X-H torsion
[  880  862  863  864 ] final  105.99 input   59.67 | X-H torsion
[ 4018 4013 4012 4010 ] final -122.25 input   60.01 | X-H torsion
[ 8045 8035 8034 8033 ] final   58.37 input   59.99 | X-H torsion
[ 1224 1222 1220 1217 ] final  -33.09 input   59.96 | X-H torsion
[  249  225  226  227 ] final -146.82 input   51.53 | X-H torsion
[ 14304  292  291  290 ] final -105.57 input    0.00 | X-H torsion
[ 14309 4328 4327 4326 ] final -160.45 input   -0.00 | X-H torsion
[ 14335  337  336  335 ] final -145.00 input   -0.00 | X-H torsion
[ 14354 1770 1769 1768 ] final -176.20 input   -0.00 | X-H torsion
[ 14365  106  105  104 ] final -147.97 input    0.00 | X-H torsion
[ 14370   67   66   65 ] final  164.04 input   -0.00 | X-H torsion
[ 14441 3930 3929 3928 ] final   37.46 input   -0.00 | X-H torsion
[ 14473 3975 3974 3973 ] final -165.15 input   -0.00 | X-H torsion
[ 14486 1173 1172 1171 ] final   13.49 input   -0.00 | X-H torsion
[ 14497  865  864  863 ] final  -92.12 input   -0.00 | X-H torsion
[ 14524  228  227  226 ] final -153.94 input    0.00 | X-H torsion

> <Gold.Protein.ActiveResidues>
 GLU27   LEU30   GLN31   ASP33   LYS34   GLN35   VAL36   TYR37   ARG38   THR40  
 HIS41   ARG42   GLU209  HIS220  PHE222  GLN236  ASN239  ASP240  VAL241  THR242 
 ARG280  TRP281  LEU282  ARG283  THR284  ILE285  SER286  VAL287  ILE288  GLY355 
 ARG356  HIS357  TYR358  CYS359  TYR360  ASP381  ILE382  ILE383  GLN385  MET386 
 ASN387  LEU388  ARG389  GLU390  TYR391  VAL394  ALA56   LYS57   ILE58   TYR59  
 ALA60   MET61   LEU79   ILE80   ILE81   TRP82   ILE93   SER98   TRP99   VAL100 
 MET101  THR102  CYS103  GLY310  HIS311  ASP312  ASN313  TRP332  ASP333  SER334 
 PHE335  LYS337 

> <Gold.Protein.RotatedAtoms>
  114.3782  151.8075  180.0290 H   0  0  0  0  0  0  0  0  0  0  0  0  # atno 82   bound_to 64  
  109.0404  135.2541   97.6408 H   0  0  0  0  0  0  0  0  0  0  0  0  # atno 113  bound_to 103 
  145.2197  138.5182  141.3617 H   0  0  0  0  0  0  0  0  0  0  0  0  # atno 162  bound_to 159 
  143.9602  139.0577  142.2948 H   0  0  0  0  0  0  0  0  0  0  0  0  # atno 163  bound_to 159 
  144.2520  139.7484  140.8164 H   0  0  0  0  0  0  0  0  0  0  0  0  # atno 164  bound_to 159 
  143.8692  133.6869  149.5867 H   0  0  0  0  0  0  0  0  0  0  0  0  # atno 208  bound_to 204 
  129.6667  113.8474  180.3744 H   0  0  0  0  0  0  0  0  0  0  0  0  # atno 249  bound_to 225 
  153.4435  128.8990  146.6700 H   0  0  0  0  0  0  0  0  0  0  0  0  # atno 294  bound_to 288 
  115.1447  136.8773  110.0566 H   0  0  0  0  0  0  0  0  0  0  0  0  # atno 301  bound_to 289 
  115.9398  159.0710  160.0478 H   0  0  0  0  0  0  0  0  0  0  0  0  # atno 352  bound_to 334 
  130.8551  143.5068  184.1733 H   0  0  0  0  0  0  0  0  0  0  0  0  # atno 880  bound_to 862 
  130.3526  157.6486  179.7594 H   0  0  0  0  0  0  0  0  0  0  0  0  # atno 1184 bound_to 1170
  143.0793  126.5686  148.5613 H   0  0  0  0  0  0  0  0  0  0  0  0  # atno 1224 bound_to 1222
  125.1259  160.3666  169.5709 H   0  0  0  0  0  0  0  0  0  0  0  0  # atno 1783 bound_to 1767
  131.3826  127.6173  152.8450 H   0  0  0  0  0  0  0  0  0  0  0  0  # atno 1807 bound_to 1802
  137.9003  120.6411  149.4907 H   0  0  0  0  0  0  0  0  0  0  0  0  # atno 1839 bound_to 1834
  130.2223  116.3475  143.5086 H   0  0  0  0  0  0  0  0  0  0  0  0  # atno 2741 bound_to 2733
  136.4238  115.1772  145.1375 H   0  0  0  0  0  0  0  0  0  0  0  0  # atno 2774 bound_to 2765
  139.0567  130.3667  135.7931 H   0  0  0  0  0  0  0  0  0  0  0  0  # atno 3268 bound_to 3259
  114.8370  116.1439  168.4142 H   0  0  0  0  0  0  0  0  0  0  0  0  # atno 3932 bound_to 3927
  119.4639  114.2372  166.9986 H   0  0  0  0  0  0  0  0  0  0  0  0  # atno 3980 bound_to 3972
  137.2701  137.6114  164.5534 H   0  0  0  0  0  0  0  0  0  0  0  0  # atno 4018 bound_to 4013
  115.5367  120.2556  181.3313 H   0  0  0  0  0  0  0  0  0  0  0  0  # atno 4333 bound_to 4325
  148.0444  134.5124  156.4561 H   0  0  0  0  0  0  0  0  0  0  0  0  # atno 4684 bound_to 4679
  143.4161  144.9385  166.7554 H   0  0  0  0  0  0  0  0  0  0  0  0  # atno 4755 bound_to 4748
  132.4327  146.8691  149.3070 H   0  0  0  0  0  0  0  0  0  0  0  0  # atno 8045 bound_to 8035
  132.5620  147.3351  147.7217 H   0  0  0  0  0  0  0  0  0  0  0  0  # atno 8046 bound_to 8035
  133.5354  148.0278  148.8713 H   0  0  0  0  0  0  0  0  0  0  0  0  # atno 8047 bound_to 8035
  153.3543  130.4110  147.2646 LP  0  0  0  0  0  0  0  0  0  0  0  0  # atno 14301 bound_to 288 
  152.6983  130.0624  145.8104 LP  0  0  0  0  0  0  0  0  0  0  0  0  # atno 14302 bound_to 288 
  113.6773  137.1315  109.1437 LP  0  0  0  0  0  0  0  0  0  0  0  0  # atno 14303 bound_to 289 
  114.8782  137.3307  113.8430 LP  0  0  0  0  0  0  0  0  0  0  0  0  # atno 14304 bound_to 292 
  113.3662  138.1678  113.9572 LP  0  0  0  0  0  0  0  0  0  0  0  0  # atno 14305 bound_to 292 
  117.1829  120.5917  181.8324 LP  0  0  0  0  0  0  0  0  0  0  0  0  # atno 14308 bound_to 4325
  117.6265  116.8151  182.9197 LP  0  0  0  0  0  0  0  0  0  0  0  0  # atno 14309 bound_to 4328
  117.4496  118.5374  182.9714 LP  0  0  0  0  0  0  0  0  0  0  0  0  # atno 14310 bound_to 4328
  114.4717  158.2061  159.6538 LP  0  0  0  0  0  0  0  0  0  0  0  0  # atno 14334 bound_to 334 
  118.4941  159.4565  157.4514 LP  0  0  0  0  0  0  0  0  0  0  0  0  # atno 14335 bound_to 337 
  117.1245  159.9132  158.4083 LP  0  0  0  0  0  0  0  0  0  0  0  0  # atno 14336 bound_to 337 
  125.4162  158.6834  169.9354 LP  0  0  0  0  0  0  0  0  0  0  0  0  # atno 14353 bound_to 1767
  122.4744  156.1661  168.0718 LP  0  0  0  0  0  0  0  0  0  0  0  0  # atno 14354 bound_to 1770
  121.8530  157.0779  169.4069 LP  0  0  0  0  0  0  0  0  0  0  0  0  # atno 14355 bound_to 1770
  108.6767  133.5632   97.3968 LP  0  0  0  0  0  0  0  0  0  0  0  0  # atno 14364 bound_to 103 
  111.8462  135.2196  100.9004 LP  0  0  0  0  0  0  0  0  0  0  0  0  # atno 14365 bound_to 106 
  112.4516  133.8420  100.0427 LP  0  0  0  0  0  0  0  0  0  0  0  0  # atno 14366 bound_to 106 
  114.9644  152.4671  181.5355 LP  0  0  0  0  0  0  0  0  0  0  0  0  # atno 14369 bound_to 64  
  114.1901  156.0024  178.0375 LP  0  0  0  0  0  0  0  0  0  0  0  0  # atno 14370 bound_to 67  
  115.1226  156.0829  179.4949 LP  0  0  0  0  0  0  0  0  0  0  0  0  # atno 14371 bound_to 67  
  130.8841  127.4977  151.3002 LP  0  0  0  0  0  0  0  0  0  0  0  0  # atno 14376 bound_to 1802
  131.8531  128.7309  151.7551 LP  0  0  0  0  0  0  0  0  0  0  0  0  # atno 14377 bound_to 1802
  144.0706  135.0000  150.5271 LP  0  0  0  0  0  0  0  0  0  0  0  0  # atno 14384 bound_to 204 
  144.8231  133.6002  150.9026 LP  0  0  0  0  0  0  0  0  0  0  0  0  # atno 14385 bound_to 204 
  138.1065  119.0325  149.3572 LP  0  0  0  0  0  0  0  0  0  0  0  0  # atno 14407 bound_to 1834
  138.6291  119.8177  150.6902 LP  0  0  0  0  0  0  0  0  0  0  0  0  # atno 14408 bound_to 1834
  138.9634  131.0866  134.3368 LP  0  0  0  0  0  0  0  0  0  0  0  0  # atno 14411 bound_to 3259
  139.7109  129.6429  134.4908 LP  0  0  0  0  0  0  0  0  0  0  0  0  # atno 14412 bound_to 3259
  148.8436  134.4527  155.0395 LP  0  0  0  0  0  0  0  0  0  0  0  0  # atno 14415 bound_to 4679
  148.6163  135.8839  155.7921 LP  0  0  0  0  0  0  0  0  0  0  0  0  # atno 14416 bound_to 4679
  129.5771  117.5259  144.4267 LP  0  0  0  0  0  0  0  0  0  0  0  0  # atno 14432 bound_to 2733
  129.0850  115.9800  144.6128 LP  0  0  0  0  0  0  0  0  0  0  0  0  # atno 14433 bound_to 2733
  114.5966  117.3533  167.1739 LP  0  0  0  0  0  0  0  0  0  0  0  0  # atno 14440 bound_to 3927
  115.5399  112.8901  165.9675 LP  0  0  0  0  0  0  0  0  0  0  0  0  # atno 14441 bound_to 3930
  117.0712  113.1404  166.7373 LP  0  0  0  0  0  0  0  0  0  0  0  0  # atno 14442 bound_to 3930
  137.9047  115.3236  144.4791 LP  0  0  0  0  0  0  0  0  0  0  0  0  # atno 14465 bound_to 2765
  137.3416  116.4732  145.4929 LP  0  0  0  0  0  0  0  0  0  0  0  0  # atno 14466 bound_to 2765
  118.1874  113.0368  167.0173 LP  0  0  0  0  0  0  0  0  0  0  0  0  # atno 14472 bound_to 3972
  120.9164  110.1654  167.5650 LP  0  0  0  0  0  0  0  0  0  0  0  0  # atno 14473 bound_to 3975
  119.5192  111.0236  167.0069 LP  0  0  0  0  0  0  0  0  0  0  0  0  # atno 14474 bound_to 3975
  144.7899  144.8778  167.6255 LP  0  0  0  0  0  0  0  0  0  0  0  0  # atno 14479 bound_to 4748
  143.3868  144.3482  168.2717 LP  0  0  0  0  0  0  0  0  0  0  0  0  # atno 14480 bound_to 4748
  131.7897  156.9874  180.5098 LP  0  0  0  0  0  0  0  0  0  0  0  0  # atno 14485 bound_to 1170
  127.8099  155.7338  182.6066 LP  0  0  0  0  0  0  0  0  0  0  0  0  # atno 14486 bound_to 1173
  127.5062  154.3678  181.5860 LP  0  0  0  0  0  0  0  0  0  0  0  0  # atno 14487 bound_to 1173
  130.2340  142.3977  185.3785 LP  0  0  0  0  0  0  0  0  0  0  0  0  # atno 14496 bound_to 862 
  128.9573  141.7430  181.3243 LP  0  0  0  0  0  0  0  0  0  0  0  0  # atno 14497 bound_to 865 
  129.9889  140.8956  182.4277 LP  0  0  0  0  0  0  0  0  0  0  0  0  # atno 14498 bound_to 865 
  138.5218  136.5965  164.7798 LP  0  0  0  0  0  0  0  0  0  0  0  0  # atno 14501 bound_to 4013
  137.4386  136.3094  163.5919 LP  0  0  0  0  0  0  0  0  0  0  0  0  # atno 14502 bound_to 4013
  144.2737  125.7493  147.8191 LP  0  0  0  0  0  0  0  0  0  0  0  0  # atno 14519 bound_to 1222
  144.5038  126.3536  149.3186 LP  0  0  0  0  0  0  0  0  0  0  0  0  # atno 14520 bound_to 1222
  131.1689  113.3403  179.6353 LP  0  0  0  0  0  0  0  0  0  0  0  0  # atno 14523 bound_to 225 
  134.1715  112.5281  181.0439 LP  0  0  0  0  0  0  0  0  0  0  0  0  # atno 14524 bound_to 228 
  132.9403  113.2623  180.0718 LP  0  0  0  0  0  0  0  0  0  0  0  0  # atno 14525 bound_to 228 

> <Gold.Score>
     Fitness  S(hb_ext) S(vdw_ext)  S(hb_int)    S(int)      intcor
     39.46       5.37      25.41       0.00      -0.84      -0.76

> <Gold.Goldscore.Fitness>
39.4645

> <Gold.Goldscore.Internal.Vdw>
-1.2234

> <Gold.Goldscore.Internal.Torsion>
-0.3737

> <Gold.Goldscore.External.Vdw>
25.4052

> <Gold.Goldscore.Internal.HBond>
0.0000

> <Gold.Goldscore.External.HBond>
5.3709

> <Gold.Goldscore.Internal.Correction>
-0.7585

> <Gold.Goldscore.Hbonds>
donor molecule, donor type, donor heavy atom, donor atom, acceptor molecule, acceptor atom, score
      P1  H  4748  4755       L1    17  1.00
      P1  H  4756  4762       L1    17  0.95
      L1  H     8    22       P1  4748  0.02
      L1  H    10    23       P1  4036  0.72

> <Gold.Goldscore.Internal.Vdw.Weighted>
-1.2234

> <Gold.Goldscore.Internal.Torsion.Weighted>
-0.3737

> <Gold.Goldscore.External.Vdw.Weighted>
34.9322

> <Gold.Goldscore.Internal.HBond.Weighted>
0.0000

> <Gold.Goldscore.External.HBond.Weighted>
5.3709

> <Gold.Goldscore.Internal.Correction.Weighted>
-0.7585

> <Gold.Rescore>
     Score     S(PLP)   S(hbond)     S(cho)   S(metal)  DE(clash)   DE(tors)     intcor
     26.83     -20.18       2.31       0.00       0.00       0.00       0.14       ----

> <Gold.PLP.Fitness>
26.8273

> <Gold.PLP.PLP>
-20.1819

> <Gold.PLP.part.hbond>
-2.2602

> <Gold.PLP.part.metal>
0.0000

> <Gold.PLP.part.buried>
-2.8517

> <Gold.PLP.part.nonpolar>
-19.4353

> <Gold.PLP.part.repulsive>
4.0474

> <Gold.PLP.ligand.clash>
0.0000

> <Gold.PLP.ligand.torsion>
0.1404

> <Gold.PLP.Chemscore.Hbond>
2.3088

> <Gold.PLP.Chemscore.CHOScore>
0.0000

> <Gold.PLP.Chemscore.Metal>
0.0000

> <Gold.Chemscore.Hbonds>
donor molecule, donor type, donor heavy atom, donor atom, acceptor molecule, acceptor atom, score
      L1  H    10    23       P1  4036  0.39
      P1  H  4748  4755       L1    17  0.88
      P1  H  4756  4762       L1    17  1.00

> <Gold.PLP.Chemscore.Internal.Correction>
   9.000000E+99

#       Name:                CT1002167954
#       Creating user name   hitesit
#       Creation time:       Sun Apr 16 22:56:16 2023


#       File generated by GOLD software.
#

@<TRIPOS>MOLECULE
CT1002167954|ligand_prepared|mol2|1|dock9
    29    30     1
SMALL
NO_CHARGES


@<TRIPOS>ATOM
      1 C1         137.0637 141.9748 165.9475 C.3            1 RES1               0.0000
      2 C2         136.2287 140.8518 165.2992 C.ar           1 RES1               0.0000
      3 C3         138.1536 142.3335 164.9417 C.2            1 RES1               0.0000
      4 C4         136.0922 143.1119 166.2440 C.2            1 RES1               0.0000
      5 C5         137.7382 141.5638 167.2770 C.3            1 RES1               0.0000
      6 C6         135.4477 140.0072 166.0823 C.ar           1 RES1               0.0000
      7 C7         136.2271 140.6502 163.9215 C.ar           1 RES1               0.0000
      8 N8         138.0252 143.5096 164.2634 N.am           1 RES1               0.0000
      9 O9         139.0909 141.5773 164.7184 O.2            1 RES1               0.0000
     10 N10        136.2541 144.2891 165.5617 N.am           1 RES1               0.0000
     11 O11        135.1778 142.9934 167.0503 O.2            1 RES1               0.0000
     12 C12        138.7602 142.5698 167.7827 C.3            1 RES1               0.0000
     13 C13        134.6902 138.9994 165.5089 C.ar           1 RES1               0.0000
     14 C14        135.4690 139.6416 163.3501 C.ar           1 RES1               0.0000
     15 C15        137.1576 144.5292 164.5625 C.2            1 RES1               0.0000
     16 C16        134.7000 138.8162 164.1425 C.ar           1 RES1               0.0000
     17 O17        137.2063 145.5965 163.9578 O.2            1 RES1               0.0000
     18 H18        136.9621 141.4342 168.0414 H              1 RES1               0.0000
     19 H19        138.2352 140.5960 167.1364 H              1 RES1               0.0000
     20 H20        135.4293 140.1346 167.1596 H              1 RES1               0.0000
     21 H21        136.8254 141.2868 163.2786 H              1 RES1               0.0000
     22 H22        138.6301 143.6434 163.4593 H              1 RES1               0.0000
     23 H23        135.6447 145.0578 165.8228 H              1 RES1               0.0000
     24 H24        139.2030 142.2329 168.7177 H              1 RES1               0.0000
     25 H25        139.5603 142.7043 167.0579 H              1 RES1               0.0000
     26 H26        138.2948 143.5376 167.9575 H              1 RES1               0.0000
     27 H27        134.0877 138.3516 166.1371 H              1 RES1               0.0000
     28 H28        135.4802 139.5006 162.2743 H              1 RES1               0.0000
     29 H29        134.1062 138.0268 163.6935 H              1 RES1               0.0000
@<TRIPOS>BOND
    1    1    2 1     
    2    1    3 1     
    3    1    4 1     
    4    1    5 1     
    5    2    6 ar    
    6    2    7 ar    
    7    3    8 1     
    8    3    9 2     
    9    4   10 1     
   10    4   11 2     
   11    5   12 1     
   12    5   18 1     
   13    5   19 1     
   14    6   13 ar    
   15    6   20 1     
   16    7   14 ar    
   17    7   21 1     
   18    8   15 1     
   19    8   22 1     
   20   10   15 1     
   21   10   23 1     
   22   12   24 1     
   23   12   25 1     
   24   12   26 1     
   25   13   16 ar    
   26   13   27 1     
   27   14   16 ar    
   28   14   28 1     
   29   15   17 2     
   30   16   29 1     
@<TRIPOS>SUBSTRUCTURE
      1 RES1           1
@<TRIPOS>SET
DONOR_HYDROGENS      STATIC     ATOMS    <user>   **** ""
2 22 23
ATOM$RED        STATIC     ATOMS    COLORGROUP SYSTEM
2 22 23
@<TRIPOS>COMMENT
> <Gold.Version>
2022.3.0

> <Gold.Id.Protein>
unknown|7rmi_cavity_clean|pdb

> <Gold.Protein.RotatedTorsions>
[  294  288  286  283 ] final  -14.94 input   60.03 | X-H torsion
[  301  289  290  291 ] final  -16.12 input  115.34 | X-H torsion
[ 4333 4325 4326 4327 ] final   46.08 input   58.17 | X-H torsion
[  162  159  158  157 ] final -174.31 input   59.97 | X-H torsion
[  352  334  335  336 ] final   76.55 input   81.54 | X-H torsion
[ 1783 1767 1768 1769 ] final  -91.85 input  110.17 | X-H torsion
[  113  103  104  105 ] final  126.04 input  112.99 | X-H torsion
[   82   64   65   66 ] final  -21.09 input  112.25 | X-H torsion
[ 1807 1802 1800 1797 ] final   58.78 input   60.00 | X-H torsion
[  208  204  203  201 ] final  -91.73 input   60.02 | X-H torsion
[ 1839 1834 1833 1830 ] final   36.04 input   59.99 | X-H torsion
[ 3268 3259 3258 3256 ] final  -26.05 input   59.98 | X-H torsion
[ 4684 4679 4678 4675 ] final  -45.65 input   59.98 | X-H torsion
[ 2741 2733 2732 2730 ] final  163.70 input   60.00 | X-H torsion
[ 3932 3927 3928 3929 ] final  144.11 input   88.25 | X-H torsion
[ 2774 2765 2764 2762 ] final -166.86 input   60.03 | X-H torsion
[ 3980 3972 3973 3974 ] final   71.43 input   60.58 | X-H torsion
[ 4755 4748 4746 4743 ] final  103.39 input   60.02 | X-H torsion
[ 1184 1170 1171 1172 ] final  177.26 input   67.97 | X-H torsion
[  880  862  863  864 ] final   56.60 input   59.67 | X-H torsion
[ 4018 4013 4012 4010 ] final -139.74 input   60.01 | X-H torsion
[ 8045 8035 8034 8033 ] final  151.97 input   59.99 | X-H torsion
[ 1224 1222 1220 1217 ] final   19.61 input   59.96 | X-H torsion
[  249  225  226  227 ] final  -81.30 input   51.53 | X-H torsion
[ 14304  292  291  290 ] final  141.10 input    0.00 | X-H torsion
[ 14309 4328 4327 4326 ] final  134.68 input   -0.00 | X-H torsion
[ 14335  337  336  335 ] final  103.46 input   -0.00 | X-H torsion
[ 14354 1770 1769 1768 ] final   -8.75 input   -0.00 | X-H torsion
[ 14365  106  105  104 ] final -169.48 input    0.00 | X-H torsion
[ 14370   67   66   65 ] final  -62.62 input   -0.00 | X-H torsion
[ 14441 3930 3929 3928 ] final -123.25 input   -0.00 | X-H torsion
[ 14473 3975 3974 3973 ] final  170.77 input   -0.00 | X-H torsion
[ 14486 1173 1172 1171 ] final -120.40 input   -0.00 | X-H torsion
[ 14497  865  864  863 ] final  104.15 input   -0.00 | X-H torsion
[ 14524  228  227  226 ] final  -27.55 input    0.00 | X-H torsion

> <Gold.Protein.ActiveResidues>
 GLU27   LEU30   GLN31   ASP33   LYS34   GLN35   VAL36   TYR37   ARG38   THR40  
 HIS41   ARG42   GLU209  HIS220  PHE222  GLN236  ASN239  ASP240  VAL241  THR242 
 ARG280  TRP281  LEU282  ARG283  THR284  ILE285  SER286  VAL287  ILE288  GLY355 
 ARG356  HIS357  TYR358  CYS359  TYR360  ASP381  ILE382  ILE383  GLN385  MET386 
 ASN387  LEU388  ARG389  GLU390  TYR391  VAL394  ALA56   LYS57   ILE58   TYR59  
 ALA60   MET61   LEU79   ILE80   ILE81   TRP82   ILE93   SER98   TRP99   VAL100 
 MET101  THR102  CYS103  GLY310  HIS311  ASP312  ASN313  TRP332  ASP333  SER334 
 PHE335  LYS337 

> <Gold.Protein.RotatedAtoms>
  113.8979  152.5316  180.6475 H   0  0  0  0  0  0  0  0  0  0  0  0  # atno 82   bound_to 64  
  109.1219  134.3025   96.6821 H   0  0  0  0  0  0  0  0  0  0  0  0  # atno 113  bound_to 103 
  143.7161  139.5754  141.8349 H   0  0  0  0  0  0  0  0  0  0  0  0  # atno 162  bound_to 159 
  144.8336  139.3391  140.6336 H   0  0  0  0  0  0  0  0  0  0  0  0  # atno 163  bound_to 159 
  144.8818  138.4096  142.0052 H   0  0  0  0  0  0  0  0  0  0  0  0  # atno 164  bound_to 159 
  144.3444  133.2154  150.0281 H   0  0  0  0  0  0  0  0  0  0  0  0  # atno 208  bound_to 204 
  130.4663  114.3791  180.4043 H   0  0  0  0  0  0  0  0  0  0  0  0  # atno 249  bound_to 225 
  152.9664  129.1898  145.8907 H   0  0  0  0  0  0  0  0  0  0  0  0  # atno 294  bound_to 288 
  114.7678  136.4172  110.1427 H   0  0  0  0  0  0  0  0  0  0  0  0  # atno 301  bound_to 289 
  115.0650  159.1870  159.1680 H   0  0  0  0  0  0  0  0  0  0  0  0  # atno 352  bound_to 334 
  130.8858  142.7878  183.9800 H   0  0  0  0  0  0  0  0  0  0  0  0  # atno 880  bound_to 862 
  131.4587  157.8606  180.7333 H   0  0  0  0  0  0  0  0  0  0  0  0  # atno 1184 bound_to 1170
  143.5273  126.7083  149.2477 H   0  0  0  0  0  0  0  0  0  0  0  0  # atno 1224 bound_to 1222
  125.2186  159.0115  170.4756 H   0  0  0  0  0  0  0  0  0  0  0  0  # atno 1783 bound_to 1767
  131.4122  127.6556  152.8577 H   0  0  0  0  0  0  0  0  0  0  0  0  # atno 1807 bound_to 1802
  138.6326  119.7356  150.6757 H   0  0  0  0  0  0  0  0  0  0  0  0  # atno 1839 bound_to 1834
  129.9227  117.4982  144.0633 H   0  0  0  0  0  0  0  0  0  0  0  0  # atno 2741 bound_to 2733
  138.0329  116.1080  144.9152 H   0  0  0  0  0  0  0  0  0  0  0  0  # atno 2774 bound_to 2765
  138.9900  131.0491  134.2884 H   0  0  0  0  0  0  0  0  0  0  0  0  # atno 3268 bound_to 3259
  114.1145  117.2067  167.3126 H   0  0  0  0  0  0  0  0  0  0  0  0  # atno 3932 bound_to 3927
  118.3937  112.8452  166.8885 H   0  0  0  0  0  0  0  0  0  0  0  0  # atno 3980 bound_to 3972
  137.4786  137.6252  164.7467 H   0  0  0  0  0  0  0  0  0  0  0  0  # atno 4018 bound_to 4013
  116.9156  120.1347  182.2400 H   0  0  0  0  0  0  0  0  0  0  0  0  # atno 4333 bound_to 4325
  148.0604  135.1067  156.5757 H   0  0  0  0  0  0  0  0  0  0  0  0  # atno 4684 bound_to 4679
  142.9939  144.4595  167.7767 H   0  0  0  0  0  0  0  0  0  0  0  0  # atno 4755 bound_to 4748
  132.3080  147.0459  147.9286 H   0  0  0  0  0  0  0  0  0  0  0  0  # atno 8045 bound_to 8035
  133.4960  148.0826  148.4391 H   0  0  0  0  0  0  0  0  0  0  0  0  # atno 8046 bound_to 8035
  132.7253  147.1028  149.5321 H   0  0  0  0  0  0  0  0  0  0  0  0  # atno 8047 bound_to 8035
  153.6363  129.4907  147.3428 LP  0  0  0  0  0  0  0  0  0  0  0  0  # atno 14301 bound_to 288 
  152.8968  130.6899  146.5173 LP  0  0  0  0  0  0  0  0  0  0  0  0  # atno 14302 bound_to 288 
  114.0466  137.5823  109.0593 LP  0  0  0  0  0  0  0  0  0  0  0  0  # atno 14303 bound_to 289 
  113.5065  137.2919  114.3024 LP  0  0  0  0  0  0  0  0  0  0  0  0  # atno 14304 bound_to 292 
  114.7379  138.2066  113.4979 LP  0  0  0  0  0  0  0  0  0  0  0  0  # atno 14305 bound_to 292 
  115.8613  120.7075  180.9616 LP  0  0  0  0  0  0  0  0  0  0  0  0  # atno 14308 bound_to 4325
  116.8420  117.2273  183.1986 LP  0  0  0  0  0  0  0  0  0  0  0  0  # atno 14309 bound_to 4328
  118.2340  118.1252  182.6925 LP  0  0  0  0  0  0  0  0  0  0  0  0  # atno 14310 bound_to 4328
  115.3215  158.0934  160.5085 LP  0  0  0  0  0  0  0  0  0  0  0  0  # atno 14334 bound_to 334 
  118.0426  159.9048  158.7343 LP  0  0  0  0  0  0  0  0  0  0  0  0  # atno 14335 bound_to 337 
  117.5759  159.4649  157.1254 LP  0  0  0  0  0  0  0  0  0  0  0  0  # atno 14336 bound_to 337 
  125.3253  160.0123  169.0482 LP  0  0  0  0  0  0  0  0  0  0  0  0  # atno 14353 bound_to 1767
  121.9850  156.9843  169.5054 LP  0  0  0  0  0  0  0  0  0  0  0  0  # atno 14354 bound_to 1770
  122.3424  156.2597  167.9733 LP  0  0  0  0  0  0  0  0  0  0  0  0  # atno 14355 bound_to 1770
  108.5968  134.4960   98.3366 LP  0  0  0  0  0  0  0  0  0  0  0  0  # atno 14364 bound_to 103 
  112.1110  135.3451  100.7639 LP  0  0  0  0  0  0  0  0  0  0  0  0  # atno 14365 bound_to 106 
  112.1869  133.7164  100.1793 LP  0  0  0  0  0  0  0  0  0  0  0  0  # atno 14366 bound_to 106 
  115.4365  151.7554  180.9275 LP  0  0  0  0  0  0  0  0  0  0  0  0  # atno 14369 bound_to 64  
  114.4457  156.1059  179.6039 LP  0  0  0  0  0  0  0  0  0  0  0  0  # atno 14370 bound_to 67  
  114.8669  155.9795  177.9286 LP  0  0  0  0  0  0  0  0  0  0  0  0  # atno 14371 bound_to 67  
  130.8702  127.4640  151.3349 LP  0  0  0  0  0  0  0  0  0  0  0  0  # atno 14376 bound_to 1802
  131.8371  128.7261  151.7076 LP  0  0  0  0  0  0  0  0  0  0  0  0  # atno 14377 bound_to 1802
  143.7094  134.7054  149.8681 LP  0  0  0  0  0  0  0  0  0  0  0  0  # atno 14384 bound_to 204 
  144.7060  134.3695  151.1173 LP  0  0  0  0  0  0  0  0  0  0  0  0  # atno 14385 bound_to 204 
  137.9285  120.6840  149.5565 LP  0  0  0  0  0  0  0  0  0  0  0  0  # atno 14407 bound_to 1834
  138.0697  119.0779  149.2978 LP  0  0  0  0  0  0  0  0  0  0  0  0  # atno 14408 bound_to 1834
  139.7135  129.6154  134.5513 LP  0  0  0  0  0  0  0  0  0  0  0  0  # atno 14411 bound_to 3259
  139.0278  130.4269  135.7915 LP  0  0  0  0  0  0  0  0  0  0  0  0  # atno 14412 bound_to 3259
  148.5675  134.0706  155.4274 LP  0  0  0  0  0  0  0  0  0  0  0  0  # atno 14415 bound_to 4679
  148.8763  135.6677  155.2839 LP  0  0  0  0  0  0  0  0  0  0  0  0  # atno 14416 bound_to 4679
  128.9700  116.4218  144.8258 LP  0  0  0  0  0  0  0  0  0  0  0  0  # atno 14432 bound_to 2733
  129.9938  115.9247  143.6548 LP  0  0  0  0  0  0  0  0  0  0  0  0  # atno 14433 bound_to 2733
  115.2990  116.3200  168.2450 LP  0  0  0  0  0  0  0  0  0  0  0  0  # atno 14440 bound_to 3927
  116.8996  113.1346  166.9712 LP  0  0  0  0  0  0  0  0  0  0  0  0  # atno 14441 bound_to 3930
  115.7115  112.8959  165.7337 LP  0  0  0  0  0  0  0  0  0  0  0  0  # atno 14442 bound_to 3930
  136.5597  116.0209  145.6009 LP  0  0  0  0  0  0  0  0  0  0  0  0  # atno 14465 bound_to 2765
  137.0663  114.8386  144.5949 LP  0  0  0  0  0  0  0  0  0  0  0  0  # atno 14466 bound_to 2765
  119.2161  114.3748  167.1231 LP  0  0  0  0  0  0  0  0  0  0  0  0  # atno 14472 bound_to 3972
  121.0513  110.3594  167.2917 LP  0  0  0  0  0  0  0  0  0  0  0  0  # atno 14473 bound_to 3975
  119.3843  110.8296  167.2803 LP  0  0  0  0  0  0  0  0  0  0  0  0  # atno 14474 bound_to 3975
  144.0377  145.0867  166.6971 LP  0  0  0  0  0  0  0  0  0  0  0  0  # atno 14479 bound_to 4748
  144.5643  144.6218  168.1713 LP  0  0  0  0  0  0  0  0  0  0  0  0  # atno 14480 bound_to 4748
  130.7203  156.7824  179.5681 LP  0  0  0  0  0  0  0  0  0  0  0  0  # atno 14485 bound_to 1170
  127.9420  154.2327  182.0880 LP  0  0  0  0  0  0  0  0  0  0  0  0  # atno 14486 bound_to 1173
  127.3741  155.8689  182.1046 LP  0  0  0  0  0  0  0  0  0  0  0  0  # atno 14487 bound_to 1173
  130.2044  143.0908  185.5649 LP  0  0  0  0  0  0  0  0  0  0  0  0  # atno 14496 bound_to 862 
  129.8340  140.7125  182.3775 LP  0  0  0  0  0  0  0  0  0  0  0  0  # atno 14497 bound_to 865 
  129.1122  141.9261  181.3745 LP  0  0  0  0  0  0  0  0  0  0  0  0  # atno 14498 bound_to 865 
  138.5157  136.3811  164.5907 LP  0  0  0  0  0  0  0  0  0  0  0  0  # atno 14501 bound_to 4013
  137.2347  136.5109  163.5863 LP  0  0  0  0  0  0  0  0  0  0  0  0  # atno 14502 bound_to 4013
  143.4898  126.0376  147.7652 LP  0  0  0  0  0  0  0  0  0  0  0  0  # atno 14519 bound_to 1222
  144.8367  125.9247  148.6815 LP  0  0  0  0  0  0  0  0  0  0  0  0  # atno 14520 bound_to 1222
  130.3928  112.8242  179.6063 LP  0  0  0  0  0  0  0  0  0  0  0  0  # atno 14523 bound_to 225 
  132.9870  112.4829  180.0515 LP  0  0  0  0  0  0  0  0  0  0  0  0  # atno 14524 bound_to 228 
  134.1248  113.3075  181.0642 LP  0  0  0  0  0  0  0  0  0  0  0  0  # atno 14525 bound_to 228 

> <Gold.Score>
     Fitness  S(hb_ext) S(vdw_ext)  S(hb_int)    S(int)      intcor
     38.15       0.10      28.41       0.00      -1.01      -0.76

> <Gold.Goldscore.Fitness>
38.1499

> <Gold.Goldscore.Internal.Vdw>
-1.2187

> <Gold.Goldscore.Internal.Torsion>
-0.5535

> <Gold.Goldscore.External.Vdw>
28.4097

> <Gold.Goldscore.Internal.HBond>
0.0000

> <Gold.Goldscore.External.HBond>
0.1004

> <Gold.Goldscore.Internal.Correction>
-0.7585

> <Gold.Goldscore.Hbonds>
donor molecule, donor type, donor heavy atom, donor atom, acceptor molecule, acceptor atom, score
      L1  H     8    22       P1  4005  0.05

> <Gold.Goldscore.Internal.Vdw.Weighted>
-1.2187

> <Gold.Goldscore.Internal.Torsion.Weighted>
-0.5535

> <Gold.Goldscore.External.Vdw.Weighted>
39.0633

> <Gold.Goldscore.Internal.HBond.Weighted>
0.0000

> <Gold.Goldscore.External.HBond.Weighted>
0.1004

> <Gold.Goldscore.Internal.Correction.Weighted>
-0.7585

> <Gold.Rescore>
     Score     S(PLP)   S(hbond)     S(cho)   S(metal)  DE(clash)   DE(tors)     intcor
     28.51     -30.22       0.00       0.00       0.00       0.00       0.85       ----

> <Gold.PLP.Fitness>
28.5136

> <Gold.PLP.PLP>
-30.2191

> <Gold.PLP.part.hbond>
-0.7599

> <Gold.PLP.part.metal>
0.0000

> <Gold.PLP.part.buried>
-4.2812

> <Gold.PLP.part.nonpolar>
-30.8046

> <Gold.PLP.part.repulsive>
5.0384

> <Gold.PLP.ligand.clash>
0.0000

> <Gold.PLP.ligand.torsion>
0.8528

> <Gold.PLP.Chemscore.Hbond>
0.0000

> <Gold.PLP.Chemscore.CHOScore>
0.0000

> <Gold.PLP.Chemscore.Metal>
0.0000

> <Gold.Chemscore.Hbonds>
donor molecule, donor type, donor heavy atom, donor atom, acceptor molecule, acceptor atom, score
      L1  H     8    22       P1  4005  0.16

> <Gold.PLP.Chemscore.Internal.Correction>
   9.000000E+99

#       Name:                CT1002167954
#       Creating user name   hitesit
#       Creation time:       Sun Apr 16 22:56:27 2023


#       File generated by GOLD software.
#

@<TRIPOS>MOLECULE
CT1002167954|ligand_prepared|mol2|1|dock10
    29    30     1
SMALL
NO_CHARGES


@<TRIPOS>ATOM
      1 C1         138.1157 144.7506 166.4528 C.3            1 RES1               0.0000
      2 C2         137.6019 143.4481 165.8061 C.ar           1 RES1               0.0000
      3 C3         139.2658 144.3482 167.3713 C.2            1 RES1               0.0000
      4 C4         138.5277 145.6638 165.3035 C.2            1 RES1               0.0000
      5 C5         137.0513 145.4924 167.2945 C.3            1 RES1               0.0000
      6 C6         136.7750 142.5826 166.5161 C.ar           1 RES1               0.0000
      7 C7         137.9434 143.1003 164.5019 C.ar           1 RES1               0.0000
      8 N8         140.5331 144.6446 166.9640 N.am           1 RES1               0.0000
      9 O9         139.0662 143.7448 168.4184 O.2            1 RES1               0.0000
     10 N10        139.8551 145.9809 165.1795 N.am           1 RES1               0.0000
     11 O11        137.7172 146.0982 164.4944 O.2            1 RES1               0.0000
     12 C12        135.6968 145.6012 166.6122 C.3            1 RES1               0.0000
     13 C13        136.3042 141.4134 165.9421 C.ar           1 RES1               0.0000
     14 C14        137.4716 141.9304 163.9298 C.ar           1 RES1               0.0000
     15 C15        140.8806 145.4879 165.9394 C.2            1 RES1               0.0000
     16 C16        136.6517 141.0867 164.6486 C.ar           1 RES1               0.0000
     17 O17        142.0554 145.7778 165.7322 O.2            1 RES1               0.0000
     18 H18        136.9250 144.9652 168.2481 H              1 RES1               0.0000
     19 H19        137.4173 146.5026 167.5158 H              1 RES1               0.0000
     20 H20        136.4929 142.8218 167.5360 H              1 RES1               0.0000
     21 H21        138.5881 143.7484 163.9179 H              1 RES1               0.0000
     22 H22        141.2927 144.1978 167.4677 H              1 RES1               0.0000
     23 H23        140.1014 146.6462 164.4536 H              1 RES1               0.0000
     24 H24        134.9874 146.1300 167.2453 H              1 RES1               0.0000
     25 H25        135.7808 146.1424 165.6720 H              1 RES1               0.0000
     26 H26        135.2914 144.6141 166.4000 H              1 RES1               0.0000
     27 H27        135.6603 140.7521 166.5125 H              1 RES1               0.0000
     28 H28        137.7482 141.6770 162.9117 H              1 RES1               0.0000
     29 H29        136.2824 140.1709 164.1991 H              1 RES1               0.0000
@<TRIPOS>BOND
    1    1    2 1     
    2    1    3 1     
    3    1    4 1     
    4    1    5 1     
    5    2    6 ar    
    6    2    7 ar    
    7    3    8 1     
    8    3    9 2     
    9    4   10 1     
   10    4   11 2     
   11    5   12 1     
   12    5   18 1     
   13    5   19 1     
   14    6   13 ar    
   15    6   20 1     
   16    7   14 ar    
   17    7   21 1     
   18    8   15 1     
   19    8   22 1     
   20   10   15 1     
   21   10   23 1     
   22   12   24 1     
   23   12   25 1     
   24   12   26 1     
   25   13   16 ar    
   26   13   27 1     
   27   14   16 ar    
   28   14   28 1     
   29   15   17 2     
   30   16   29 1     
@<TRIPOS>SUBSTRUCTURE
      1 RES1           1
@<TRIPOS>SET
DONOR_HYDROGENS      STATIC     ATOMS    <user>   **** ""
2 22 23
ATOM$RED        STATIC     ATOMS    COLORGROUP SYSTEM
2 22 23
@<TRIPOS>COMMENT
> <Gold.Version>
2022.3.0

> <Gold.Id.Protein>
unknown|7rmi_cavity_clean|pdb

> <Gold.Protein.RotatedTorsions>
[  294  288  286  283 ] final   97.02 input   60.03 | X-H torsion
[  301  289  290  291 ] final  -54.41 input  115.34 | X-H torsion
[ 4333 4325 4326 4327 ] final  140.12 input   58.17 | X-H torsion
[  162  159  158  157 ] final  127.78 input   59.97 | X-H torsion
[  352  334  335  336 ] final  119.58 input   81.54 | X-H torsion
[ 1783 1767 1768 1769 ] final  -78.33 input  110.17 | X-H torsion
[  113  103  104  105 ] final   90.35 input  112.99 | X-H torsion
[   82   64   65   66 ] final   99.46 input  112.25 | X-H torsion
[ 1807 1802 1800 1797 ] final -129.92 input   60.00 | X-H torsion
[  208  204  203  201 ] final -103.26 input   60.02 | X-H torsion
[ 1839 1834 1833 1830 ] final   81.12 input   59.99 | X-H torsion
[ 3268 3259 3258 3256 ] final -129.94 input   59.98 | X-H torsion
[ 4684 4679 4678 4675 ] final  -17.67 input   59.98 | X-H torsion
[ 2741 2733 2732 2730 ] final  141.29 input   60.00 | X-H torsion
[ 3932 3927 3928 3929 ] final  -85.00 input   88.25 | X-H torsion
[ 2774 2765 2764 2762 ] final  -78.14 input   60.03 | X-H torsion
[ 3980 3972 3973 3974 ] final   95.43 input   60.58 | X-H torsion
[ 4755 4748 4746 4743 ] final   24.84 input   60.02 | X-H torsion
[ 1184 1170 1171 1172 ] final   14.20 input   67.97 | X-H torsion
[  880  862  863  864 ] final  -92.36 input   59.67 | X-H torsion
[ 4018 4013 4012 4010 ] final -141.05 input   60.01 | X-H torsion
[ 8045 8035 8034 8033 ] final  -53.35 input   59.99 | X-H torsion
[ 1224 1222 1220 1217 ] final   17.81 input   59.96 | X-H torsion
[  249  225  226  227 ] final   78.20 input   51.53 | X-H torsion
[ 14304  292  291  290 ] final   91.28 input    0.00 | X-H torsion
[ 14309 4328 4327 4326 ] final   13.98 input   -0.00 | X-H torsion
[ 14335  337  336  335 ] final  -43.94 input   -0.00 | X-H torsion
[ 14354 1770 1769 1768 ] final   24.95 input   -0.00 | X-H torsion
[ 14365  106  105  104 ] final   23.95 input    0.00 | X-H torsion
[ 14370   67   66   65 ] final   86.70 input   -0.00 | X-H torsion
[ 14441 3930 3929 3928 ] final  -70.56 input   -0.00 | X-H torsion
[ 14473 3975 3974 3973 ] final -111.30 input   -0.00 | X-H torsion
[ 14486 1173 1172 1171 ] final  176.74 input   -0.00 | X-H torsion
[ 14497  865  864  863 ] final   95.13 input   -0.00 | X-H torsion
[ 14524  228  227  226 ] final   92.54 input    0.00 | X-H torsion

> <Gold.Protein.ActiveResidues>
 GLU27   LEU30   GLN31   ASP33   LYS34   GLN35   VAL36   TYR37   ARG38   THR40  
 HIS41   ARG42   GLU209  HIS220  PHE222  GLN236  ASN239  ASP240  VAL241  THR242 
 ARG280  TRP281  LEU282  ARG283  THR284  ILE285  SER286  VAL287  ILE288  GLY355 
 ARG356  HIS357  TYR358  CYS359  TYR360  ASP381  ILE382  ILE383  GLN385  MET386 
 ASN387  LEU388  ARG389  GLU390  TYR391  VAL394  ALA56   LYS57   ILE58   TYR59  
 ALA60   MET61   LEU79   ILE80   ILE81   TRP82   ILE93   SER98   TRP99   VAL100 
 MET101  THR102  CYS103  GLY310  HIS311  ASP312  ASN313  TRP332  ASP333  SER334 
 PHE335  LYS337 

> <Gold.Protein.RotatedAtoms>
  114.9878  151.5495  180.2163 H   0  0  0  0  0  0  0  0  0  0  0  0  # atno 82   bound_to 64  
  109.2088  134.8168   96.8244 H   0  0  0  0  0  0  0  0  0  0  0  0  # atno 113  bound_to 103 
  144.0964  138.9015  142.3445 H   0  0  0  0  0  0  0  0  0  0  0  0  # atno 162  bound_to 159 
  144.0966  139.8012  140.9522 H   0  0  0  0  0  0  0  0  0  0  0  0  # atno 163  bound_to 159 
  145.2388  138.6211  141.1768 H   0  0  0  0  0  0  0  0  0  0  0  0  # atno 164  bound_to 159 
  144.2284  133.2716  149.8911 H   0  0  0  0  0  0  0  0  0  0  0  0  # atno 208  bound_to 204 
  130.6979  112.8699  179.5553 H   0  0  0  0  0  0  0  0  0  0  0  0  # atno 249  bound_to 225 
  152.8459  130.6498  146.4024 H   0  0  0  0  0  0  0  0  0  0  0  0  # atno 294  bound_to 288 
  115.1358  136.8569  110.0645 H   0  0  0  0  0  0  0  0  0  0  0  0  # atno 301  bound_to 289 
  114.5945  158.7391  159.2039 H   0  0  0  0  0  0  0  0  0  0  0  0  # atno 352  bound_to 334 
  130.1553  142.6245  185.5270 H   0  0  0  0  0  0  0  0  0  0  0  0  # atno 880  bound_to 862 
  130.5307  156.9584  179.5394 H   0  0  0  0  0  0  0  0  0  0  0  0  # atno 1184 bound_to 1170
  143.5032  126.7101  149.2308 H   0  0  0  0  0  0  0  0  0  0  0  0  # atno 1224 bound_to 1222
  125.2820  158.8624  170.3459 H   0  0  0  0  0  0  0  0  0  0  0  0  # atno 1783 bound_to 1767
  131.4206  128.3450  151.1218 H   0  0  0  0  0  0  0  0  0  0  0  0  # atno 1807 bound_to 1802
  138.5656  119.1118  150.3268 H   0  0  0  0  0  0  0  0  0  0  0  0  # atno 1839 bound_to 1834
  129.6770  117.5403  144.3282 H   0  0  0  0  0  0  0  0  0  0  0  0  # atno 2741 bound_to 2733
  137.5307  114.9885  144.4586 H   0  0  0  0  0  0  0  0  0  0  0  0  # atno 2774 bound_to 2765
  139.6836  129.7486  134.3261 H   0  0  0  0  0  0  0  0  0  0  0  0  # atno 3268 bound_to 3259
  114.6150  116.1430  168.4171 H   0  0  0  0  0  0  0  0  0  0  0  0  # atno 3932 bound_to 3927
  118.1394  113.0418  167.0747 H   0  0  0  0  0  0  0  0  0  0  0  0  # atno 3980 bound_to 3972
  137.4955  137.6233  164.7597 H   0  0  0  0  0  0  0  0  0  0  0  0  # atno 4018 bound_to 4013
  117.0081  120.9384  181.2100 H   0  0  0  0  0  0  0  0  0  0  0  0  # atno 4333 bound_to 4325
  148.1951  135.5180  156.4422 H   0  0  0  0  0  0  0  0  0  0  0  0  # atno 4684 bound_to 4679
  143.3949  144.9304  166.7655 H   0  0  0  0  0  0  0  0  0  0  0  0  # atno 4755 bound_to 4748
  133.5170  147.9826  149.0003 H   0  0  0  0  0  0  0  0  0  0  0  0  # atno 8045 bound_to 8035
  132.3565  146.8169  149.2043 H   0  0  0  0  0  0  0  0  0  0  0  0  # atno 8046 bound_to 8035
  132.6563  147.4326  147.6943 H   0  0  0  0  0  0  0  0  0  0  0  0  # atno 8047 bound_to 8035
  153.0285  129.0950  145.9584 LP  0  0  0  0  0  0  0  0  0  0  0  0  # atno 14301 bound_to 288 
  153.6260  129.6149  147.3864 LP  0  0  0  0  0  0  0  0  0  0  0  0  # atno 14302 bound_to 288 
  113.6859  137.1515  109.1360 LP  0  0  0  0  0  0  0  0  0  0  0  0  # atno 14303 bound_to 289 
  113.2988  137.9532  114.0746 LP  0  0  0  0  0  0  0  0  0  0  0  0  # atno 14304 bound_to 292 
  114.9456  137.5453  113.7256 LP  0  0  0  0  0  0  0  0  0  0  0  0  # atno 14305 bound_to 292 
  115.7728  119.9373  181.9487 LP  0  0  0  0  0  0  0  0  0  0  0  0  # atno 14308 bound_to 4325
  117.5287  118.5422  182.9429 LP  0  0  0  0  0  0  0  0  0  0  0  0  # atno 14309 bound_to 4328
  117.5473  116.8103  182.9482 LP  0  0  0  0  0  0  0  0  0  0  0  0  # atno 14310 bound_to 4328
  115.7785  158.5285  160.4736 LP  0  0  0  0  0  0  0  0  0  0  0  0  # atno 14334 bound_to 334 
  117.1664  159.5851  157.3582 LP  0  0  0  0  0  0  0  0  0  0  0  0  # atno 14335 bound_to 337 
  118.4521  159.7846  158.5015 LP  0  0  0  0  0  0  0  0  0  0  0  0  # atno 14336 bound_to 337 
  125.2632  160.1585  169.1754 LP  0  0  0  0  0  0  0  0  0  0  0  0  # atno 14353 bound_to 1767
  121.6673  157.1844  169.1721 LP  0  0  0  0  0  0  0  0  0  0  0  0  # atno 14354 bound_to 1770
  122.6602  156.0596  168.3066 LP  0  0  0  0  0  0  0  0  0  0  0  0  # atno 14355 bound_to 1770
  108.5116  133.9919   98.1970 LP  0  0  0  0  0  0  0  0  0  0  0  0  # atno 14364 bound_to 103 
  112.3552  133.7823  100.0879 LP  0  0  0  0  0  0  0  0  0  0  0  0  # atno 14365 bound_to 106 
  111.9427  135.2792  100.8553 LP  0  0  0  0  0  0  0  0  0  0  0  0  # atno 14366 bound_to 106 
  114.3652  152.7208  181.3514 LP  0  0  0  0  0  0  0  0  0  0  0  0  # atno 14369 bound_to 64  
  115.2659  155.9861  178.1537 LP  0  0  0  0  0  0  0  0  0  0  0  0  # atno 14370 bound_to 67  
  114.0467  156.0992  179.3787 LP  0  0  0  0  0  0  0  0  0  0  0  0  # atno 14371 bound_to 67  
  131.8323  128.3334  152.6965 LP  0  0  0  0  0  0  0  0  0  0  0  0  # atno 14376 bound_to 1802
  130.8666  127.1627  152.0937 LP  0  0  0  0  0  0  0  0  0  0  0  0  # atno 14377 bound_to 1802
  143.7622  134.8270  150.0033 LP  0  0  0  0  0  0  0  0  0  0  0  0  # atno 14384 bound_to 204 
  144.7700  134.1913  151.1199 LP  0  0  0  0  0  0  0  0  0  0  0  0  # atno 14385 bound_to 204 
  138.2442  120.7025  150.2065 LP  0  0  0  0  0  0  0  0  0  0  0  0  # atno 14407 bound_to 1834
  137.8215  119.6875  148.9991 LP  0  0  0  0  0  0  0  0  0  0  0  0  # atno 14408 bound_to 1834
  139.1522  130.1937  135.7982 LP  0  0  0  0  0  0  0  0  0  0  0  0  # atno 14411 bound_to 3259
  138.8908  131.1581  134.5066 LP  0  0  0  0  0  0  0  0  0  0  0  0  # atno 14412 bound_to 3259
  148.3373  134.0216  155.8179 LP  0  0  0  0  0  0  0  0  0  0  0  0  # atno 14415 bound_to 4679
  148.9709  135.3026  155.0277 LP  0  0  0  0  0  0  0  0  0  0  0  0  # atno 14416 bound_to 4679
  129.0353  116.0888  144.6876 LP  0  0  0  0  0  0  0  0  0  0  0  0  # atno 14432 bound_to 2733
  130.1762  116.2154  143.5262 LP  0  0  0  0  0  0  0  0  0  0  0  0  # atno 14433 bound_to 2733
  114.8124  117.3542  167.1710 LP  0  0  0  0  0  0  0  0  0  0  0  0  # atno 14440 bound_to 3927
  116.1721  113.0576  167.2071 LP  0  0  0  0  0  0  0  0  0  0  0  0  # atno 14441 bound_to 3930
  116.4390  112.9729  165.4978 LP  0  0  0  0  0  0  0  0  0  0  0  0  # atno 14442 bound_to 3930
  137.7671  116.4006  145.2320 LP  0  0  0  0  0  0  0  0  0  0  0  0  # atno 14465 bound_to 2765
  136.3647  115.5862  145.4236 LP  0  0  0  0  0  0  0  0  0  0  0  0  # atno 14466 bound_to 2765
  119.4605  114.1858  166.9441 LP  0  0  0  0  0  0  0  0  0  0  0  0  # atno 14472 bound_to 3972
  120.2426  110.0314  167.9434 LP  0  0  0  0  0  0  0  0  0  0  0  0  # atno 14473 bound_to 3975
  120.1930  111.1577  166.6285 LP  0  0  0  0  0  0  0  0  0  0  0  0  # atno 14474 bound_to 3975
  144.7900  144.8868  167.6022 LP  0  0  0  0  0  0  0  0  0  0  0  0  # atno 14479 bound_to 4748
  143.4081  144.3474  168.2848 LP  0  0  0  0  0  0  0  0  0  0  0  0  # atno 14480 bound_to 4748
  131.6175  157.6547  180.7225 LP  0  0  0  0  0  0  0  0  0  0  0  0  # atno 14485 bound_to 1170
  127.3571  154.5345  181.4695 LP  0  0  0  0  0  0  0  0  0  0  0  0  # atno 14486 bound_to 1173
  127.9591  155.5671  182.7231 LP  0  0  0  0  0  0  0  0  0  0  0  0  # atno 14487 bound_to 1173
  130.9085  143.2482  184.0738 LP  0  0  0  0  0  0  0  0  0  0  0  0  # atno 14496 bound_to 862 
  129.9244  140.8089  182.4106 LP  0  0  0  0  0  0  0  0  0  0  0  0  # atno 14497 bound_to 865 
  129.0219  141.8297  181.3414 LP  0  0  0  0  0  0  0  0  0  0  0  0  # atno 14498 bound_to 865 
  138.5123  136.3664  164.5752 LP  0  0  0  0  0  0  0  0  0  0  0  0  # atno 14501 bound_to 4013
  137.2211  136.5274  163.5886 LP  0  0  0  0  0  0  0  0  0  0  0  0  # atno 14502 bound_to 4013
  143.5139  126.0233  147.7552 LP  0  0  0  0  0  0  0  0  0  0  0  0  # atno 14519 bound_to 1222
  144.8369  125.9372  148.7085 LP  0  0  0  0  0  0  0  0  0  0  0  0  # atno 14520 bound_to 1222
  130.1680  114.2890  180.4302 LP  0  0  0  0  0  0  0  0  0  0  0  0  # atno 14523 bound_to 225 
  133.5421  113.7594  180.6122 LP  0  0  0  0  0  0  0  0  0  0  0  0  # atno 14524 bound_to 228 
  133.5697  112.0310  180.5035 LP  0  0  0  0  0  0  0  0  0  0  0  0  # atno 14525 bound_to 228 

> <Gold.Score>
     Fitness  S(hb_ext) S(vdw_ext)  S(hb_int)    S(int)      intcor
     36.14       4.39      25.22       0.00      -2.92      -0.76

> <Gold.Goldscore.Fitness>
36.1413

> <Gold.Goldscore.Internal.Vdw>
-2.9963

> <Gold.Goldscore.Internal.Torsion>
-0.6867

> <Gold.Goldscore.External.Vdw>
25.2192

> <Gold.Goldscore.Internal.HBond>
0.0000

> <Gold.Goldscore.External.HBond>
4.3893

> <Gold.Goldscore.Internal.Correction>
-0.7585

> <Gold.Goldscore.Hbonds>
donor molecule, donor type, donor heavy atom, donor atom, acceptor molecule, acceptor atom, score
      P1  H  4748  4755       L1    17  1.00
      P1  H  4756  4762       L1    17  0.90
      L1  H    10    23       P1  4036  0.29

> <Gold.Goldscore.Internal.Vdw.Weighted>
-2.9963

> <Gold.Goldscore.Internal.Torsion.Weighted>
-0.6867

> <Gold.Goldscore.External.Vdw.Weighted>
34.6764

> <Gold.Goldscore.Internal.HBond.Weighted>
0.0000

> <Gold.Goldscore.External.HBond.Weighted>
4.3893

> <Gold.Goldscore.Internal.Correction.Weighted>
-0.7585

> <Gold.Rescore>
     Score     S(PLP)   S(hbond)     S(cho)   S(metal)  DE(clash)   DE(tors)     intcor
     30.64     -26.57       2.00       0.00       0.00       0.24       0.84       ----

> <Gold.PLP.Fitness>
30.6424

> <Gold.PLP.PLP>
-26.5722

> <Gold.PLP.part.hbond>
-2.6471

> <Gold.PLP.part.metal>
0.0000

> <Gold.PLP.part.buried>
-0.4090

> <Gold.PLP.part.nonpolar>
-24.1651

> <Gold.PLP.part.repulsive>
0.7376

> <Gold.PLP.ligand.clash>
0.2434

> <Gold.PLP.ligand.torsion>
0.8432

> <Gold.PLP.Chemscore.Hbond>
2.0000

> <Gold.PLP.Chemscore.CHOScore>
0.0000

> <Gold.PLP.Chemscore.Metal>
0.0000

> <Gold.Chemscore.Hbonds>
donor molecule, donor type, donor heavy atom, donor atom, acceptor molecule, acceptor atom, score
      P1  H  4748  4755       L1    17  1.00
      P1  H  4756  4762       L1    17  1.00

> <Gold.PLP.Chemscore.Internal.Correction>
   9.000000E+99

#       Name:                CT1002167954
#       Creating user name   hitesit
#       Creation time:       Sun Apr 16 22:55:15 2023


#       File generated by GOLD software.
#

@<TRIPOS>MOLECULE
CT1002167954|ligand_prepared|mol2|1|dock4
    29    30     1
SMALL
NO_CHARGES


@<TRIPOS>ATOM
      1 C1         137.9638 143.4613 165.8041 C.3            1 RES1               0.0000
      2 C2         137.2739 142.2875 165.0796 C.ar           1 RES1               0.0000
      3 C3         137.0577 144.6742 165.6140 C.2            1 RES1               0.0000
      4 C4         138.1276 143.0288 167.2570 C.2            1 RES1               0.0000
      5 C5         139.3652 143.8028 165.2464 C.3            1 RES1               0.0000
      6 C6         136.0799 141.7602 165.5624 C.ar           1 RES1               0.0000
      7 C7         137.8169 141.7243 163.9279 C.ar           1 RES1               0.0000
      8 N8         136.3325 145.0959 166.6892 N.am           1 RES1               0.0000
      9 O9         136.9511 145.2280 164.5267 O.2            1 RES1               0.0000
     10 N10        137.4266 143.7146 168.2140 N.am           1 RES1               0.0000
     11 O11        138.8445 142.0896 167.5799 O.2            1 RES1               0.0000
     12 C12        140.1029 144.8629 166.0491 C.3            1 RES1               0.0000
     13 C13        135.4501 140.7098 164.9157 C.ar           1 RES1               0.0000
     14 C14        137.1855 140.6737 163.2828 C.ar           1 RES1               0.0000
     15 C15        136.5128 144.7088 167.9928 C.2            1 RES1               0.0000
     16 C16        136.0021 140.1662 163.7754 C.ar           1 RES1               0.0000
     17 O17        135.8816 145.2406 168.9016 O.2            1 RES1               0.0000
     18 H18        139.9707 142.8883 165.2289 H              1 RES1               0.0000
     19 H19        139.2579 144.1539 164.2127 H              1 RES1               0.0000
     20 H20        135.6318 142.1734 166.4599 H              1 RES1               0.0000
     21 H21        138.7477 142.1067 163.5229 H              1 RES1               0.0000
     22 H22        135.5872 145.7605 166.5072 H              1 RES1               0.0000
     23 H23        137.6023 143.4606 169.1810 H              1 RES1               0.0000
     24 H24        141.0799 145.0648 165.6152 H              1 RES1               0.0000
     25 H25        139.5407 145.7943 166.0664 H              1 RES1               0.0000
     26 H26        140.2493 144.5363 167.0766 H              1 RES1               0.0000
     27 H27        134.5196 140.3130 165.3082 H              1 RES1               0.0000
     28 H28        137.6239 140.2486 162.3860 H              1 RES1               0.0000
     29 H29        135.5083 139.3436 163.2687 H              1 RES1               0.0000
@<TRIPOS>BOND
    1    1    2 1     
    2    1    3 1     
    3    1    4 1     
    4    1    5 1     
    5    2    6 ar    
    6    2    7 ar    
    7    3    8 1     
    8    3    9 2     
    9    4   10 1     
   10    4   11 2     
   11    5   12 1     
   12    5   18 1     
   13    5   19 1     
   14    6   13 ar    
   15    6   20 1     
   16    7   14 ar    
   17    7   21 1     
   18    8   15 1     
   19    8   22 1     
   20   10   15 1     
   21   10   23 1     
   22   12   24 1     
   23   12   25 1     
   24   12   26 1     
   25   13   16 ar    
   26   13   27 1     
   27   14   16 ar    
   28   14   28 1     
   29   15   17 2     
   30   16   29 1     
@<TRIPOS>SUBSTRUCTURE
      1 RES1           1
@<TRIPOS>SET
DONOR_HYDROGENS      STATIC     ATOMS    <user>   **** ""
2 22 23
ATOM$RED        STATIC     ATOMS    COLORGROUP SYSTEM
2 22 23
@<TRIPOS>COMMENT
> <Gold.Version>
2022.3.0

> <Gold.Id.Protein>
unknown|7rmi_cavity_clean|pdb

> <Gold.Protein.RotatedTorsions>
[  294  288  286  283 ] final   65.47 input   60.03 | X-H torsion
[  301  289  290  291 ] final  -52.69 input  115.34 | X-H torsion
[ 4333 4325 4326 4327 ] final -164.78 input   58.17 | X-H torsion
[  162  159  158  157 ] final   32.56 input   59.97 | X-H torsion
[  352  334  335  336 ] final   71.00 input   81.54 | X-H torsion
[ 1783 1767 1768 1769 ] final  -38.46 input  110.17 | X-H torsion
[  113  103  104  105 ] final -105.94 input  112.99 | X-H torsion
[   82   64   65   66 ] final   -2.72 input  112.25 | X-H torsion
[ 1807 1802 1800 1797 ] final   61.02 input   60.00 | X-H torsion
[  208  204  203  201 ] final   16.73 input   60.02 | X-H torsion
[ 1839 1834 1833 1830 ] final -161.96 input   59.99 | X-H torsion
[ 3268 3259 3258 3256 ] final  134.66 input   59.98 | X-H torsion
[ 4684 4679 4678 4675 ] final  152.95 input   59.98 | X-H torsion
[ 2741 2733 2732 2730 ] final -119.98 input   60.00 | X-H torsion
[ 3932 3927 3928 3929 ] final  140.24 input   88.25 | X-H torsion
[ 2774 2765 2764 2762 ] final  176.59 input   60.03 | X-H torsion
[ 3980 3972 3973 3974 ] final  -90.10 input   60.58 | X-H torsion
[ 4755 4748 4746 4743 ] final   75.26 input   60.02 | X-H torsion
[ 1184 1170 1171 1172 ] final  -53.23 input   67.97 | X-H torsion
[  880  862  863  864 ] final   39.72 input   59.67 | X-H torsion
[ 4018 4013 4012 4010 ] final -156.80 input   60.01 | X-H torsion
[ 8045 8035 8034 8033 ] final  -18.85 input   59.99 | X-H torsion
[ 1224 1222 1220 1217 ] final  117.17 input   59.96 | X-H torsion
[  249  225  226  227 ] final -134.54 input   51.53 | X-H torsion
[ 14304  292  291  290 ] final   68.40 input    0.00 | X-H torsion
[ 14309 4328 4327 4326 ] final  -42.69 input   -0.00 | X-H torsion
[ 14335  337  336  335 ] final   41.66 input   -0.00 | X-H torsion
[ 14354 1770 1769 1768 ] final -156.85 input   -0.00 | X-H torsion
[ 14365  106  105  104 ] final   58.35 input    0.00 | X-H torsion
[ 14370   67   66   65 ] final -169.50 input   -0.00 | X-H torsion
[ 14441 3930 3929 3928 ] final  125.77 input   -0.00 | X-H torsion
[ 14473 3975 3974 3973 ] final -110.87 input   -0.00 | X-H torsion
[ 14486 1173 1172 1171 ] final  124.20 input   -0.00 | X-H torsion
[ 14497  865  864  863 ] final -121.56 input   -0.00 | X-H torsion
[ 14524  228  227  226 ] final  172.62 input    0.00 | X-H torsion

> <Gold.Protein.ActiveResidues>
 GLU27   LEU30   GLN31   ASP33   LYS34   GLN35   VAL36   TYR37   ARG38   THR40  
 HIS41   ARG42   GLU209  HIS220  PHE222  GLN236  ASN239  ASP240  VAL241  THR242 
 ARG280  TRP281  LEU282  ARG283  THR284  ILE285  SER286  VAL287  ILE288  GLY355 
 ARG356  HIS357  TYR358  CYS359  TYR360  ASP381  ILE382  ILE383  GLN385  MET386 
 ASN387  LEU388  ARG389  GLU390  TYR391  VAL394  ALA56   LYS57   ILE58   TYR59  
 ALA60   MET61   LEU79   ILE80   ILE81   TRP82   ILE93   SER98   TRP99   VAL100 
 MET101  THR102  CYS103  GLY310  HIS311  ASP312  ASN313  TRP332  ASP333  SER334 
 PHE335  LYS337 

> <Gold.Protein.RotatedAtoms>
  113.9086  152.3691  180.4184 H   0  0  0  0  0  0  0  0  0  0  0  0  # atno 82   bound_to 64  
  108.5086  133.7908   98.0518 H   0  0  0  0  0  0  0  0  0  0  0  0  # atno 113  bound_to 103 
  145.1684  138.4481  141.5420 H   0  0  0  0  0  0  0  0  0  0  0  0  # atno 162  bound_to 159 
  143.8553  139.2065  142.2117 H   0  0  0  0  0  0  0  0  0  0  0  0  # atno 163  bound_to 159 
  144.4082  139.6696  140.7192 H   0  0  0  0  0  0  0  0  0  0  0  0  # atno 164  bound_to 159 
  144.7683  134.1911  151.1136 H   0  0  0  0  0  0  0  0  0  0  0  0  # atno 208  bound_to 204 
  129.7665  114.0015  180.4234 H   0  0  0  0  0  0  0  0  0  0  0  0  # atno 249  bound_to 225 
  152.7138  130.3664  146.0006 H   0  0  0  0  0  0  0  0  0  0  0  0  # atno 294  bound_to 288 
  115.1254  136.8342  110.0729 H   0  0  0  0  0  0  0  0  0  0  0  0  # atno 301  bound_to 289 
  115.1375  159.2266  159.1918 H   0  0  0  0  0  0  0  0  0  0  0  0  # atno 352  bound_to 334 
  130.8342  142.5402  184.0475 H   0  0  0  0  0  0  0  0  0  0  0  0  # atno 880  bound_to 862 
  131.3167  156.4858  179.9072 H   0  0  0  0  0  0  0  0  0  0  0  0  # atno 1184 bound_to 1170
  144.7712  126.0954  148.9984 H   0  0  0  0  0  0  0  0  0  0  0  0  # atno 1224 bound_to 1222
  125.4529  158.6553  169.8079 H   0  0  0  0  0  0  0  0  0  0  0  0  # atno 1783 bound_to 1767
  131.4339  127.6841  152.8654 H   0  0  0  0  0  0  0  0  0  0  0  0  # atno 1807 bound_to 1802
  137.8323  119.6392  149.0111 H   0  0  0  0  0  0  0  0  0  0  0  0  # atno 1839 bound_to 1834
  130.2697  116.5485  143.5016 H   0  0  0  0  0  0  0  0  0  0  0  0  # atno 2741 bound_to 2733
  137.9166  116.2824  145.0846 H   0  0  0  0  0  0  0  0  0  0  0  0  # atno 2774 bound_to 2765
  139.3491  129.8721  135.6643 H   0  0  0  0  0  0  0  0  0  0  0  0  # atno 3268 bound_to 3259
  114.1600  117.2335  167.2842 H   0  0  0  0  0  0  0  0  0  0  0  0  # atno 3932 bound_to 3927
  119.4484  114.2534  167.0116 H   0  0  0  0  0  0  0  0  0  0  0  0  # atno 3980 bound_to 3972
  137.7056  137.5689  164.8963 H   0  0  0  0  0  0  0  0  0  0  0  0  # atno 4018 bound_to 4013
  116.2662  120.9126  180.8432 H   0  0  0  0  0  0  0  0  0  0  0  0  # atno 4333 bound_to 4325
  148.8633  134.5064  155.0225 H   0  0  0  0  0  0  0  0  0  0  0  0  # atno 4684 bound_to 4679
  142.9543  144.6161  167.3512 H   0  0  0  0  0  0  0  0  0  0  0  0  # atno 4755 bound_to 4748
  133.3003  147.6807  149.4294 H   0  0  0  0  0  0  0  0  0  0  0  0  # atno 8045 bound_to 8035
  132.1607  146.7415  148.6769 H   0  0  0  0  0  0  0  0  0  0  0  0  # atno 8046 bound_to 8035
  133.0691  147.8101  147.7928 H   0  0  0  0  0  0  0  0  0  0  0  0  # atno 8047 bound_to 8035
  153.2848  128.8829  146.3485 LP  0  0  0  0  0  0  0  0  0  0  0  0  # atno 14301 bound_to 288 
  153.5028  130.1124  147.4009 LP  0  0  0  0  0  0  0  0  0  0  0  0  # atno 14302 bound_to 288 
  113.6962  137.1737  109.1277 LP  0  0  0  0  0  0  0  0  0  0  0  0  # atno 14303 bound_to 289 
  113.4066  138.2368  113.9135 LP  0  0  0  0  0  0  0  0  0  0  0  0  # atno 14304 bound_to 292 
  114.8378  137.2617  113.8868 LP  0  0  0  0  0  0  0  0  0  0  0  0  # atno 14305 bound_to 292 
  116.4837  119.9620  182.3002 LP  0  0  0  0  0  0  0  0  0  0  0  0  # atno 14308 bound_to 4325
  118.2138  118.1587  182.6995 LP  0  0  0  0  0  0  0  0  0  0  0  0  # atno 14309 bound_to 4328
  116.8622  117.1938  183.1916 LP  0  0  0  0  0  0  0  0  0  0  0  0  # atno 14310 bound_to 4328
  115.2511  158.0550  160.4853 LP  0  0  0  0  0  0  0  0  0  0  0  0  # atno 14334 bound_to 334 
  117.1896  159.9287  158.4835 LP  0  0  0  0  0  0  0  0  0  0  0  0  # atno 14335 bound_to 337 
  118.4290  159.4410  157.3762 LP  0  0  0  0  0  0  0  0  0  0  0  0  # atno 14336 bound_to 337 
  125.0955  160.3616  169.7030 LP  0  0  0  0  0  0  0  0  0  0  0  0  # atno 14353 bound_to 1767
  122.6467  156.0658  168.2839 LP  0  0  0  0  0  0  0  0  0  0  0  0  # atno 14354 bound_to 1770
  121.6808  157.1782  169.1948 LP  0  0  0  0  0  0  0  0  0  0  0  0  # atno 14355 bound_to 1770
  109.1979  134.9976   96.9939 LP  0  0  0  0  0  0  0  0  0  0  0  0  # atno 14364 bound_to 103 
  112.7148  134.1232   99.9581 LP  0  0  0  0  0  0  0  0  0  0  0  0  # atno 14365 bound_to 106 
  111.5830  134.9383  100.9850 LP  0  0  0  0  0  0  0  0  0  0  0  0  # atno 14366 bound_to 106 
  115.4261  151.9151  181.1527 LP  0  0  0  0  0  0  0  0  0  0  0  0  # atno 14369 bound_to 64  
  113.9139  156.0284  178.3206 LP  0  0  0  0  0  0  0  0  0  0  0  0  # atno 14370 bound_to 67  
  115.3988  156.0569  179.2119 LP  0  0  0  0  0  0  0  0  0  0  0  0  # atno 14371 bound_to 67  
  130.8610  127.4402  151.3616 LP  0  0  0  0  0  0  0  0  0  0  0  0  # atno 14376 bound_to 1802
  131.8245  128.7212  151.6733 LP  0  0  0  0  0  0  0  0  0  0  0  0  # atno 14377 bound_to 1802
  144.2264  133.2656  149.8892 LP  0  0  0  0  0  0  0  0  0  0  0  0  # atno 14384 bound_to 204 
  143.7622  134.8271  150.0034 LP  0  0  0  0  0  0  0  0  0  0  0  0  # atno 14385 bound_to 204 
  138.5831  119.1397  150.3657 LP  0  0  0  0  0  0  0  0  0  0  0  0  # atno 14407 bound_to 1834
  138.2208  120.7193  150.1646 LP  0  0  0  0  0  0  0  0  0  0  0  0  # atno 14408 bound_to 1834
  138.7938  131.1939  134.8948 LP  0  0  0  0  0  0  0  0  0  0  0  0  # atno 14411 bound_to 3259
  139.5860  130.0335  134.0625 LP  0  0  0  0  0  0  0  0  0  0  0  0  # atno 14412 bound_to 3259
  148.5868  135.8841  155.8439 LP  0  0  0  0  0  0  0  0  0  0  0  0  # atno 14415 bound_to 4679
  148.0488  134.4584  156.4309 LP  0  0  0  0  0  0  0  0  0  0  0  0  # atno 14416 bound_to 4679
  129.4339  117.4574  144.5613 LP  0  0  0  0  0  0  0  0  0  0  0  0  # atno 14432 bound_to 2733
  129.1804  115.8460  144.4852 LP  0  0  0  0  0  0  0  0  0  0  0  0  # atno 14433 bound_to 2733
  115.2548  116.2939  168.2726 LP  0  0  0  0  0  0  0  0  0  0  0  0  # atno 14440 bound_to 3927
  116.6723  113.0078  165.5679 LP  0  0  0  0  0  0  0  0  0  0  0  0  # atno 14441 bound_to 3930
  115.9389  113.0227  167.1369 LP  0  0  0  0  0  0  0  0  0  0  0  0  # atno 14442 bound_to 3930
  136.4274  115.7963  145.5253 LP  0  0  0  0  0  0  0  0  0  0  0  0  # atno 14465 bound_to 2765
  137.3158  114.8876  144.4999 LP  0  0  0  0  0  0  0  0  0  0  0  0  # atno 14466 bound_to 2765
  118.2023  113.0213  167.0048 LP  0  0  0  0  0  0  0  0  0  0  0  0  # atno 14472 bound_to 3972
  120.2362  110.0323  167.9444 LP  0  0  0  0  0  0  0  0  0  0  0  0  # atno 14473 bound_to 3975
  120.1994  111.1568  166.6275 LP  0  0  0  0  0  0  0  0  0  0  0  0  # atno 14474 bound_to 3975
  144.4463  145.0880  166.9047 LP  0  0  0  0  0  0  0  0  0  0  0  0  # atno 14479 bound_to 4748
  144.1956  144.4629  168.3923 LP  0  0  0  0  0  0  0  0  0  0  0  0  # atno 14480 bound_to 4748
  130.8576  158.1117  180.3669 LP  0  0  0  0  0  0  0  0  0  0  0  0  # atno 14485 bound_to 1170
  127.0993  155.2564  181.4674 LP  0  0  0  0  0  0  0  0  0  0  0  0  # atno 14486 bound_to 1173
  128.2169  154.8452  182.7252 LP  0  0  0  0  0  0  0  0  0  0  0  0  # atno 14487 bound_to 1173
  130.2541  143.3294  185.4998 LP  0  0  0  0  0  0  0  0  0  0  0  0  # atno 14496 bound_to 862 
  128.7883  141.3371  181.3461 LP  0  0  0  0  0  0  0  0  0  0  0  0  # atno 14497 bound_to 865 
  130.1579  141.3015  182.4059 LP  0  0  0  0  0  0  0  0  0  0  0  0  # atno 14498 bound_to 865 
  138.4408  136.2118  164.3811 LP  0  0  0  0  0  0  0  0  0  0  0  0  # atno 14501 bound_to 4013
  137.0809  136.7368  163.6452 LP  0  0  0  0  0  0  0  0  0  0  0  0  # atno 14502 bound_to 4013
  143.2606  126.7013  148.9974 LP  0  0  0  0  0  0  0  0  0  0  0  0  # atno 14519 bound_to 1222
  143.8138  125.8779  147.7003 LP  0  0  0  0  0  0  0  0  0  0  0  0  # atno 14520 bound_to 1222
  131.0720  113.1907  179.5877 LP  0  0  0  0  0  0  0  0  0  0  0  0  # atno 14523 bound_to 225 
  134.2090  113.0201  181.1127 LP  0  0  0  0  0  0  0  0  0  0  0  0  # atno 14524 bound_to 228 
  132.9028  112.7703  180.0030 LP  0  0  0  0  0  0  0  0  0  0  0  0  # atno 14525 bound_to 228 

> <Gold.Score>
     Fitness  S(hb_ext) S(vdw_ext)  S(hb_int)    S(int)      intcor
     36.09       0.00      26.27       0.00      -0.04      -0.76

> <Gold.Goldscore.Fitness>
36.0864

> <Gold.Goldscore.Internal.Vdw>
-0.3786

> <Gold.Goldscore.Internal.Torsion>
-0.4210

> <Gold.Goldscore.External.Vdw>
26.2745

> <Gold.Goldscore.Internal.HBond>
0.0000

> <Gold.Goldscore.External.HBond>
0.0000

> <Gold.Goldscore.Internal.Correction>
-0.7585

> <Gold.Goldscore.Internal.Vdw.Weighted>
-0.3786

> <Gold.Goldscore.Internal.Torsion.Weighted>
-0.4210

> <Gold.Goldscore.External.Vdw.Weighted>
36.1275

> <Gold.Goldscore.Internal.HBond.Weighted>
0.0000

> <Gold.Goldscore.External.HBond.Weighted>
0.0000

> <Gold.Goldscore.Internal.Correction.Weighted>
-0.7585

> <Gold.Rescore>
     Score     S(PLP)   S(hbond)     S(cho)   S(metal)  DE(clash)   DE(tors)     intcor
     21.76     -22.34       0.00       0.00       0.00       0.00       0.29       ----

> <Gold.PLP.Fitness>
21.7552

> <Gold.PLP.PLP>
-22.3366

> <Gold.PLP.part.hbond>
-1.0000

> <Gold.PLP.part.metal>
0.0000

> <Gold.PLP.part.buried>
-0.4316

> <Gold.PLP.part.nonpolar>
-22.4044

> <Gold.PLP.part.repulsive>
1.4399

> <Gold.PLP.ligand.clash>
0.0000

> <Gold.PLP.ligand.torsion>
0.2907

> <Gold.PLP.Chemscore.Hbond>
0.0000

> <Gold.PLP.Chemscore.CHOScore>
0.0000

> <Gold.PLP.Chemscore.Metal>
0.0000

> <Gold.PLP.Chemscore.Internal.Correction>
   9.000000E+99

#       Name:                CT1002167954
#       Creating user name   hitesit
#       Creation time:       Sun Apr 16 22:54:47 2023


#       File generated by GOLD software.
#

@<TRIPOS>MOLECULE
CT1002167954|ligand_prepared|mol2|1|dock2
    29    30     1
SMALL
NO_CHARGES


@<TRIPOS>ATOM
      1 C1         142.4207 128.8606 146.2783 C.3            1 RES1               0.0000
      2 C2         141.4402 127.8202 146.8571 C.ar           1 RES1               0.0000
      3 C3         141.7056 130.2068 146.3451 C.2            1 RES1               0.0000
      4 C4         143.6802 128.7820 147.1339 C.2            1 RES1               0.0000
      5 C5         142.8231 128.5905 144.8097 C.3            1 RES1               0.0000
      6 C6         140.7589 128.0722 148.0442 C.ar           1 RES1               0.0000
      7 C7         141.2049 126.6073 146.2151 C.ar           1 RES1               0.0000
      8 N8         142.1156 131.0935 147.2967 N.am           1 RES1               0.0000
      9 O9         140.7699 130.4711 145.6001 O.2            1 RES1               0.0000
     10 N10        144.0078 129.8727 147.8960 N.am           1 RES1               0.0000
     11 O11        144.3828 127.7793 147.1677 O.2            1 RES1               0.0000
     12 C12        143.6541 129.7016 144.1875 C.3            1 RES1               0.0000
     13 C13        139.8724 127.1465 148.5690 C.ar           1 RES1               0.0000
     14 C14        140.3181 125.6828 146.7418 C.ar           1 RES1               0.0000
     15 C15        143.2659 131.0134 148.0397 C.2            1 RES1               0.0000
     16 C16        139.6510 125.9515 147.9180 C.ar           1 RES1               0.0000
     17 O17        143.5993 131.9290 148.7865 O.2            1 RES1               0.0000
     18 H18        143.3949 127.6554 144.7665 H              1 RES1               0.0000
     19 H19        141.9125 128.4545 144.2133 H              1 RES1               0.0000
     20 H20        140.9221 129.0060 148.5718 H              1 RES1               0.0000
     21 H21        141.7193 126.3740 145.2890 H              1 RES1               0.0000
     22 H22        141.5110 131.8898 147.4721 H              1 RES1               0.0000
     23 H23        144.8861 129.8304 148.4030 H              1 RES1               0.0000
     24 H24        143.9092 129.4617 143.1574 H              1 RES1               0.0000
     25 H25        143.1060 130.6414 144.1908 H              1 RES1               0.0000
     26 H26        144.5797 129.8470 144.7408 H              1 RES1               0.0000
     27 H27        139.3509 127.3621 149.4957 H              1 RES1               0.0000
     28 H28        140.1474 124.7434 146.2264 H              1 RES1               0.0000
     29 H29        138.9562 125.2267 148.3292 H              1 RES1               0.0000
@<TRIPOS>BOND
    1    1    2 1     
    2    1    3 1     
    3    1    4 1     
    4    1    5 1     
    5    2    6 ar    
    6    2    7 ar    
    7    3    8 1     
    8    3    9 2     
    9    4   10 1     
   10    4   11 2     
   11    5   12 1     
   12    5   18 1     
   13    5   19 1     
   14    6   13 ar    
   15    6   20 1     
   16    7   14 ar    
   17    7   21 1     
   18    8   15 1     
   19    8   22 1     
   20   10   15 1     
   21   10   23 1     
   22   12   24 1     
   23   12   25 1     
   24   12   26 1     
   25   13   16 ar    
   26   13   27 1     
   27   14   16 ar    
   28   14   28 1     
   29   15   17 2     
   30   16   29 1     
@<TRIPOS>SUBSTRUCTURE
      1 RES1           1
@<TRIPOS>SET
DONOR_HYDROGENS      STATIC     ATOMS    <user>   **** ""
2 22 23
ATOM$RED        STATIC     ATOMS    COLORGROUP SYSTEM
2 22 23
@<TRIPOS>COMMENT
> <Gold.Version>
2022.3.0

> <Gold.Id.Protein>
unknown|7rmi_cavity_clean|pdb

> <Gold.Protein.RotatedTorsions>
[  294  288  286  283 ] final -170.14 input   60.03 | X-H torsion
[  301  289  290  291 ] final  107.51 input  115.34 | X-H torsion
[ 4333 4325 4326 4327 ] final  -87.79 input   58.17 | X-H torsion
[  162  159  158  157 ] final -122.62 input   59.97 | X-H torsion
[  352  334  335  336 ] final  165.01 input   81.54 | X-H torsion
[ 1783 1767 1768 1769 ] final   13.40 input  110.17 | X-H torsion
[  113  103  104  105 ] final   25.79 input  112.99 | X-H torsion
[   82   64   65   66 ] final   48.91 input  112.25 | X-H torsion
[ 1807 1802 1800 1797 ] final -138.78 input   60.00 | X-H torsion
[  208  204  203  201 ] final -119.82 input   60.02 | X-H torsion
[ 1839 1834 1833 1830 ] final  -90.28 input   59.99 | X-H torsion
[ 3268 3259 3258 3256 ] final   13.76 input   59.98 | X-H torsion
[ 4684 4679 4678 4675 ] final  104.79 input   59.98 | X-H torsion
[ 2741 2733 2732 2730 ] final  -62.35 input   60.00 | X-H torsion
[ 3932 3927 3928 3929 ] final   29.34 input   88.25 | X-H torsion
[ 2774 2765 2764 2762 ] final  -75.67 input   60.03 | X-H torsion
[ 3980 3972 3973 3974 ] final  -17.10 input   60.58 | X-H torsion
[ 4755 4748 4746 4743 ] final -133.28 input   60.02 | X-H torsion
[ 1184 1170 1171 1172 ] final  120.69 input   67.97 | X-H torsion
[  880  862  863  864 ] final -100.01 input   59.67 | X-H torsion
[ 4018 4013 4012 4010 ] final  -45.86 input   60.01 | X-H torsion
[ 8045 8035 8034 8033 ] final  119.82 input   59.99 | X-H torsion
[ 1224 1222 1220 1217 ] final  -21.36 input   59.96 | X-H torsion
[  249  225  226  227 ] final  117.01 input   51.53 | X-H torsion
[ 14304  292  291  290 ] final -142.64 input    0.00 | X-H torsion
[ 14309 4328 4327 4326 ] final  126.25 input   -0.00 | X-H torsion
[ 14335  337  336  335 ] final -160.41 input   -0.00 | X-H torsion
[ 14354 1770 1769 1768 ] final  -82.20 input   -0.00 | X-H torsion
[ 14365  106  105  104 ] final   69.35 input    0.00 | X-H torsion
[ 14370   67   66   65 ] final  -29.81 input   -0.00 | X-H torsion
[ 14441 3930 3929 3928 ] final -122.54 input   -0.00 | X-H torsion
[ 14473 3975 3974 3973 ] final   80.54 input   -0.00 | X-H torsion
[ 14486 1173 1172 1171 ] final  105.87 input   -0.00 | X-H torsion
[ 14497  865  864  863 ] final   47.86 input   -0.00 | X-H torsion
[ 14524  228  227  226 ] final  149.87 input    0.00 | X-H torsion

> <Gold.Protein.ActiveResidues>
 GLU27   LEU30   GLN31   ASP33   LYS34   GLN35   VAL36   TYR37   ARG38   THR40  
 HIS41   ARG42   GLU209  HIS220  PHE222  GLN236  ASN239  ASP240  VAL241  THR242 
 ARG280  TRP281  LEU282  ARG283  THR284  ILE285  SER286  VAL287  ILE288  GLY355 
 ARG356  HIS357  TYR358  CYS359  TYR360  ASP381  ILE382  ILE383  GLN385  MET386 
 ASN387  LEU388  ARG389  GLU390  TYR391  VAL394  ALA56   LYS57   ILE58   TYR59  
 ALA60   MET61   LEU79   ILE80   ILE81   TRP82   ILE93   SER98   TRP99   VAL100 
 MET101  THR102  CYS103  GLY310  HIS311  ASP312  ASN313  TRP332  ASP333  SER334 
 PHE335  LYS337 

> <Gold.Protein.RotatedAtoms>
  114.3217  151.8482  180.0364 H   0  0  0  0  0  0  0  0  0  0  0  0  # atno 82   bound_to 64  
  109.0401  135.2540   97.6417 H   0  0  0  0  0  0  0  0  0  0  0  0  # atno 113  bound_to 103 
  143.9833  139.8189  141.0828 H   0  0  0  0  0  0  0  0  0  0  0  0  # atno 162  bound_to 159 
  145.2261  138.7229  141.0366 H   0  0  0  0  0  0  0  0  0  0  0  0  # atno 163  bound_to 159 
  144.2218  138.7825  142.3540 H   0  0  0  0  0  0  0  0  0  0  0  0  # atno 164  bound_to 159 
  144.0647  133.4097  149.7270 H   0  0  0  0  0  0  0  0  0  0  0  0  # atno 208  bound_to 204 
  130.1289  112.8106  179.6986 H   0  0  0  0  0  0  0  0  0  0  0  0  # atno 249  bound_to 225 
  153.5228  130.0434  147.4090 H   0  0  0  0  0  0  0  0  0  0  0  0  # atno 294  bound_to 288 
  113.6015  136.9112  109.2399 H   0  0  0  0  0  0  0  0  0  0  0  0  # atno 301  bound_to 289 
  114.4534  158.2069  159.6116 H   0  0  0  0  0  0  0  0  0  0  0  0  # atno 352  bound_to 334 
  130.1482  142.7378  185.5624 H   0  0  0  0  0  0  0  0  0  0  0  0  # atno 880  bound_to 862 
  130.7663  158.1227  180.3290 H   0  0  0  0  0  0  0  0  0  0  0  0  # atno 1184 bound_to 1170
  143.1243  126.6319  148.7363 H   0  0  0  0  0  0  0  0  0  0  0  0  # atno 1224 bound_to 1222
  125.5425  158.9764  169.1125 H   0  0  0  0  0  0  0  0  0  0  0  0  # atno 1783 bound_to 1767
  131.5054  128.4437  151.1852 H   0  0  0  0  0  0  0  0  0  0  0  0  # atno 1807 bound_to 1802
  137.8938  120.6311  149.4742 H   0  0  0  0  0  0  0  0  0  0  0  0  # atno 1839 bound_to 1834
  129.8500  115.8002  143.7807 H   0  0  0  0  0  0  0  0  0  0  0  0  # atno 2741 bound_to 2733
  137.4958  114.9690  144.4638 H   0  0  0  0  0  0  0  0  0  0  0  0  # atno 2774 bound_to 2765
  138.7967  131.1882  134.8796 H   0  0  0  0  0  0  0  0  0  0  0  0  # atno 3268 bound_to 3259
  115.5590  116.9369  167.5810 H   0  0  0  0  0  0  0  0  0  0  0  0  # atno 3932 bound_to 3927
  119.5231  113.2811  166.5886 H   0  0  0  0  0  0  0  0  0  0  0  0  # atno 3980 bound_to 3972
  137.0283  136.8628  163.7041 H   0  0  0  0  0  0  0  0  0  0  0  0  # atno 4018 bound_to 4013
  115.5345  120.2415  181.3490 H   0  0  0  0  0  0  0  0  0  0  0  0  # atno 4333 bound_to 4325
  148.9727  135.2628  155.0188 H   0  0  0  0  0  0  0  0  0  0  0  0  # atno 4684 bound_to 4679
  144.5934  144.6421  168.1294 H   0  0  0  0  0  0  0  0  0  0  0  0  # atno 4755 bound_to 4748
  132.1533  146.8008  148.3723 H   0  0  0  0  0  0  0  0  0  0  0  0  # atno 8045 bound_to 8035
  133.2678  147.9619  147.9764 H   0  0  0  0  0  0  0  0  0  0  0  0  # atno 8046 bound_to 8035
  133.1084  147.4688  149.5513 H   0  0  0  0  0  0  0  0  0  0  0  0  # atno 8047 bound_to 8035
  152.7233  130.4237  146.0437 LP  0  0  0  0  0  0  0  0  0  0  0  0  # atno 14301 bound_to 288 
  153.2494  128.8971  146.2870 LP  0  0  0  0  0  0  0  0  0  0  0  0  # atno 14302 bound_to 288 
  115.1892  137.0983  109.9438 LP  0  0  0  0  0  0  0  0  0  0  0  0  # atno 14303 bound_to 289 
  114.5178  137.0063  114.1037 LP  0  0  0  0  0  0  0  0  0  0  0  0  # atno 14304 bound_to 292 
  113.7266  138.4922  113.6965 LP  0  0  0  0  0  0  0  0  0  0  0  0  # atno 14305 bound_to 292 
  117.1850  120.6052  181.8154 LP  0  0  0  0  0  0  0  0  0  0  0  0  # atno 14308 bound_to 4325
  116.7873  117.3407  183.2175 LP  0  0  0  0  0  0  0  0  0  0  0  0  # atno 14309 bound_to 4328
  118.2887  118.0117  182.6736 LP  0  0  0  0  0  0  0  0  0  0  0  0  # atno 14310 bound_to 4328
  115.9157  159.0455  160.0776 LP  0  0  0  0  0  0  0  0  0  0  0  0  # atno 14334 bound_to 334 
  118.6079  159.5035  157.6482 LP  0  0  0  0  0  0  0  0  0  0  0  0  # atno 14335 bound_to 337 
  117.0106  159.8662  158.2115 LP  0  0  0  0  0  0  0  0  0  0  0  0  # atno 14336 bound_to 337 
  125.0077  160.0467  170.3849 LP  0  0  0  0  0  0  0  0  0  0  0  0  # atno 14353 bound_to 1767
  122.7136  156.2743  169.3110 LP  0  0  0  0  0  0  0  0  0  0  0  0  # atno 14354 bound_to 1770
  121.6139  156.9697  168.1677 LP  0  0  0  0  0  0  0  0  0  0  0  0  # atno 14355 bound_to 1770
  108.6770  133.5633   97.3959 LP  0  0  0  0  0  0  0  0  0  0  0  0  # atno 14364 bound_to 103 
  112.7924  134.2698   99.9541 LP  0  0  0  0  0  0  0  0  0  0  0  0  # atno 14365 bound_to 106 
  111.5054  134.7917  100.9891 LP  0  0  0  0  0  0  0  0  0  0  0  0  # atno 14366 bound_to 106 
  115.0199  152.4271  181.5282 LP  0  0  0  0  0  0  0  0  0  0  0  0  # atno 14369 bound_to 64  
  114.9344  156.0934  179.5848 LP  0  0  0  0  0  0  0  0  0  0  0  0  # atno 14370 bound_to 67  
  114.3783  155.9919  177.9476 LP  0  0  0  0  0  0  0  0  0  0  0  0  # atno 14371 bound_to 67  
  131.7776  128.2233  152.7747 LP  0  0  0  0  0  0  0  0  0  0  0  0  # atno 14376 bound_to 1802
  130.8359  127.1734  151.9516 LP  0  0  0  0  0  0  0  0  0  0  0  0  # atno 14377 bound_to 1802
  143.8720  134.9489  150.2197 LP  0  0  0  0  0  0  0  0  0  0  0  0  # atno 14384 bound_to 204 
  144.8249  133.9303  151.0687 LP  0  0  0  0  0  0  0  0  0  0  0  0  # atno 14385 bound_to 204 
  138.1156  119.0223  149.3724 LP  0  0  0  0  0  0  0  0  0  0  0  0  # atno 14407 bound_to 1834
  138.6264  119.8380  150.6916 LP  0  0  0  0  0  0  0  0  0  0  0  0  # atno 14408 bound_to 1834
  139.5910  130.0217  134.0696 LP  0  0  0  0  0  0  0  0  0  0  0  0  # atno 14411 bound_to 3259
  139.3451  129.8806  135.6778 LP  0  0  0  0  0  0  0  0  0  0  0  0  # atno 14412 bound_to 3259
  148.2072  135.5532  156.4255 LP  0  0  0  0  0  0  0  0  0  0  0  0  # atno 14415 bound_to 4679
  148.3181  134.0279  155.8530 LP  0  0  0  0  0  0  0  0  0  0  0  0  # atno 14416 bound_to 4679
  130.0574  117.4096  143.9019 LP  0  0  0  0  0  0  0  0  0  0  0  0  # atno 14432 bound_to 2733
  128.9797  116.6476  144.8634 LP  0  0  0  0  0  0  0  0  0  0  0  0  # atno 14433 bound_to 2733
  113.8946  116.5823  167.9840 LP  0  0  0  0  0  0  0  0  0  0  0  0  # atno 14440 bound_to 3927
  116.8919  113.1341  166.9785 LP  0  0  0  0  0  0  0  0  0  0  0  0  # atno 14441 bound_to 3930
  115.7192  112.8964  165.7263 LP  0  0  0  0  0  0  0  0  0  0  0  0  # atno 14442 bound_to 3930
  137.7956  116.3850  145.2077 LP  0  0  0  0  0  0  0  0  0  0  0  0  # atno 14465 bound_to 2765
  136.3713  115.6214  145.4427 LP  0  0  0  0  0  0  0  0  0  0  0  0  # atno 14466 bound_to 2765
  118.1306  113.9558  167.4113 LP  0  0  0  0  0  0  0  0  0  0  0  0  # atno 14472 bound_to 3972
  120.3673  111.1211  166.6149 LP  0  0  0  0  0  0  0  0  0  0  0  0  # atno 14473 bound_to 3975
  120.0683  110.0680  167.9571 LP  0  0  0  0  0  0  0  0  0  0  0  0  # atno 14474 bound_to 3975
  143.0065  144.4440  167.8278 LP  0  0  0  0  0  0  0  0  0  0  0  0  # atno 14479 bound_to 4748
  143.9843  145.0806  166.6854 LP  0  0  0  0  0  0  0  0  0  0  0  0  # atno 14480 bound_to 4748
  131.3898  156.5289  179.9590 LP  0  0  0  0  0  0  0  0  0  0  0  0  # atno 14485 bound_to 1170
  127.1122  155.5001  181.5962 LP  0  0  0  0  0  0  0  0  0  0  0  0  # atno 14486 bound_to 1173
  128.2039  154.6015  182.5964 LP  0  0  0  0  0  0  0  0  0  0  0  0  # atno 14487 bound_to 1173
  130.9154  143.1389  184.0396 LP  0  0  0  0  0  0  0  0  0  0  0  0  # atno 14496 bound_to 862 
  130.1763  141.4541  182.3632 LP  0  0  0  0  0  0  0  0  0  0  0  0  # atno 14497 bound_to 865 
  128.7699  141.1845  181.3888 LP  0  0  0  0  0  0  0  0  0  0  0  0  # atno 14498 bound_to 865 
  137.8285  137.5163  164.9612 LP  0  0  0  0  0  0  0  0  0  0  0  0  # atno 14501 bound_to 4013
  138.3755  136.1437  164.2660 LP  0  0  0  0  0  0  0  0  0  0  0  0  # atno 14502 bound_to 4013
  144.0991  125.7849  147.7457 LP  0  0  0  0  0  0  0  0  0  0  0  0  # atno 14519 bound_to 1222
  144.6331  126.2542  149.2158 LP  0  0  0  0  0  0  0  0  0  0  0  0  # atno 14520 bound_to 1222
  130.7203  114.3465  180.2912 LP  0  0  0  0  0  0  0  0  0  0  0  0  # atno 14523 bound_to 225 
  134.1087  113.3412  181.0533 LP  0  0  0  0  0  0  0  0  0  0  0  0  # atno 14524 bound_to 228 
  133.0031  112.4492  180.0624 LP  0  0  0  0  0  0  0  0  0  0  0  0  # atno 14525 bound_to 228 

> <Gold.Score>
     Fitness  S(hb_ext) S(vdw_ext)  S(hb_int)    S(int)      intcor
     35.22       9.01      19.13       0.00      -0.09      -0.76

> <Gold.Goldscore.Fitness>
35.2204

> <Gold.Goldscore.Internal.Vdw>
-0.4090

> <Gold.Goldscore.Internal.Torsion>
-0.4462

> <Gold.Goldscore.External.Vdw>
19.1258

> <Gold.Goldscore.Internal.HBond>
0.0000

> <Gold.Goldscore.External.HBond>
9.0127

> <Gold.Goldscore.Internal.Correction>
-0.7650

> <Gold.Goldscore.Hbonds>
donor molecule, donor type, donor heavy atom, donor atom, acceptor molecule, acceptor atom, score
      P1  H   313   317       L1    11  0.52
      P1  H   332   340       L1    17  1.00
      P1  H   204   208       L1    17  1.00

> <Gold.Goldscore.Internal.Vdw.Weighted>
-0.4090

> <Gold.Goldscore.Internal.Torsion.Weighted>
-0.4462

> <Gold.Goldscore.External.Vdw.Weighted>
26.2980

> <Gold.Goldscore.Internal.HBond.Weighted>
0.0000

> <Gold.Goldscore.External.HBond.Weighted>
9.0127

> <Gold.Goldscore.Internal.Correction.Weighted>
-0.7650

> <Gold.Rescore>
     Score     S(PLP)   S(hbond)     S(cho)   S(metal)  DE(clash)   DE(tors)     intcor
     42.62     -31.82       3.69       0.00       0.00       0.00       0.13       ----

> <Gold.PLP.Fitness>
42.6233

> <Gold.PLP.PLP>
-31.8192

> <Gold.PLP.part.hbond>
-4.9100

> <Gold.PLP.part.metal>
0.0000

> <Gold.PLP.part.buried>
-4.6875

> <Gold.PLP.part.nonpolar>
-22.7942

> <Gold.PLP.part.repulsive>
0.2586

> <Gold.PLP.ligand.clash>
0.0000

> <Gold.PLP.ligand.torsion>
0.1345

> <Gold.PLP.Chemscore.Hbond>
3.6910

> <Gold.PLP.Chemscore.CHOScore>
0.0000

> <Gold.PLP.Chemscore.Metal>
0.0000

> <Gold.Chemscore.Hbonds>
donor molecule, donor type, donor heavy atom, donor atom, acceptor molecule, acceptor atom, score
      P1  H   313   317       L1    11  1.00
      P1  H   332   340       L1    17  1.00
      P1  H   204   208       L1    17  1.00

> <Gold.PLP.Chemscore.Internal.Correction>
   9.000000E+99

#       Name:                CT1002167954
#       Creating user name   hitesit
#       Creation time:       Sun Apr 16 22:55:40 2023


#       File generated by GOLD software.
#

@<TRIPOS>MOLECULE
CT1002167954|ligand_prepared|mol2|1|dock6
    29    30     1
SMALL
NO_CHARGES


@<TRIPOS>ATOM
      1 C1         143.3379 129.9578 146.5844 C.3            1 RES1               0.0000
      2 C2         142.5780 128.8361 145.8473 C.ar           1 RES1               0.0000
      3 C3         142.7938 129.9788 148.0098 C.2            1 RES1               0.0000
      4 C4         144.8180 129.6046 146.4886 C.2            1 RES1               0.0000
      5 C5         143.1400 131.3597 145.9624 C.3            1 RES1               0.0000
      6 C6         142.2006 127.6766 146.5180 C.ar           1 RES1               0.0000
      7 C7         142.2457 128.9474 144.4998 C.ar           1 RES1               0.0000
      8 N8         143.5906 129.4796 148.9977 N.am           1 RES1               0.0000
      9 O9         141.6672 130.3906 148.2578 O.2            1 RES1               0.0000
     10 N10        145.4813 129.2982 147.6479 N.am           1 RES1               0.0000
     11 O11        145.4118 129.5727 145.4178 O.2            1 RES1               0.0000
     12 C12        143.7015 132.4910 146.8092 C.3            1 RES1               0.0000
     13 C13        141.5132 126.6663 145.8661 C.ar           1 RES1               0.0000
     14 C14        141.5585 127.9357 143.8497 C.ar           1 RES1               0.0000
     15 C15        144.9274 129.1898 148.8943 C.2            1 RES1               0.0000
     16 C16        141.1913 126.7952 144.5318 C.ar           1 RES1               0.0000
     17 O17        145.5784 128.8561 149.8802 O.2            1 RES1               0.0000
     18 H18        143.6245 131.3811 144.9785 H              1 RES1               0.0000
     19 H19        142.0669 131.5308 145.8115 H              1 RES1               0.0000
     20 H20        142.4473 127.5563 147.5676 H              1 RES1               0.0000
     21 H21        142.5253 129.8352 143.9428 H              1 RES1               0.0000
     22 H22        143.1519 129.3057 149.8964 H              1 RES1               0.0000
     23 H23        146.4807 129.1360 147.5749 H              1 RES1               0.0000
     24 H24        143.5362 133.4523 146.3272 H              1 RES1               0.0000
     25 H25        143.2238 132.5152 147.7864 H              1 RES1               0.0000
     26 H26        144.7721 132.3664 146.9583 H              1 RES1               0.0000
     27 H27        141.2278 125.7701 146.4071 H              1 RES1               0.0000
     28 H28        141.3078 128.0412 142.7994 H              1 RES1               0.0000
     29 H29        140.6525 126.0037 144.0215 H              1 RES1               0.0000
@<TRIPOS>BOND
    1    1    2 1     
    2    1    3 1     
    3    1    4 1     
    4    1    5 1     
    5    2    6 ar    
    6    2    7 ar    
    7    3    8 1     
    8    3    9 2     
    9    4   10 1     
   10    4   11 2     
   11    5   12 1     
   12    5   18 1     
   13    5   19 1     
   14    6   13 ar    
   15    6   20 1     
   16    7   14 ar    
   17    7   21 1     
   18    8   15 1     
   19    8   22 1     
   20   10   15 1     
   21   10   23 1     
   22   12   24 1     
   23   12   25 1     
   24   12   26 1     
   25   13   16 ar    
   26   13   27 1     
   27   14   16 ar    
   28   14   28 1     
   29   15   17 2     
   30   16   29 1     
@<TRIPOS>SUBSTRUCTURE
      1 RES1           1
@<TRIPOS>SET
DONOR_HYDROGENS      STATIC     ATOMS    <user>   **** ""
2 22 23
ATOM$RED        STATIC     ATOMS    COLORGROUP SYSTEM
2 22 23
@<TRIPOS>COMMENT
> <Gold.Version>
2022.3.0

> <Gold.Id.Protein>
unknown|7rmi_cavity_clean|pdb

> <Gold.Protein.RotatedTorsions>
[  294  288  286  283 ] final  101.16 input   60.03 | X-H torsion
[  301  289  290  291 ] final   16.78 input  115.34 | X-H torsion
[ 4333 4325 4326 4327 ] final   99.27 input   58.17 | X-H torsion
[  162  159  158  157 ] final   -9.27 input   59.97 | X-H torsion
[  352  334  335  336 ] final  143.09 input   81.54 | X-H torsion
[ 1783 1767 1768 1769 ] final -162.76 input  110.17 | X-H torsion
[  113  103  104  105 ] final  153.59 input  112.99 | X-H torsion
[   82   64   65   66 ] final  -56.89 input  112.25 | X-H torsion
[ 1807 1802 1800 1797 ] final -121.49 input   60.00 | X-H torsion
[  208  204  203  201 ] final  -78.53 input   60.02 | X-H torsion
[ 1839 1834 1833 1830 ] final  -14.57 input   59.99 | X-H torsion
[ 3268 3259 3258 3256 ] final   -1.85 input   59.98 | X-H torsion
[ 4684 4679 4678 4675 ] final  116.19 input   59.98 | X-H torsion
[ 2741 2733 2732 2730 ] final -134.16 input   60.00 | X-H torsion
[ 3932 3927 3928 3929 ] final  -52.37 input   88.25 | X-H torsion
[ 2774 2765 2764 2762 ] final  135.91 input   60.03 | X-H torsion
[ 3980 3972 3973 3974 ] final  150.36 input   60.58 | X-H torsion
[ 4755 4748 4746 4743 ] final  179.77 input   60.02 | X-H torsion
[ 1184 1170 1171 1172 ] final   57.79 input   67.97 | X-H torsion
[  880  862  863  864 ] final  -85.46 input   59.67 | X-H torsion
[ 4018 4013 4012 4010 ] final  169.67 input   60.01 | X-H torsion
[ 8045 8035 8034 8033 ] final  -54.00 input   59.99 | X-H torsion
[ 1224 1222 1220 1217 ] final -150.17 input   59.96 | X-H torsion
[  249  225  226  227 ] final  -11.92 input   51.53 | X-H torsion
[ 14304  292  291  290 ] final  -12.34 input    0.00 | X-H torsion
[ 14309 4328 4327 4326 ] final  149.04 input   -0.00 | X-H torsion
[ 14335  337  336  335 ] final   10.97 input   -0.00 | X-H torsion
[ 14354 1770 1769 1768 ] final  -13.13 input   -0.00 | X-H torsion
[ 14365  106  105  104 ] final  -12.69 input    0.00 | X-H torsion
[ 14370   67   66   65 ] final -126.52 input   -0.00 | X-H torsion
[ 14441 3930 3929 3928 ] final -142.16 input   -0.00 | X-H torsion
[ 14473 3975 3974 3973 ] final  153.29 input   -0.00 | X-H torsion
[ 14486 1173 1172 1171 ] final  122.46 input   -0.00 | X-H torsion
[ 14497  865  864  863 ] final   58.09 input   -0.00 | X-H torsion
[ 14524  228  227  226 ] final -155.13 input    0.00 | X-H torsion

> <Gold.Protein.ActiveResidues>
 GLU27   LEU30   GLN31   ASP33   LYS34   GLN35   VAL36   TYR37   ARG38   THR40  
 HIS41   ARG42   GLU209  HIS220  PHE222  GLN236  ASN239  ASP240  VAL241  THR242 
 ARG280  TRP281  LEU282  ARG283  THR284  ILE285  SER286  VAL287  ILE288  GLY355 
 ARG356  HIS357  TYR358  CYS359  TYR360  ASP381  ILE382  ILE383  GLN385  MET386 
 ASN387  LEU388  ARG389  GLU390  TYR391  VAL394  ALA56   LYS57   ILE58   TYR59  
 ALA60   MET61   LEU79   ILE80   ILE81   TRP82   ILE93   SER98   TRP99   VAL100 
 MET101  THR102  CYS103  GLY310  HIS311  ASP312  ASN313  TRP332  ASP333  SER334 
 PHE335  LYS337 

> <Gold.Protein.RotatedAtoms>
  114.0979  152.7217  181.1132 H   0  0  0  0  0  0  0  0  0  0  0  0  # atno 82   bound_to 64  
  108.9834  133.9205   96.7883 H   0  0  0  0  0  0  0  0  0  0  0  0  # atno 113  bound_to 103 
  145.2049  138.7946  140.9543 H   0  0  0  0  0  0  0  0  0  0  0  0  # atno 162  bound_to 159 
  144.3066  138.7113  142.3450 H   0  0  0  0  0  0  0  0  0  0  0  0  # atno 163  bound_to 159 
  143.9201  139.8185  141.1735 H   0  0  0  0  0  0  0  0  0  0  0  0  # atno 164  bound_to 159 
  144.4726  133.1946  150.1998 H   0  0  0  0  0  0  0  0  0  0  0  0  # atno 208  bound_to 204 
  131.2446  113.9350  179.9375 H   0  0  0  0  0  0  0  0  0  0  0  0  # atno 249  bound_to 225 
  152.8714  130.6690  146.4618 H   0  0  0  0  0  0  0  0  0  0  0  0  # atno 294  bound_to 288 
  114.3180  136.2372  110.0204 H   0  0  0  0  0  0  0  0  0  0  0  0  # atno 301  bound_to 289 
  114.4647  158.4504  159.3785 H   0  0  0  0  0  0  0  0  0  0  0  0  # atno 352  bound_to 334 
  130.1674  142.5270  185.4836 H   0  0  0  0  0  0  0  0  0  0  0  0  # atno 880  bound_to 862 
  130.3461  157.5690  179.7129 H   0  0  0  0  0  0  0  0  0  0  0  0  # atno 1184 bound_to 1170
  144.2286  125.7575  147.8037 H   0  0  0  0  0  0  0  0  0  0  0  0  # atno 1224 bound_to 1222
  125.0051  160.0111  170.4344 H   0  0  0  0  0  0  0  0  0  0  0  0  # atno 1783 bound_to 1767
  131.3389  128.2422  151.0803 H   0  0  0  0  0  0  0  0  0  0  0  0  # atno 1807 bound_to 1802
  138.4154  120.4825  150.4872 H   0  0  0  0  0  0  0  0  0  0  0  0  # atno 1839 bound_to 1834
  130.2858  116.7769  143.5330 H   0  0  0  0  0  0  0  0  0  0  0  0  # atno 2741 bound_to 2733
  137.4168  116.4707  145.4565 H   0  0  0  0  0  0  0  0  0  0  0  0  # atno 2774 bound_to 2765
  138.8510  131.1796  134.6315 H   0  0  0  0  0  0  0  0  0  0  0  0  # atno 3268 bound_to 3259
  115.1059  116.1997  168.3536 H   0  0  0  0  0  0  0  0  0  0  0  0  # atno 3932 bound_to 3927
  118.0348  113.7839  167.4176 H   0  0  0  0  0  0  0  0  0  0  0  0  # atno 3980 bound_to 3972
  138.1425  137.2816  165.0314 H   0  0  0  0  0  0  0  0  0  0  0  0  # atno 4018 bound_to 4013
  117.2341  120.6520  181.7172 H   0  0  0  0  0  0  0  0  0  0  0  0  # atno 4333 bound_to 4325
  148.9760  135.0837  154.9687 H   0  0  0  0  0  0  0  0  0  0  0  0  # atno 4684 bound_to 4679
  143.9521  144.4005  168.4237 H   0  0  0  0  0  0  0  0  0  0  0  0  # atno 4755 bound_to 4748
  133.5189  147.9865  148.9904 H   0  0  0  0  0  0  0  0  0  0  0  0  # atno 8045 bound_to 8035
  132.3622  146.8205  149.2127 H   0  0  0  0  0  0  0  0  0  0  0  0  # atno 8046 bound_to 8035
  132.6488  147.4250  147.6957 H   0  0  0  0  0  0  0  0  0  0  0  0  # atno 8047 bound_to 8035
  152.9964  129.1401  145.9189 LP  0  0  0  0  0  0  0  0  0  0  0  0  # atno 14301 bound_to 288 
  153.6325  129.5504  147.3659 LP  0  0  0  0  0  0  0  0  0  0  0  0  # atno 14302 bound_to 288 
  114.4872  137.7586  109.1791 LP  0  0  0  0  0  0  0  0  0  0  0  0  # atno 14303 bound_to 289 
  114.4236  138.4503  113.4906 LP  0  0  0  0  0  0  0  0  0  0  0  0  # atno 14304 bound_to 292 
  113.8208  137.0482  114.3097 LP  0  0  0  0  0  0  0  0  0  0  0  0  # atno 14305 bound_to 292 
  115.5562  120.2118  181.4626 LP  0  0  0  0  0  0  0  0  0  0  0  0  # atno 14308 bound_to 4325
  116.9690  117.0576  183.1542 LP  0  0  0  0  0  0  0  0  0  0  0  0  # atno 14309 bound_to 4328
  118.1070  118.2948  182.7369 LP  0  0  0  0  0  0  0  0  0  0  0  0  # atno 14310 bound_to 4328
  115.9047  158.8089  160.3040 LP  0  0  0  0  0  0  0  0  0  0  0  0  # atno 14334 bound_to 334 
  116.9716  159.8339  158.0916 LP  0  0  0  0  0  0  0  0  0  0  0  0  # atno 14335 bound_to 337 
  118.6469  159.5358  157.7681 LP  0  0  0  0  0  0  0  0  0  0  0  0  # atno 14336 bound_to 337 
  125.5347  159.0320  169.0886 LP  0  0  0  0  0  0  0  0  0  0  0  0  # atno 14353 bound_to 1767
  122.0334  156.9473  169.5313 LP  0  0  0  0  0  0  0  0  0  0  0  0  # atno 14354 bound_to 1770
  122.2940  156.2967  167.9474 LP  0  0  0  0  0  0  0  0  0  0  0  0  # atno 14355 bound_to 1770
  108.7325  134.8704   98.2324 LP  0  0  0  0  0  0  0  0  0  0  0  0  # atno 14364 bound_to 103 
  111.8965  133.7084  100.3716 LP  0  0  0  0  0  0  0  0  0  0  0  0  # atno 14365 bound_to 106 
  112.4014  135.3531  100.5715 LP  0  0  0  0  0  0  0  0  0  0  0  0  # atno 14366 bound_to 106 
  115.2399  151.5685  180.4697 LP  0  0  0  0  0  0  0  0  0  0  0  0  # atno 14369 bound_to 64  
  113.8095  156.0744  178.9449 LP  0  0  0  0  0  0  0  0  0  0  0  0  # atno 14370 bound_to 67  
  115.5031  156.0110  178.5875 LP  0  0  0  0  0  0  0  0  0  0  0  0  # atno 14371 bound_to 67  
  131.8741  128.4296  152.6060 LP  0  0  0  0  0  0  0  0  0  0  0  0  # atno 14376 bound_to 1802
  130.9070  127.1699  152.2260 LP  0  0  0  0  0  0  0  0  0  0  0  0  # atno 14377 bound_to 1802
  143.6759  134.5363  149.7368 LP  0  0  0  0  0  0  0  0  0  0  0  0  # atno 14384 bound_to 204 
  144.6104  134.5595  151.0757 LP  0  0  0  0  0  0  0  0  0  0  0  0  # atno 14385 bound_to 204 
  137.7785  120.0796  149.0449 LP  0  0  0  0  0  0  0  0  0  0  0  0  # atno 14407 bound_to 1834
  138.4383  118.9303  149.9991 LP  0  0  0  0  0  0  0  0  0  0  0  0  # atno 14408 bound_to 1834
  139.6635  129.8302  134.2232 LP  0  0  0  0  0  0  0  0  0  0  0  0  # atno 14411 bound_to 3259
  139.2179  130.0807  135.7741 LP  0  0  0  0  0  0  0  0  0  0  0  0  # atno 14412 bound_to 3259
  148.2878  135.6824  156.3167 LP  0  0  0  0  0  0  0  0  0  0  0  0  # atno 14415 bound_to 4679
  148.2342  134.0789  156.0124 LP  0  0  0  0  0  0  0  0  0  0  0  0  # atno 14416 bound_to 4679
  129.2852  117.3324  144.6897 LP  0  0  0  0  0  0  0  0  0  0  0  0  # atno 14432 bound_to 2733
  129.3128  115.7408  144.3252 LP  0  0  0  0  0  0  0  0  0  0  0  0  # atno 14433 bound_to 2733
  114.3351  117.2990  167.2328 LP  0  0  0  0  0  0  0  0  0  0  0  0  # atno 14440 bound_to 3927
  117.0686  113.1404  166.7424 LP  0  0  0  0  0  0  0  0  0  0  0  0  # atno 14441 bound_to 3930
  115.5425  112.8901  165.9624 LP  0  0  0  0  0  0  0  0  0  0  0  0  # atno 14442 bound_to 3930
  136.3916  115.2358  145.1877 LP  0  0  0  0  0  0  0  0  0  0  0  0  # atno 14465 bound_to 2765
  137.8548  115.2585  144.4630 LP  0  0  0  0  0  0  0  0  0  0  0  0  # atno 14466 bound_to 2765
  119.5610  113.4726  166.6145 LP  0  0  0  0  0  0  0  0  0  0  0  0  # atno 14472 bound_to 3972
  121.0587  110.5282  167.0898 LP  0  0  0  0  0  0  0  0  0  0  0  0  # atno 14473 bound_to 3975
  119.3769  110.6609  167.4821 LP  0  0  0  0  0  0  0  0  0  0  0  0  # atno 14474 bound_to 3975
  143.0194  144.7170  167.1282 LP  0  0  0  0  0  0  0  0  0  0  0  0  # atno 14479 bound_to 4748
  144.6174  145.0510  167.0885 LP  0  0  0  0  0  0  0  0  0  0  0  0  # atno 14480 bound_to 4748
  131.7960  157.0643  180.5548 LP  0  0  0  0  0  0  0  0  0  0  0  0  # atno 14485 bound_to 1170
  127.0980  155.2809  181.4771 LP  0  0  0  0  0  0  0  0  0  0  0  0  # atno 14486 bound_to 1173
  128.2181  154.8207  182.7155 LP  0  0  0  0  0  0  0  0  0  0  0  0  # atno 14487 bound_to 1173
  130.8969  143.3421  184.1155 LP  0  0  0  0  0  0  0  0  0  0  0  0  # atno 14496 bound_to 862 
  130.1589  141.3065  182.4047 LP  0  0  0  0  0  0  0  0  0  0  0  0  # atno 14497 bound_to 865 
  128.7874  141.3321  181.3472 LP  0  0  0  0  0  0  0  0  0  0  0  0  # atno 14498 bound_to 865 
  138.1256  136.0497  163.9684 LP  0  0  0  0  0  0  0  0  0  0  0  0  # atno 14501 bound_to 4013
  136.9560  137.1883  163.9218 LP  0  0  0  0  0  0  0  0  0  0  0  0  # atno 14502 bound_to 4013
  144.5384  126.3292  149.2958 LP  0  0  0  0  0  0  0  0  0  0  0  0  # atno 14519 bound_to 1222
  143.0822  126.5902  148.6045 LP  0  0  0  0  0  0  0  0  0  0  0  0  # atno 14520 bound_to 1222
  129.6374  113.2553  180.0594 LP  0  0  0  0  0  0  0  0  0  0  0  0  # atno 14523 bound_to 225 
  134.1766  112.5443  181.0494 LP  0  0  0  0  0  0  0  0  0  0  0  0  # atno 14524 bound_to 228 
  132.9352  113.2461  180.0663 LP  0  0  0  0  0  0  0  0  0  0  0  0  # atno 14525 bound_to 228 

> <Gold.Score>
     Fitness  S(hb_ext) S(vdw_ext)  S(hb_int)    S(int)      intcor
     33.68       3.97      21.92       0.00      -0.43      -0.76

> <Gold.Goldscore.Fitness>
33.6819

> <Gold.Goldscore.Internal.Vdw>
-0.6846

> <Gold.Goldscore.Internal.Torsion>
-0.5052

> <Gold.Goldscore.External.Vdw>
21.9211

> <Gold.Goldscore.Internal.HBond>
0.0000

> <Gold.Goldscore.External.HBond>
3.9716

> <Gold.Goldscore.Internal.Correction>
-0.7585

> <Gold.Goldscore.Hbonds>
donor molecule, donor type, donor heavy atom, donor atom, acceptor molecule, acceptor atom, score
      P1  H   323   345       L1    17  0.66
      L1  H     8    22       P1  1193  0.35
      L1  H    10    23       P1   285  0.97

> <Gold.Goldscore.Internal.Vdw.Weighted>
-0.6846

> <Gold.Goldscore.Internal.Torsion.Weighted>
-0.5052

> <Gold.Goldscore.External.Vdw.Weighted>
30.1415

> <Gold.Goldscore.Internal.HBond.Weighted>
0.0000

> <Gold.Goldscore.External.HBond.Weighted>
3.9716

> <Gold.Goldscore.Internal.Correction.Weighted>
-0.7585

> <Gold.Rescore>
     Score     S(PLP)   S(hbond)     S(cho)   S(metal)  DE(clash)   DE(tors)     intcor
     32.06     -26.95       2.17       0.00       0.00       0.00       0.70       ----

> <Gold.PLP.Fitness>
32.0591

> <Gold.PLP.PLP>
-26.9489

> <Gold.PLP.part.hbond>
-6.6001

> <Gold.PLP.part.metal>
0.0000

> <Gold.PLP.part.buried>
1.0702

> <Gold.PLP.part.nonpolar>
-21.8689

> <Gold.PLP.part.repulsive>
0.8686

> <Gold.PLP.ligand.clash>
0.0000

> <Gold.PLP.ligand.torsion>
0.7041

> <Gold.PLP.Chemscore.Hbond>
2.1728

> <Gold.PLP.Chemscore.CHOScore>
0.0000

> <Gold.PLP.Chemscore.Metal>
0.0000

> <Gold.Chemscore.Hbonds>
donor molecule, donor type, donor heavy atom, donor atom, acceptor molecule, acceptor atom, score
      L1  H     8    22       P1  1193  0.59
      L1  H    10    23       P1   285  0.88
      P1  H   323   345       L1    17  1.00

> <Gold.PLP.Chemscore.Internal.Correction>
   9.000000E+99

#       Name:                CT1002167954
#       Creating user name   hitesit
#       Creation time:       Sun Apr 16 22:54:35 2023


#       File generated by GOLD software.
#

@<TRIPOS>MOLECULE
CT1002167954|ligand_prepared|mol2|1|dock1
    29    30     1
SMALL
NO_CHARGES


@<TRIPOS>ATOM
      1 C1         142.5959 129.5321 146.4155 C.3            1 RES1               0.0000
      2 C2         141.6884 128.2985 146.2322 C.ar           1 RES1               0.0000
      3 C3         141.6655 130.7145 146.6694 C.2            1 RES1               0.0000
      4 C4         143.5241 129.2094 147.5813 C.2            1 RES1               0.0000
      5 C5         143.4718 129.8523 145.1819 C.3            1 RES1               0.0000
      6 C6         141.1486 127.6456 147.3363 C.ar           1 RES1               0.0000
      7 C7         141.3805 127.8042 144.9675 C.ar           1 RES1               0.0000
      8 N8         141.5971 131.2030 147.9408 N.am           1 RES1               0.0000
      9 O9         140.9725 131.1856 145.7760 O.2            1 RES1               0.0000
     10 N10        143.4003 129.9531 148.7255 N.am           1 RES1               0.0000
     11 O11        144.3503 128.3068 147.5251 O.2            1 RES1               0.0000
     12 C12        144.5528 130.8876 145.4495 C.3            1 RES1               0.0000
     13 C13        140.3283 126.5404 147.1817 C.ar           1 RES1               0.0000
     14 C14        140.5601 126.6987 144.8151 C.ar           1 RES1               0.0000
     15 C15        142.4582 130.9149 148.9691 C.2            1 RES1               0.0000
     16 C16        140.0331 126.0665 145.9211 C.ar           1 RES1               0.0000
     17 O17        142.3759 131.5025 150.0439 O.2            1 RES1               0.0000
     18 H18        143.9476 128.9261 144.8367 H              1 RES1               0.0000
     19 H19        142.8249 130.2179 144.3749 H              1 RES1               0.0000
     20 H20        141.3717 128.0026 148.3362 H              1 RES1               0.0000
     21 H21        141.7848 128.2850 144.0831 H              1 RES1               0.0000
     22 H22        140.8353 131.8416 148.1461 H              1 RES1               0.0000
     23 H23        144.0729 129.7730 149.4641 H              1 RES1               0.0000
     24 H24        145.1379 131.0752 144.5517 H              1 RES1               0.0000
     25 H25        144.1135 131.8297 145.7708 H              1 RES1               0.0000
     26 H26        145.2296 130.5456 146.2298 H              1 RES1               0.0000
     27 H27        139.9171 126.0456 148.0554 H              1 RES1               0.0000
     28 H28        140.3310 126.3288 143.8211 H              1 RES1               0.0000
     29 H29        139.3901 125.2010 145.8002 H              1 RES1               0.0000
@<TRIPOS>BOND
    1    1    2 1     
    2    1    3 1     
    3    1    4 1     
    4    1    5 1     
    5    2    6 ar    
    6    2    7 ar    
    7    3    8 1     
    8    3    9 2     
    9    4   10 1     
   10    4   11 2     
   11    5   12 1     
   12    5   18 1     
   13    5   19 1     
   14    6   13 ar    
   15    6   20 1     
   16    7   14 ar    
   17    7   21 1     
   18    8   15 1     
   19    8   22 1     
   20   10   15 1     
   21   10   23 1     
   22   12   24 1     
   23   12   25 1     
   24   12   26 1     
   25   13   16 ar    
   26   13   27 1     
   27   14   16 ar    
   28   14   28 1     
   29   15   17 2     
   30   16   29 1     
@<TRIPOS>SUBSTRUCTURE
      1 RES1           1
@<TRIPOS>SET
DONOR_HYDROGENS      STATIC     ATOMS    <user>   **** ""
2 22 23
ATOM$RED        STATIC     ATOMS    COLORGROUP SYSTEM
2 22 23
@<TRIPOS>COMMENT
> <Gold.Version>
2022.3.0

> <Gold.Id.Protein>
unknown|7rmi_cavity_clean|pdb

> <Gold.Protein.RotatedTorsions>
[  294  288  286  283 ] final  -20.67 input   60.03 | X-H torsion
[  301  289  290  291 ] final  138.09 input  115.34 | X-H torsion
[ 4333 4325 4326 4327 ] final  -47.14 input   58.17 | X-H torsion
[  162  159  158  157 ] final  -27.07 input   59.97 | X-H torsion
[  352  334  335  336 ] final   97.17 input   81.54 | X-H torsion
[ 1783 1767 1768 1769 ] final   86.58 input  110.17 | X-H torsion
[  113  103  104  105 ] final  -28.79 input  112.99 | X-H torsion
[   82   64   65   66 ] final -144.37 input  112.25 | X-H torsion
[ 1807 1802 1800 1797 ] final   40.36 input   60.00 | X-H torsion
[  208  204  203  201 ] final -128.43 input   60.02 | X-H torsion
[ 1839 1834 1833 1830 ] final -122.80 input   59.99 | X-H torsion
[ 3268 3259 3258 3256 ] final -176.12 input   59.98 | X-H torsion
[ 4684 4679 4678 4675 ] final  -28.16 input   59.98 | X-H torsion
[ 2741 2733 2732 2730 ] final -110.09 input   60.00 | X-H torsion
[ 3932 3927 3928 3929 ] final   15.33 input   88.25 | X-H torsion
[ 2774 2765 2764 2762 ] final -132.27 input   60.03 | X-H torsion
[ 3980 3972 3973 3974 ] final  -98.09 input   60.58 | X-H torsion
[ 4755 4748 4746 4743 ] final  -48.33 input   60.02 | X-H torsion
[ 1184 1170 1171 1172 ] final  -81.33 input   67.97 | X-H torsion
[  880  862  863  864 ] final -141.59 input   59.67 | X-H torsion
[ 4018 4013 4012 4010 ] final  -62.59 input   60.01 | X-H torsion
[ 8045 8035 8034 8033 ] final  -19.07 input   59.99 | X-H torsion
[ 1224 1222 1220 1217 ] final -114.63 input   59.96 | X-H torsion
[  249  225  226  227 ] final  -22.02 input   51.53 | X-H torsion
[ 14304  292  291  290 ] final  -38.21 input    0.00 | X-H torsion
[ 14309 4328 4327 4326 ] final  171.03 input   -0.00 | X-H torsion
[ 14335  337  336  335 ] final -167.66 input   -0.00 | X-H torsion
[ 14354 1770 1769 1768 ] final   33.46 input   -0.00 | X-H torsion
[ 14365  106  105  104 ] final  112.01 input    0.00 | X-H torsion
[ 14370   67   66   65 ] final   99.60 input   -0.00 | X-H torsion
[ 14441 3930 3929 3928 ] final  -37.12 input   -0.00 | X-H torsion
[ 14473 3975 3974 3973 ] final  -76.47 input   -0.00 | X-H torsion
[ 14486 1173 1172 1171 ] final   31.77 input   -0.00 | X-H torsion
[ 14497  865  864  863 ] final  -51.12 input   -0.00 | X-H torsion
[ 14524  228  227  226 ] final -149.53 input    0.00 | X-H torsion

> <Gold.Protein.ActiveResidues>
 GLU27   LEU30   GLN31   ASP33   LYS34   GLN35   VAL36   TYR37   ARG38   THR40  
 HIS41   ARG42   GLU209  HIS220  PHE222  GLN236  ASN239  ASP240  VAL241  THR242 
 ARG280  TRP281  LEU282  ARG283  THR284  ILE285  SER286  VAL287  ILE288  GLY355 
 ARG356  HIS357  TYR358  CYS359  TYR360  ASP381  ILE382  ILE383  GLN385  MET386 
 ASN387  LEU388  ARG389  GLU390  TYR391  VAL394  ALA56   LYS57   ILE58   TYR59  
 ALA60   MET61   LEU79   ILE80   ILE81   TRP82   ILE93   SER98   TRP99   VAL100 
 MET101  THR102  CYS103  GLY310  HIS311  ASP312  ASN313  TRP332  ASP333  SER334 
 PHE335  LYS337 

> <Gold.Protein.RotatedAtoms>
  115.1746  152.3006  181.4949 H   0  0  0  0  0  0  0  0  0  0  0  0  # atno 82   bound_to 64  
  108.7162  134.8501   98.2631 H   0  0  0  0  0  0  0  0  0  0  0  0  # atno 113  bound_to 103 
  145.1017  139.0051  140.7732 H   0  0  0  0  0  0  0  0  0  0  0  0  # atno 162  bound_to 159 
  144.5417  138.5496  142.2654 H   0  0  0  0  0  0  0  0  0  0  0  0  # atno 163  bound_to 159 
  143.7881  139.7698  141.4342 H   0  0  0  0  0  0  0  0  0  0  0  0  # atno 164  bound_to 159 
  143.9851  133.5049  149.6610 H   0  0  0  0  0  0  0  0  0  0  0  0  # atno 208  bound_to 204 
  131.1849  114.0551  180.0176 H   0  0  0  0  0  0  0  0  0  0  0  0  # atno 249  bound_to 225 
  153.0098  129.1241  145.9414 H   0  0  0  0  0  0  0  0  0  0  0  0  # atno 294  bound_to 288 
  113.7616  137.3161  109.0757 H   0  0  0  0  0  0  0  0  0  0  0  0  # atno 301  bound_to 289 
  114.8122  158.9977  159.1361 H   0  0  0  0  0  0  0  0  0  0  0  0  # atno 352  bound_to 334 
  130.2249  143.3638  185.5075 H   0  0  0  0  0  0  0  0  0  0  0  0  # atno 880  bound_to 862 
  131.6142  156.6002  180.1990 H   0  0  0  0  0  0  0  0  0  0  0  0  # atno 1184 bound_to 1170
  143.6912  125.9313  147.7155 H   0  0  0  0  0  0  0  0  0  0  0  0  # atno 1224 bound_to 1222
  125.3344  160.0028  169.0218 H   0  0  0  0  0  0  0  0  0  0  0  0  # atno 1783 bound_to 1767
  131.2351  127.4418  152.7446 H   0  0  0  0  0  0  0  0  0  0  0  0  # atno 1807 bound_to 1802
  137.7859  120.2544  149.1259 H   0  0  0  0  0  0  0  0  0  0  0  0  # atno 1839 bound_to 1834
  130.2353  116.3910  143.5042 H   0  0  0  0  0  0  0  0  0  0  0  0  # atno 2741 bound_to 2733
  138.0545  115.6433  144.6094 H   0  0  0  0  0  0  0  0  0  0  0  0  # atno 2774 bound_to 2765
  139.6557  129.5391  135.0293 H   0  0  0  0  0  0  0  0  0  0  0  0  # atno 3268 bound_to 3259
  115.5998  116.7896  167.7341 H   0  0  0  0  0  0  0  0  0  0  0  0  # atno 3932 bound_to 3927
  119.3667  114.3233  167.0741 H   0  0  0  0  0  0  0  0  0  0  0  0  # atno 3980 bound_to 3972
  136.9683  137.0884  163.8443 H   0  0  0  0  0  0  0  0  0  0  0  0  # atno 4018 bound_to 4013
  115.6894  119.9235  181.8603 H   0  0  0  0  0  0  0  0  0  0  0  0  # atno 4333 bound_to 4325
  148.1340  135.3747  156.5134 H   0  0  0  0  0  0  0  0  0  0  0  0  # atno 4684 bound_to 4679
  144.4860  145.0777  166.9472 H   0  0  0  0  0  0  0  0  0  0  0  0  # atno 4755 bound_to 4748
  133.3023  147.6831  149.4274 H   0  0  0  0  0  0  0  0  0  0  0  0  # atno 8045 bound_to 8035
  132.1612  146.7412  148.6807 H   0  0  0  0  0  0  0  0  0  0  0  0  # atno 8046 bound_to 8035
  133.0665  147.8080  147.7911 H   0  0  0  0  0  0  0  0  0  0  0  0  # atno 8047 bound_to 8035
  153.6299  129.5788  147.3755 LP  0  0  0  0  0  0  0  0  0  0  0  0  # atno 14301 bound_to 288 
  152.8596  130.6679  146.4335 LP  0  0  0  0  0  0  0  0  0  0  0  0  # atno 14302 bound_to 288 
  115.0323  136.7015  110.1047 LP  0  0  0  0  0  0  0  0  0  0  0  0  # atno 14303 bound_to 289 
  114.7312  138.2143  113.4966 LP  0  0  0  0  0  0  0  0  0  0  0  0  # atno 14304 bound_to 292 
  113.5132  137.2842  114.3036 LP  0  0  0  0  0  0  0  0  0  0  0  0  # atno 14305 bound_to 292 
  117.0365  120.9100  181.3255 LP  0  0  0  0  0  0  0  0  0  0  0  0  # atno 14308 bound_to 4325
  117.2289  116.8757  183.0621 LP  0  0  0  0  0  0  0  0  0  0  0  0  # atno 14309 bound_to 4328
  117.8471  118.4768  182.8290 LP  0  0  0  0  0  0  0  0  0  0  0  0  # atno 14310 bound_to 4328
  115.5671  158.2773  160.5395 LP  0  0  0  0  0  0  0  0  0  0  0  0  # atno 14334 bound_to 334 
  118.6420  159.5304  157.7488 LP  0  0  0  0  0  0  0  0  0  0  0  0  # atno 14335 bound_to 337 
  116.9766  159.8392  158.1109 LP  0  0  0  0  0  0  0  0  0  0  0  0  # atno 14336 bound_to 337 
  125.2118  159.0401  170.4739 LP  0  0  0  0  0  0  0  0  0  0  0  0  # atno 14353 bound_to 1767
  121.6103  157.2064  169.0590 LP  0  0  0  0  0  0  0  0  0  0  0  0  # atno 14354 bound_to 1770
  122.7172  156.0376  168.4197 LP  0  0  0  0  0  0  0  0  0  0  0  0  # atno 14355 bound_to 1770
  108.9944  133.9592   96.7867 LP  0  0  0  0  0  0  0  0  0  0  0  0  # atno 14364 bound_to 103 
  112.8559  134.8769  100.1103 LP  0  0  0  0  0  0  0  0  0  0  0  0  # atno 14365 bound_to 106 
  111.4420  134.1847  100.8328 LP  0  0  0  0  0  0  0  0  0  0  0  0  # atno 14366 bound_to 106 
  114.1817  151.9825  180.0946 LP  0  0  0  0  0  0  0  0  0  0  0  0  # atno 14369 bound_to 64  
  115.1133  155.9812  178.0331 LP  0  0  0  0  0  0  0  0  0  0  0  0  # atno 14370 bound_to 67  
  114.1994  156.1042  179.4993 LP  0  0  0  0  0  0  0  0  0  0  0  0  # atno 14371 bound_to 67  
  130.9737  127.6843  151.1565 LP  0  0  0  0  0  0  0  0  0  0  0  0  # atno 14376 bound_to 1802
  131.9119  128.7211  152.0000 LP  0  0  0  0  0  0  0  0  0  0  0  0  # atno 14377 bound_to 1802
  143.9422  134.9847  150.3372 LP  0  0  0  0  0  0  0  0  0  0  0  0  # atno 14384 bound_to 204 
  144.8349  133.7987  151.0177 LP  0  0  0  0  0  0  0  0  0  0  0  0  # atno 14385 bound_to 204 
  138.3581  118.9012  149.8255 LP  0  0  0  0  0  0  0  0  0  0  0  0  # atno 14407 bound_to 1834
  138.4927  120.3383  150.5892 LP  0  0  0  0  0  0  0  0  0  0  0  0  # atno 14408 bound_to 1834
  138.8479  130.8351  135.5912 LP  0  0  0  0  0  0  0  0  0  0  0  0  # atno 14411 bound_to 3259
  139.2232  130.7277  134.0055 LP  0  0  0  0  0  0  0  0  0  0  0  0  # atno 14412 bound_to 3259
  148.4220  134.0141  155.6679 LP  0  0  0  0  0  0  0  0  0  0  0  0  # atno 14415 bound_to 4679
  148.9477  135.4544  155.1060 LP  0  0  0  0  0  0  0  0  0  0  0  0  # atno 14416 bound_to 4679
  129.5450  117.5145  144.4576 LP  0  0  0  0  0  0  0  0  0  0  0  0  # atno 14432 bound_to 2733
  129.1039  115.9475  144.5863 LP  0  0  0  0  0  0  0  0  0  0  0  0  # atno 14433 bound_to 2733
  113.8549  116.7255  167.8351 LP  0  0  0  0  0  0  0  0  0  0  0  0  # atno 14440 bound_to 3927
  115.7266  112.9856  166.9958 LP  0  0  0  0  0  0  0  0  0  0  0  0  # atno 14441 bound_to 3930
  116.8846  113.0449  165.7091 LP  0  0  0  0  0  0  0  0  0  0  0  0  # atno 14442 bound_to 3930
  136.9949  116.3741  145.6052 LP  0  0  0  0  0  0  0  0  0  0  0  0  # atno 14465 bound_to 2765
  136.6093  114.9533  144.8985 LP  0  0  0  0  0  0  0  0  0  0  0  0  # atno 14466 bound_to 2765
  118.2808  112.9540  166.9446 LP  0  0  0  0  0  0  0  0  0  0  0  0  # atno 14472 bound_to 3972
  119.7544  110.2008  167.9026 LP  0  0  0  0  0  0  0  0  0  0  0  0  # atno 14473 bound_to 3975
  120.6812  110.9882  166.6694 LP  0  0  0  0  0  0  0  0  0  0  0  0  # atno 14474 bound_to 3975
  144.1407  144.4463  168.4068 LP  0  0  0  0  0  0  0  0  0  0  0  0  # atno 14479 bound_to 4748
  142.9583  144.6395  167.2972 LP  0  0  0  0  0  0  0  0  0  0  0  0  # atno 14480 bound_to 4748
  130.5700  158.0010  180.0848 LP  0  0  0  0  0  0  0  0  0  0  0  0  # atno 14485 bound_to 1170
  127.6328  155.8494  182.4304 LP  0  0  0  0  0  0  0  0  0  0  0  0  # atno 14486 bound_to 1173
  127.6834  154.2522  181.7622 LP  0  0  0  0  0  0  0  0  0  0  0  0  # atno 14487 bound_to 1173
  130.8414  142.5355  184.0925 LP  0  0  0  0  0  0  0  0  0  0  0  0  # atno 14496 bound_to 862 
  129.3981  142.1076  181.5255 LP  0  0  0  0  0  0  0  0  0  0  0  0  # atno 14497 bound_to 865 
  129.5481  140.5309  182.2265 LP  0  0  0  0  0  0  0  0  0  0  0  0  # atno 14498 bound_to 865 
  138.0497  137.3683  165.0275 LP  0  0  0  0  0  0  0  0  0  0  0  0  # atno 14501 bound_to 4013
  138.2147  136.0644  164.0584 LP  0  0  0  0  0  0  0  0  0  0  0  0  # atno 14502 bound_to 4013
  144.8145  126.0300  148.8890 LP  0  0  0  0  0  0  0  0  0  0  0  0  # atno 14519 bound_to 1222
  143.3471  126.7145  149.1001 LP  0  0  0  0  0  0  0  0  0  0  0  0  # atno 14520 bound_to 1222
  129.6953  113.1387  179.9815 LP  0  0  0  0  0  0  0  0  0  0  0  0  # atno 14523 bound_to 225 
  134.1503  112.4690  181.0216 LP  0  0  0  0  0  0  0  0  0  0  0  0  # atno 14524 bound_to 228 
  132.9615  113.3214  180.0941 LP  0  0  0  0  0  0  0  0  0  0  0  0  # atno 14525 bound_to 228 

> <Gold.Score>
     Fitness  S(hb_ext) S(vdw_ext)  S(hb_int)    S(int)      intcor
     33.54       7.37      19.12       0.00      -0.12      -0.76

> <Gold.Goldscore.Fitness>
33.5396

> <Gold.Goldscore.Internal.Vdw>
-0.3178

> <Gold.Goldscore.Internal.Torsion>
-0.5638

> <Gold.Goldscore.External.Vdw>
19.1179

> <Gold.Goldscore.Internal.HBond>
0.0000

> <Gold.Goldscore.External.HBond>
7.3691

> <Gold.Goldscore.Internal.Correction>
-0.7650

> <Gold.Goldscore.Hbonds>
donor molecule, donor type, donor heavy atom, donor atom, acceptor molecule, acceptor atom, score
      P1  H   313   317       L1    11  0.65
      P1  H   333   346       L1    17  1.00
      P1  H   204   208       L1    17  0.03

> <Gold.Goldscore.Internal.Vdw.Weighted>
-0.3178

> <Gold.Goldscore.Internal.Torsion.Weighted>
-0.5638

> <Gold.Goldscore.External.Vdw.Weighted>
26.2871

> <Gold.Goldscore.Internal.HBond.Weighted>
0.0000

> <Gold.Goldscore.External.HBond.Weighted>
7.3691

> <Gold.Goldscore.Internal.Correction.Weighted>
-0.7650

> <Gold.Rescore>
     Score     S(PLP)   S(hbond)     S(cho)   S(metal)  DE(clash)   DE(tors)     intcor
     42.55     -31.69       3.69       0.00       0.00       0.00       0.10       ----

> <Gold.PLP.Fitness>
42.5497

> <Gold.PLP.PLP>
-31.6852

> <Gold.PLP.part.hbond>
-5.0000

> <Gold.PLP.part.metal>
0.0000

> <Gold.PLP.part.buried>
-4.9022

> <Gold.PLP.part.nonpolar>
-22.6579

> <Gold.PLP.part.repulsive>
0.2613

> <Gold.PLP.ligand.clash>
0.0000

> <Gold.PLP.ligand.torsion>
0.0999

> <Gold.PLP.Chemscore.Hbond>
3.6881

> <Gold.PLP.Chemscore.CHOScore>
0.0000

> <Gold.PLP.Chemscore.Metal>
0.0000

> <Gold.Chemscore.Hbonds>
donor molecule, donor type, donor heavy atom, donor atom, acceptor molecule, acceptor atom, score
      P1  H   313   317       L1    11  0.39
      P1  H   333   346       L1    17  1.00

> <Gold.PLP.Chemscore.Internal.Correction>
   9.000000E+99

#       Name:                CT1002167954
#       Creating user name   hitesit
#       Creation time:       Sun Apr 16 22:55:27 2023


#       File generated by GOLD software.
#

@<TRIPOS>MOLECULE
CT1002167954|ligand_prepared|mol2|1|dock5
    29    30     1
SMALL
NO_CHARGES


@<TRIPOS>ATOM
      1 C1         137.9403 142.2190 166.0321 C.3            1 RES1               0.0000
      2 C2         137.4885 140.7591 166.2406 C.ar           1 RES1               0.0000
      3 C3         137.1038 143.0668 166.9859 C.2            1 RES1               0.0000
      4 C4         139.4367 142.2481 166.3233 C.2            1 RES1               0.0000
      5 C5         137.7235 142.7406 164.5925 C.3            1 RES1               0.0000
      6 C6         136.3357 140.2796 165.6260 C.ar           1 RES1               0.0000
      7 C7         138.2142 139.8810 167.0410 C.ar           1 RES1               0.0000
      8 N8         137.7209 143.5643 168.0957 N.am           1 RES1               0.0000
      9 O9         135.9111 143.2629 166.7878 O.2            1 RES1               0.0000
     10 N10        139.8656 142.9656 167.4091 N.am           1 RES1               0.0000
     11 O11        140.2464 141.6427 165.6319 O.2            1 RES1               0.0000
     12 C12        138.3509 144.1011 164.3323 C.3            1 RES1               0.0000
     13 C13        135.9248 138.9687 165.8027 C.ar           1 RES1               0.0000
     14 C14        137.8014 138.5705 167.2167 C.ar           1 RES1               0.0000
     15 C15        139.0726 143.5997 168.3263 C.2            1 RES1               0.0000
     16 C16        136.6575 138.1133 166.5977 C.ar           1 RES1               0.0000
     17 O17        139.5300 144.1786 169.3075 O.2            1 RES1               0.0000
     18 H18        138.1472 142.0156 163.8867 H              1 RES1               0.0000
     19 H19        136.6457 142.8062 164.3992 H              1 RES1               0.0000
     20 H20        135.7449 140.9388 164.9987 H              1 RES1               0.0000
     21 H21        139.1168 140.2191 167.5387 H              1 RES1               0.0000
     22 H22        137.1219 143.9451 168.8212 H              1 RES1               0.0000
     23 H23        140.8691 143.0333 167.5463 H              1 RES1               0.0000
     24 H24        138.1693 144.4201 163.3081 H              1 RES1               0.0000
     25 H25        137.9342 144.8521 165.0001 H              1 RES1               0.0000
     26 H26        139.4269 144.0662 164.4906 H              1 RES1               0.0000
     27 H27        135.0230 138.6142 165.3145 H              1 RES1               0.0000
     28 H28        138.3808 137.9010 167.8437 H              1 RES1               0.0000
     29 H29        136.3356 137.0864 166.7357 H              1 RES1               0.0000
@<TRIPOS>BOND
    1    1    2 1     
    2    1    3 1     
    3    1    4 1     
    4    1    5 1     
    5    2    6 ar    
    6    2    7 ar    
    7    3    8 1     
    8    3    9 2     
    9    4   10 1     
   10    4   11 2     
   11    5   12 1     
   12    5   18 1     
   13    5   19 1     
   14    6   13 ar    
   15    6   20 1     
   16    7   14 ar    
   17    7   21 1     
   18    8   15 1     
   19    8   22 1     
   20   10   15 1     
   21   10   23 1     
   22   12   24 1     
   23   12   25 1     
   24   12   26 1     
   25   13   16 ar    
   26   13   27 1     
   27   14   16 ar    
   28   14   28 1     
   29   15   17 2     
   30   16   29 1     
@<TRIPOS>SUBSTRUCTURE
      1 RES1           1
@<TRIPOS>SET
DONOR_HYDROGENS      STATIC     ATOMS    <user>   **** ""
2 22 23
ATOM$RED        STATIC     ATOMS    COLORGROUP SYSTEM
2 22 23
@<TRIPOS>COMMENT
> <Gold.Version>
2022.3.0

> <Gold.Id.Protein>
unknown|7rmi_cavity_clean|pdb

> <Gold.Protein.RotatedTorsions>
[  294  288  286  283 ] final  145.49 input   60.03 | X-H torsion
[  301  289  290  291 ] final -102.80 input  115.34 | X-H torsion
[ 4333 4325 4326 4327 ] final -100.85 input   58.17 | X-H torsion
[  162  159  158  157 ] final  -59.56 input   59.97 | X-H torsion
[  352  334  335  336 ] final  -23.47 input   81.54 | X-H torsion
[ 1783 1767 1768 1769 ] final  -86.90 input  110.17 | X-H torsion
[  113  103  104  105 ] final   83.60 input  112.99 | X-H torsion
[   82   64   65   66 ] final -117.43 input  112.25 | X-H torsion
[ 1807 1802 1800 1797 ] final  155.29 input   60.00 | X-H torsion
[  208  204  203  201 ] final  -63.82 input   60.02 | X-H torsion
[ 1839 1834 1833 1830 ] final  -17.79 input   59.99 | X-H torsion
[ 3268 3259 3258 3256 ] final   55.58 input   59.98 | X-H torsion
[ 4684 4679 4678 4675 ] final  131.85 input   59.98 | X-H torsion
[ 2741 2733 2732 2730 ] final  -13.54 input   60.00 | X-H torsion
[ 3932 3927 3928 3929 ] final  157.77 input   88.25 | X-H torsion
[ 2774 2765 2764 2762 ] final  155.29 input   60.03 | X-H torsion
[ 3980 3972 3973 3974 ] final -107.01 input   60.58 | X-H torsion
[ 4755 4748 4746 4743 ] final  135.83 input   60.02 | X-H torsion
[ 1184 1170 1171 1172 ] final  -15.51 input   67.97 | X-H torsion
[  880  862  863  864 ] final -176.89 input   59.67 | X-H torsion
[ 4018 4013 4012 4010 ] final  -27.85 input   60.01 | X-H torsion
[ 8045 8035 8034 8033 ] final -164.86 input   59.99 | X-H torsion
[ 1224 1222 1220 1217 ] final   12.67 input   59.96 | X-H torsion
[  249  225  226  227 ] final  -72.15 input   51.53 | X-H torsion
[ 14304  292  291  290 ] final   72.97 input    0.00 | X-H torsion
[ 14309 4328 4327 4326 ] final   54.90 input   -0.00 | X-H torsion
[ 14335  337  336  335 ] final -130.41 input   -0.00 | X-H torsion
[ 14354 1770 1769 1768 ] final  -99.67 input   -0.00 | X-H torsion
[ 14365  106  105  104 ] final -111.03 input    0.00 | X-H torsion
[ 14370   67   66   65 ] final -109.47 input   -0.00 | X-H torsion
[ 14441 3930 3929 3928 ] final -119.18 input   -0.00 | X-H torsion
[ 14473 3975 3974 3973 ] final   26.01 input   -0.00 | X-H torsion
[ 14486 1173 1172 1171 ] final  -35.17 input   -0.00 | X-H torsion
[ 14497  865  864  863 ] final  126.81 input   -0.00 | X-H torsion
[ 14524  228  227  226 ] final  179.86 input    0.00 | X-H torsion

> <Gold.Protein.ActiveResidues>
 GLU27   LEU30   GLN31   ASP33   LYS34   GLN35   VAL36   TYR37   ARG38   THR40  
 HIS41   ARG42   GLU209  HIS220  PHE222  GLN236  ASN239  ASP240  VAL241  THR242 
 ARG280  TRP281  LEU282  ARG283  THR284  ILE285  SER286  VAL287  ILE288  GLY355 
 ARG356  HIS357  TYR358  CYS359  TYR360  ASP381  ILE382  ILE383  GLN385  MET386 
 ASN387  LEU388  ARG389  GLU390  TYR391  VAL394  ALA56   LYS57   ILE58   TYR59  
 ALA60   MET61   LEU79   ILE80   ILE81   TRP82   ILE93   SER98   TRP99   VAL100 
 MET101  THR102  CYS103  GLY310  HIS311  ASP312  ASN313  TRP332  ASP333  SER334 
 PHE335  LYS337 

> <Gold.Protein.RotatedAtoms>
  114.8494  152.5442  181.5510 H   0  0  0  0  0  0  0  0  0  0  0  0  # atno 82   bound_to 64  
  109.2106  134.9017   96.8841 H   0  0  0  0  0  0  0  0  0  0  0  0  # atno 113  bound_to 103 
  144.7701  139.3996  140.6278 H   0  0  0  0  0  0  0  0  0  0  0  0  # atno 162  bound_to 159 
  144.9391  138.4000  141.9394 H   0  0  0  0  0  0  0  0  0  0  0  0  # atno 163  bound_to 159 
  143.7222  139.5250  141.9058 H   0  0  0  0  0  0  0  0  0  0  0  0  # atno 164  bound_to 159 
  144.6016  133.2275  150.3994 H   0  0  0  0  0  0  0  0  0  0  0  0  # atno 208  bound_to 204 
  130.6019  114.3808  180.3637 H   0  0  0  0  0  0  0  0  0  0  0  0  # atno 249  bound_to 225 
  153.2098  130.5826  147.0758 H   0  0  0  0  0  0  0  0  0  0  0  0  # atno 294  bound_to 288 
  115.1437  137.4762  109.6910 H   0  0  0  0  0  0  0  0  0  0  0  0  # atno 301  bound_to 289 
  115.9537  158.9595  160.1712 H   0  0  0  0  0  0  0  0  0  0  0  0  # atno 352  bound_to 334 
  130.4136  143.7392  185.1669 H   0  0  0  0  0  0  0  0  0  0  0  0  # atno 880  bound_to 862 
  130.8436  156.6350  179.6154 H   0  0  0  0  0  0  0  0  0  0  0  0  # atno 1184 bound_to 1170
  143.4370  126.7125  149.1792 H   0  0  0  0  0  0  0  0  0  0  0  0  # atno 1224 bound_to 1222
  125.2417  158.9532  170.4324 H   0  0  0  0  0  0  0  0  0  0  0  0  # atno 1783 bound_to 1767
  131.9209  128.6995  152.0800 H   0  0  0  0  0  0  0  0  0  0  0  0  # atno 1807 bound_to 1802
  138.3939  120.5184  150.4555 H   0  0  0  0  0  0  0  0  0  0  0  0  # atno 1839 bound_to 1834
  129.3102  115.7504  144.3324 H   0  0  0  0  0  0  0  0  0  0  0  0  # atno 2741 bound_to 2733
  137.6841  116.4288  145.2949 H   0  0  0  0  0  0  0  0  0  0  0  0  # atno 2774 bound_to 2765
  138.8161  130.9244  135.4934 H   0  0  0  0  0  0  0  0  0  0  0  0  # atno 3268 bound_to 3259
  113.9775  117.0964  167.4288 H   0  0  0  0  0  0  0  0  0  0  0  0  # atno 3932 bound_to 3927
  119.2630  114.3853  167.1428 H   0  0  0  0  0  0  0  0  0  0  0  0  # atno 3980 bound_to 3972
  137.1603  136.6186  163.6105 H   0  0  0  0  0  0  0  0  0  0  0  0  # atno 4018 bound_to 4013
  115.5737  120.3708  181.1966 H   0  0  0  0  0  0  0  0  0  0  0  0  # atno 4333 bound_to 4325
  148.9501  134.8305  154.9511 H   0  0  0  0  0  0  0  0  0  0  0  0  # atno 4684 bound_to 4679
  143.2915  144.3574  168.1944 H   0  0  0  0  0  0  0  0  0  0  0  0  # atno 4755 bound_to 4748
  132.7572  147.5318  147.6877 H   0  0  0  0  0  0  0  0  0  0  0  0  # atno 8045 bound_to 8035
  133.4842  147.9233  149.1248 H   0  0  0  0  0  0  0  0  0  0  0  0  # atno 8046 bound_to 8035
  132.2877  146.7762  149.0868 H   0  0  0  0  0  0  0  0  0  0  0  0  # atno 8047 bound_to 8035
  152.7376  129.7789  145.7421 LP  0  0  0  0  0  0  0  0  0  0  0  0  # atno 14301 bound_to 288 
  153.5503  128.9987  146.9242 LP  0  0  0  0  0  0  0  0  0  0  0  0  # atno 14302 bound_to 288 
  113.6782  136.5447  109.5019 LP  0  0  0  0  0  0  0  0  0  0  0  0  # atno 14303 bound_to 289 
  113.3752  138.1850  113.9467 LP  0  0  0  0  0  0  0  0  0  0  0  0  # atno 14304 bound_to 292 
  114.8692  137.3135  113.8536 LP  0  0  0  0  0  0  0  0  0  0  0  0  # atno 14305 bound_to 292 
  117.1474  120.4813  181.9616 LP  0  0  0  0  0  0  0  0  0  0  0  0  # atno 14308 bound_to 4325
  116.9971  118.3254  183.1354 LP  0  0  0  0  0  0  0  0  0  0  0  0  # atno 14309 bound_to 4328
  118.0789  117.0271  182.7557 LP  0  0  0  0  0  0  0  0  0  0  0  0  # atno 14310 bound_to 4328
  114.4582  158.3144  159.5340 LP  0  0  0  0  0  0  0  0  0  0  0  0  # atno 14334 bound_to 334 
  118.3407  159.4270  157.2965 LP  0  0  0  0  0  0  0  0  0  0  0  0  # atno 14335 bound_to 337 
  117.2778  159.9427  158.5632 LP  0  0  0  0  0  0  0  0  0  0  0  0  # atno 14336 bound_to 337 
  125.3027  160.0695  169.0905 LP  0  0  0  0  0  0  0  0  0  0  0  0  # atno 14353 bound_to 1767
  122.7933  156.1459  169.0958 LP  0  0  0  0  0  0  0  0  0  0  0  0  # atno 14354 bound_to 1770
  121.5342  157.0981  168.3829 LP  0  0  0  0  0  0  0  0  0  0  0  0  # atno 14355 bound_to 1770
  108.5098  133.9086   98.1385 LP  0  0  0  0  0  0  0  0  0  0  0  0  # atno 14364 bound_to 103 
  111.5077  134.7969  100.9893 LP  0  0  0  0  0  0  0  0  0  0  0  0  # atno 14365 bound_to 106 
  112.7901  134.2646   99.9539 LP  0  0  0  0  0  0  0  0  0  0  0  0  # atno 14366 bound_to 106 
  114.5013  151.7430  180.0394 LP  0  0  0  0  0  0  0  0  0  0  0  0  # atno 14369 bound_to 64  
  113.8996  156.0890  179.1849 LP  0  0  0  0  0  0  0  0  0  0  0  0  # atno 14370 bound_to 67  
  115.4130  155.9963  178.3476 LP  0  0  0  0  0  0  0  0  0  0  0  0  # atno 14371 bound_to 67  
  131.1853  127.3885  152.7041 LP  0  0  0  0  0  0  0  0  0  0  0  0  # atno 14376 bound_to 1802
  131.0099  127.7506  151.1214 LP  0  0  0  0  0  0  0  0  0  0  0  0  # atno 14377 bound_to 1802
  143.6746  134.3207  149.6280 LP  0  0  0  0  0  0  0  0  0  0  0  0  # atno 14384 bound_to 204 
  144.4819  134.7420  150.9835 LP  0  0  0  0  0  0  0  0  0  0  0  0  # atno 14385 bound_to 204 
  137.7798  120.0288  149.0303 LP  0  0  0  0  0  0  0  0  0  0  0  0  # atno 14407 bound_to 1834
  138.4587  118.9449  150.0457 LP  0  0  0  0  0  0  0  0  0  0  0  0  # atno 14408 bound_to 1834
  139.2911  130.6156  133.9680 LP  0  0  0  0  0  0  0  0  0  0  0  0  # atno 14411 bound_to 3259
  139.6255  129.5523  135.1614 LP  0  0  0  0  0  0  0  0  0  0  0  0  # atno 14412 bound_to 3259
  148.4115  135.8120  156.1325 LP  0  0  0  0  0  0  0  0  0  0  0  0  # atno 14415 bound_to 4679
  148.1366  134.2043  156.2142 LP  0  0  0  0  0  0  0  0  0  0  0  0  # atno 14416 bound_to 4679
  130.2896  116.7685  143.5249 LP  0  0  0  0  0  0  0  0  0  0  0  0  # atno 14432 bound_to 2733
  129.2914  117.3389  144.6847 LP  0  0  0  0  0  0  0  0  0  0  0  0  # atno 14433 bound_to 2733
  115.4323  116.4273  168.1320 LP  0  0  0  0  0  0  0  0  0  0  0  0  # atno 14440 bound_to 3927
  116.8541  113.1316  167.0124 LP  0  0  0  0  0  0  0  0  0  0  0  0  # atno 14441 bound_to 3930
  115.7570  112.8989  165.6924 LP  0  0  0  0  0  0  0  0  0  0  0  0  # atno 14442 bound_to 3930
  136.3548  115.4932  145.3696 LP  0  0  0  0  0  0  0  0  0  0  0  0  # atno 14465 bound_to 2765
  137.6224  115.0432  144.4438 LP  0  0  0  0  0  0  0  0  0  0  0  0  # atno 14466 bound_to 2765
  118.3806  112.8945  166.8787 LP  0  0  0  0  0  0  0  0  0  0  0  0  # atno 14472 bound_to 3972
  119.6253  111.0898  166.8941 LP  0  0  0  0  0  0  0  0  0  0  0  0  # atno 14473 bound_to 3975
  120.8103  110.0992  167.6779 LP  0  0  0  0  0  0  0  0  0  0  0  0  # atno 14474 bound_to 3975
  143.5221  144.9796  166.7085 LP  0  0  0  0  0  0  0  0  0  0  0  0  # atno 14479 bound_to 4748
  144.7801  144.8319  167.7392 LP  0  0  0  0  0  0  0  0  0  0  0  0  # atno 14480 bound_to 4748
  131.3151  157.9674  180.6490 LP  0  0  0  0  0  0  0  0  0  0  0  0  # atno 14485 bound_to 1170
  128.1638  155.1430  182.7933 LP  0  0  0  0  0  0  0  0  0  0  0  0  # atno 14486 bound_to 1173
  127.1524  154.9585  181.3993 LP  0  0  0  0  0  0  0  0  0  0  0  0  # atno 14487 bound_to 1173
  130.6596  142.1737  184.4208 LP  0  0  0  0  0  0  0  0  0  0  0  0  # atno 14496 bound_to 862 
  129.5733  140.5408  182.2421 LP  0  0  0  0  0  0  0  0  0  0  0  0  # atno 14497 bound_to 865 
  129.3730  142.0977  181.5099 LP  0  0  0  0  0  0  0  0  0  0  0  0  # atno 14498 bound_to 865 
  137.5827  137.6114  164.8285 LP  0  0  0  0  0  0  0  0  0  0  0  0  # atno 14501 bound_to 4013
  138.4884  136.2946  164.4931 LP  0  0  0  0  0  0  0  0  0  0  0  0  # atno 14502 bound_to 4013
  143.5847  125.9839  147.7313 LP  0  0  0  0  0  0  0  0  0  0  0  0  # atno 14519 bound_to 1222
  144.8327  125.9741  148.7844 LP  0  0  0  0  0  0  0  0  0  0  0  0  # atno 14520 bound_to 1222
  130.2612  112.8225  179.6456 LP  0  0  0  0  0  0  0  0  0  0  0  0  # atno 14523 bound_to 225 
  134.2200  112.9113  181.1135 LP  0  0  0  0  0  0  0  0  0  0  0  0  # atno 14524 bound_to 228 
  132.8918  112.8791  180.0022 LP  0  0  0  0  0  0  0  0  0  0  0  0  # atno 14525 bound_to 228 

> <Gold.Score>
     Fitness  S(hb_ext) S(vdw_ext)  S(hb_int)    S(int)      intcor
     33.28       0.00      24.92       0.00      -0.98      -0.76

> <Gold.Goldscore.Fitness>
33.2773

> <Gold.Goldscore.Internal.Vdw>
-1.2650

> <Gold.Goldscore.Internal.Torsion>
-0.4767

> <Gold.Goldscore.External.Vdw>
24.9168

> <Gold.Goldscore.Internal.HBond>
0.0000

> <Gold.Goldscore.External.HBond>
0.0000

> <Gold.Goldscore.Internal.Correction>
-0.7585

> <Gold.Goldscore.Internal.Vdw.Weighted>
-1.2650

> <Gold.Goldscore.Internal.Torsion.Weighted>
-0.4767

> <Gold.Goldscore.External.Vdw.Weighted>
34.2605

> <Gold.Goldscore.Internal.HBond.Weighted>
0.0000

> <Gold.Goldscore.External.HBond.Weighted>
0.0000

> <Gold.Goldscore.Internal.Correction.Weighted>
-0.7585

> <Gold.Rescore>
     Score     S(PLP)   S(hbond)     S(cho)   S(metal)  DE(clash)   DE(tors)     intcor
     28.19     -29.78       0.00       0.00       0.00       1.17       0.20       ----

> <Gold.PLP.Fitness>
28.1948

> <Gold.PLP.PLP>
-29.7765

> <Gold.PLP.part.hbond>
-3.3235

> <Gold.PLP.part.metal>
0.0000

> <Gold.PLP.part.buried>
-2.7069

> <Gold.PLP.part.nonpolar>
-28.7791

> <Gold.PLP.part.repulsive>
4.7213

> <Gold.PLP.ligand.clash>
1.1734

> <Gold.PLP.ligand.torsion>
0.2041

> <Gold.PLP.Chemscore.Hbond>
0.0000

> <Gold.PLP.Chemscore.CHOScore>
0.0000

> <Gold.PLP.Chemscore.Metal>
0.0000

> <Gold.PLP.Chemscore.Internal.Correction>
   9.000000E+99

#       Name:                CT1002167954
#       Creating user name   hitesit
#       Creation time:       Sun Apr 16 22:55:01 2023


#       File generated by GOLD software.
#

@<TRIPOS>MOLECULE
CT1002167954|ligand_prepared|mol2|1|dock3
    29    30     1
SMALL
NO_CHARGES


@<TRIPOS>ATOM
      1 C1         143.6059 129.8831 146.6459 C.3            1 RES1               0.0000
      2 C2         142.7725 128.8729 145.8312 C.ar           1 RES1               0.0000
      3 C3         142.8819 130.0609 147.9772 C.2            1 RES1               0.0000
      4 C4         145.0012 129.2817 146.7720 C.2            1 RES1               0.0000
      5 C5         143.7419 131.2684 145.9719 C.3            1 RES1               0.0000
      6 C6         142.2977 127.7060 146.4224 C.ar           1 RES1               0.0000
      7 C7         142.4687 129.0950 144.4907 C.ar           1 RES1               0.0000
      8 N8         143.4358 129.4805 149.0800 N.am           1 RES1               0.0000
      9 O9         141.8204 130.6675 148.0513 O.2            1 RES1               0.0000
     10 N10        145.4347 128.9214 148.0210 N.am           1 RES1               0.0000
     11 O11        145.7228 129.1011 145.7988 O.2            1 RES1               0.0000
     12 C12        144.4204 132.3114 146.8459 C.3            1 RES1               0.0000
     13 C13        141.5439 126.7954 145.7006 C.ar           1 RES1               0.0000
     14 C14        141.7150 128.1829 143.7705 C.ar           1 RES1               0.0000
     15 C15        144.7034 128.9651 149.1766 C.2            1 RES1               0.0000
     16 C16        141.2517 127.0334 144.3745 C.ar           1 RES1               0.0000
     17 O17        145.1440 128.5722 150.2530 O.2            1 RES1               0.0000
     18 H18        144.3180 131.1552 145.0453 H              1 RES1               0.0000
     19 H19        142.7417 131.6298 145.7028 H              1 RES1               0.0000
     20 H20        142.5197 127.5005 147.4643 H              1 RES1               0.0000
     21 H21        142.8235 129.9920 143.9946 H              1 RES1               0.0000
     22 H22        142.8536 129.4244 149.9097 H              1 RES1               0.0000
     23 H23        146.3912 128.5900 148.0963 H              1 RES1               0.0000
     24 H24        144.4902 133.2643 146.3254 H              1 RES1               0.0000
     25 H25        143.8602 132.4678 147.7654 H              1 RES1               0.0000
     26 H26        145.4272 131.9960 147.1118 H              1 RES1               0.0000
     27 H27        141.1829 125.8916 146.1801 H              1 RES1               0.0000
     28 H28        141.4879 128.3740 142.7269 H              1 RES1               0.0000
     29 H29        140.6609 126.3201 143.8093 H              1 RES1               0.0000
@<TRIPOS>BOND
    1    1    2 1     
    2    1    3 1     
    3    1    4 1     
    4    1    5 1     
    5    2    6 ar    
    6    2    7 ar    
    7    3    8 1     
    8    3    9 2     
    9    4   10 1     
   10    4   11 2     
   11    5   12 1     
   12    5   18 1     
   13    5   19 1     
   14    6   13 ar    
   15    6   20 1     
   16    7   14 ar    
   17    7   21 1     
   18    8   15 1     
   19    8   22 1     
   20   10   15 1     
   21   10   23 1     
   22   12   24 1     
   23   12   25 1     
   24   12   26 1     
   25   13   16 ar    
   26   13   27 1     
   27   14   16 ar    
   28   14   28 1     
   29   15   17 2     
   30   16   29 1     
@<TRIPOS>SUBSTRUCTURE
      1 RES1           1
@<TRIPOS>SET
DONOR_HYDROGENS      STATIC     ATOMS    <user>   **** ""
2 22 23
ATOM$RED        STATIC     ATOMS    COLORGROUP SYSTEM
2 22 23
@<TRIPOS>COMMENT
> <Gold.Version>
2022.3.0

> <Gold.Id.Protein>
unknown|7rmi_cavity_clean|pdb

> <Gold.Protein.RotatedTorsions>
[  294  288  286  283 ] final  126.34 input   60.03 | X-H torsion
[  301  289  290  291 ] final   76.94 input  115.34 | X-H torsion
[ 4333 4325 4326 4327 ] final -102.84 input   58.17 | X-H torsion
[  162  159  158  157 ] final   -2.45 input   59.97 | X-H torsion
[  352  334  335  336 ] final  -54.40 input   81.54 | X-H torsion
[ 1783 1767 1768 1769 ] final   47.28 input  110.17 | X-H torsion
[  113  103  104  105 ] final   34.54 input  112.99 | X-H torsion
[   82   64   65   66 ] final  151.31 input  112.25 | X-H torsion
[ 1807 1802 1800 1797 ] final  131.28 input   60.00 | X-H torsion
[  208  204  203  201 ] final -112.76 input   60.02 | X-H torsion
[ 1839 1834 1833 1830 ] final -169.57 input   59.99 | X-H torsion
[ 3268 3259 3258 3256 ] final   25.85 input   59.98 | X-H torsion
[ 4684 4679 4678 4675 ] final -153.33 input   59.98 | X-H torsion
[ 2741 2733 2732 2730 ] final  -19.13 input   60.00 | X-H torsion
[ 3932 3927 3928 3929 ] final  -64.43 input   88.25 | X-H torsion
[ 2774 2765 2764 2762 ] final   99.29 input   60.03 | X-H torsion
[ 3980 3972 3973 3974 ] final   57.71 input   60.58 | X-H torsion
[ 4755 4748 4746 4743 ] final   65.75 input   60.02 | X-H torsion
[ 1184 1170 1171 1172 ] final  102.56 input   67.97 | X-H torsion
[  880  862  863  864 ] final   77.46 input   59.67 | X-H torsion
[ 4018 4013 4012 4010 ] final -162.64 input   60.01 | X-H torsion
[ 8045 8035 8034 8033 ] final  104.67 input   59.99 | X-H torsion
[ 1224 1222 1220 1217 ] final -152.92 input   59.96 | X-H torsion
[  249  225  226  227 ] final -120.64 input   51.53 | X-H torsion
[ 14304  292  291  290 ] final    4.88 input    0.00 | X-H torsion
[ 14309 4328 4327 4326 ] final  105.80 input   -0.00 | X-H torsion
[ 14335  337  336  335 ] final  170.61 input   -0.00 | X-H torsion
[ 14354 1770 1769 1768 ] final   57.82 input   -0.00 | X-H torsion
[ 14365  106  105  104 ] final  141.31 input    0.00 | X-H torsion
[ 14370   67   66   65 ] final -103.85 input   -0.00 | X-H torsion
[ 14441 3930 3929 3928 ] final -174.30 input   -0.00 | X-H torsion
[ 14473 3975 3974 3973 ] final  135.57 input   -0.00 | X-H torsion
[ 14486 1173 1172 1171 ] final  164.44 input   -0.00 | X-H torsion
[ 14497  865  864  863 ] final  149.13 input   -0.00 | X-H torsion
[ 14524  228  227  226 ] final   94.23 input    0.00 | X-H torsion

> <Gold.Protein.ActiveResidues>
 GLU27   LEU30   GLN31   ASP33   LYS34   GLN35   VAL36   TYR37   ARG38   THR40  
 HIS41   ARG42   GLU209  HIS220  PHE222  GLN236  ASN239  ASP240  VAL241  THR242 
 ARG280  TRP281  LEU282  ARG283  THR284  ILE285  SER286  VAL287  ILE288  GLY355 
 ARG356  HIS357  TYR358  CYS359  TYR360  ASP381  ILE382  ILE383  GLN385  MET386 
 ASN387  LEU388  ARG389  GLU390  TYR391  VAL394  ALA56   LYS57   ILE58   TYR59  
 ALA60   MET61   LEU79   ILE80   ILE81   TRP82   ILE93   SER98   TRP99   VAL100 
 MET101  THR102  CYS103  GLY310  HIS311  ASP312  ASN313  TRP332  ASP333  SER334 
 PHE335  LYS337 

> <Gold.Protein.RotatedAtoms>
  115.4287  151.6891  180.8317 H   0  0  0  0  0  0  0  0  0  0  0  0  # atno 82   bound_to 64  
  109.0840  135.2524   97.5145 H   0  0  0  0  0  0  0  0  0  0  0  0  # atno 113  bound_to 103 
  145.2263  138.7209  141.0384 H   0  0  0  0  0  0  0  0  0  0  0  0  # atno 162  bound_to 159 
  144.2197  138.7843  142.3540 H   0  0  0  0  0  0  0  0  0  0  0  0  # atno 163  bound_to 159 
  143.9857  139.8192  141.0804 H   0  0  0  0  0  0  0  0  0  0  0  0  # atno 164  bound_to 159 
  144.1333  133.3431  149.7915 H   0  0  0  0  0  0  0  0  0  0  0  0  # atno 208  bound_to 204 
  129.9158  114.1525  180.4556 H   0  0  0  0  0  0  0  0  0  0  0  0  # atno 249  bound_to 225 
  153.0545  130.6854  146.8263 H   0  0  0  0  0  0  0  0  0  0  0  0  # atno 294  bound_to 288 
  113.6643  136.5328  109.5030 H   0  0  0  0  0  0  0  0  0  0  0  0  # atno 301  bound_to 289 
  115.8479  158.5901  160.4473 H   0  0  0  0  0  0  0  0  0  0  0  0  # atno 352  bound_to 334 
  130.9067  143.1098  183.9920 H   0  0  0  0  0  0  0  0  0  0  0  0  # atno 880  bound_to 862 
  130.5757  158.0437  180.1391 H   0  0  0  0  0  0  0  0  0  0  0  0  # atno 1184 bound_to 1170
  144.2683  125.7508  147.8236 H   0  0  0  0  0  0  0  0  0  0  0  0  # atno 1224 bound_to 1222
  125.4871  159.4424  168.9029 H   0  0  0  0  0  0  0  0  0  0  0  0  # atno 1783 bound_to 1767
  131.9145  128.5499  152.4397 H   0  0  0  0  0  0  0  0  0  0  0  0  # atno 1807 bound_to 1802
  137.8632  119.5209  149.0338 H   0  0  0  0  0  0  0  0  0  0  0  0  # atno 1839 bound_to 1834
  129.3674  115.7227  144.2670 H   0  0  0  0  0  0  0  0  0  0  0  0  # atno 2741 bound_to 2733
  136.8779  116.3021  145.6218 H   0  0  0  0  0  0  0  0  0  0  0  0  # atno 2774 bound_to 2765
  138.7770  131.1530  135.0727 H   0  0  0  0  0  0  0  0  0  0  0  0  # atno 3268 bound_to 3259
  114.9309  116.1561  168.4006 H   0  0  0  0  0  0  0  0  0  0  0  0  # atno 3932 bound_to 3927
  118.5755  112.7917  166.7904 H   0  0  0  0  0  0  0  0  0  0  0  0  # atno 3980 bound_to 3972
  137.7852  137.5345  164.9362 H   0  0  0  0  0  0  0  0  0  0  0  0  # atno 4018 bound_to 4013
  115.5835  120.3908  181.1749 H   0  0  0  0  0  0  0  0  0  0  0  0  # atno 4333 bound_to 4325
  148.4669  134.0277  155.5970 H   0  0  0  0  0  0  0  0  0  0  0  0  # atno 4684 bound_to 4679
  142.9905  144.6767  167.2132 H   0  0  0  0  0  0  0  0  0  0  0  0  # atno 4755 bound_to 4748
  132.1533  146.7476  148.6189 H   0  0  0  0  0  0  0  0  0  0  0  0  # atno 8045 bound_to 8035
  133.1089  147.8420  147.8215 H   0  0  0  0  0  0  0  0  0  0  0  0  # atno 8046 bound_to 8035
  133.2674  147.6421  149.4597 H   0  0  0  0  0  0  0  0  0  0  0  0  # atno 8047 bound_to 8035
  152.8255  129.4783  145.7593 LP  0  0  0  0  0  0  0  0  0  0  0  0  # atno 14301 bound_to 288 
  153.6189  129.1957  147.1583 LP  0  0  0  0  0  0  0  0  0  0  0  0  # atno 14302 bound_to 288 
  115.1276  137.4689  109.6860 LP  0  0  0  0  0  0  0  0  0  0  0  0  # atno 14303 bound_to 289 
  114.1809  138.5313  113.5327 LP  0  0  0  0  0  0  0  0  0  0  0  0  # atno 14304 bound_to 292 
  114.0635  136.9672  114.2675 LP  0  0  0  0  0  0  0  0  0  0  0  0  # atno 14305 bound_to 292 
  117.1381  120.4621  181.9823 LP  0  0  0  0  0  0  0  0  0  0  0  0  # atno 14308 bound_to 4325
  116.7237  117.6409  183.2383 LP  0  0  0  0  0  0  0  0  0  0  0  0  # atno 14309 bound_to 4328
  118.3523  117.7116  182.6528 LP  0  0  0  0  0  0  0  0  0  0  0  0  # atno 14310 bound_to 4328
  114.5611  158.6732  159.2658 LP  0  0  0  0  0  0  0  0  0  0  0  0  # atno 14334 bound_to 334 
  118.6632  159.6240  158.0609 LP  0  0  0  0  0  0  0  0  0  0  0  0  # atno 14335 bound_to 337 
  116.9554  159.7457  157.7988 LP  0  0  0  0  0  0  0  0  0  0  0  0  # atno 14336 bound_to 337 
  125.0620  159.5898  170.5905 LP  0  0  0  0  0  0  0  0  0  0  0  0  # atno 14353 bound_to 1767
  121.5176  157.1976  168.7056 LP  0  0  0  0  0  0  0  0  0  0  0  0  # atno 14354 bound_to 1770
  122.8099  156.0464  168.7731 LP  0  0  0  0  0  0  0  0  0  0  0  0  # atno 14355 bound_to 1770
  108.6339  133.5648   97.5206 LP  0  0  0  0  0  0  0  0  0  0  0  0  # atno 14364 bound_to 103 
  112.6761  135.2048  100.3384 LP  0  0  0  0  0  0  0  0  0  0  0  0  # atno 14365 bound_to 106 
  111.6217  133.8567  100.6047 LP  0  0  0  0  0  0  0  0  0  0  0  0  # atno 14366 bound_to 106 
  113.9318  152.5835  180.7465 LP  0  0  0  0  0  0  0  0  0  0  0  0  # atno 14369 bound_to 64  
  113.9444  156.0930  179.2568 LP  0  0  0  0  0  0  0  0  0  0  0  0  # atno 14370 bound_to 67  
  115.3682  155.9923  178.2757 LP  0  0  0  0  0  0  0  0  0  0  0  0  # atno 14371 bound_to 67  
  130.9870  127.2126  152.4150 LP  0  0  0  0  0  0  0  0  0  0  0  0  # atno 14376 bound_to 1802
  131.2146  128.0771  151.0484 LP  0  0  0  0  0  0  0  0  0  0  0  0  # atno 14377 bound_to 1802
  143.8207  134.9052  150.1252 LP  0  0  0  0  0  0  0  0  0  0  0  0  # atno 14384 bound_to 204 
  144.8071  134.0411  151.0983 LP  0  0  0  0  0  0  0  0  0  0  0  0  # atno 14385 bound_to 204 
  138.6096  119.2285  150.4499 LP  0  0  0  0  0  0  0  0  0  0  0  0  # atno 14407 bound_to 1834
  138.1633  120.7496  150.0576 LP  0  0  0  0  0  0  0  0  0  0  0  0  # atno 14408 bound_to 1834
  139.5168  130.1884  133.9910 LP  0  0  0  0  0  0  0  0  0  0  0  0  # atno 14411 bound_to 3259
  139.4391  129.7493  135.5620 LP  0  0  0  0  0  0  0  0  0  0  0  0  # atno 14412 bound_to 3259
  148.9306  135.5234  155.1529 LP  0  0  0  0  0  0  0  0  0  0  0  0  # atno 14415 bound_to 4679
  148.1040  135.3011  156.5436 LP  0  0  0  0  0  0  0  0  0  0  0  0  # atno 14416 bound_to 4679
  130.2856  116.8574  143.5478 LP  0  0  0  0  0  0  0  0  0  0  0  0  # atno 14432 bound_to 2733
  129.2378  117.2779  144.7276 LP  0  0  0  0  0  0  0  0  0  0  0  0  # atno 14433 bound_to 2733
  114.5053  117.3414  167.1871 LP  0  0  0  0  0  0  0  0  0  0  0  0  # atno 14440 bound_to 3927
  117.1615  113.1197  166.2724 LP  0  0  0  0  0  0  0  0  0  0  0  0  # atno 14441 bound_to 3930
  115.4496  112.9108  166.4324 LP  0  0  0  0  0  0  0  0  0  0  0  0  # atno 14442 bound_to 3930
  136.7061  114.8991  144.8152 LP  0  0  0  0  0  0  0  0  0  0  0  0  # atno 14465 bound_to 2765
  138.0829  115.7650  144.6691 LP  0  0  0  0  0  0  0  0  0  0  0  0  # atno 14466 bound_to 2765
  119.0413  114.4262  167.2173 LP  0  0  0  0  0  0  0  0  0  0  0  0  # atno 14472 bound_to 3972
  120.9870  110.7054  166.9038 LP  0  0  0  0  0  0  0  0  0  0  0  0  # atno 14473 bound_to 3975
  119.4486  110.4837  167.6681 LP  0  0  0  0  0  0  0  0  0  0  0  0  # atno 14474 bound_to 3975
  144.5572  145.0683  167.0129 LP  0  0  0  0  0  0  0  0  0  0  0  0  # atno 14479 bound_to 4748
  144.0482  144.4215  168.4232 LP  0  0  0  0  0  0  0  0  0  0  0  0  # atno 14480 bound_to 4748
  131.5741  156.6054  180.1427 LP  0  0  0  0  0  0  0  0  0  0  0  0  # atno 14485 bound_to 1170
  127.2631  154.6858  181.4174 LP  0  0  0  0  0  0  0  0  0  0  0  0  # atno 14486 bound_to 1173
  128.0530  155.4158  182.7751 LP  0  0  0  0  0  0  0  0  0  0  0  0  # atno 14487 bound_to 1173
  130.1843  142.7804  185.5533 LP  0  0  0  0  0  0  0  0  0  0  0  0  # atno 14496 bound_to 862 
  129.3011  140.4892  182.0533 LP  0  0  0  0  0  0  0  0  0  0  0  0  # atno 14497 bound_to 865 
  129.6451  142.1493  181.6987 LP  0  0  0  0  0  0  0  0  0  0  0  0  # atno 14498 bound_to 865 
  138.4005  136.1659  164.3068 LP  0  0  0  0  0  0  0  0  0  0  0  0  # atno 14501 bound_to 4013
  137.0410  136.8174  163.6793 LP  0  0  0  0  0  0  0  0  0  0  0  0  # atno 14502 bound_to 4013
  144.5060  126.3521  149.3172 LP  0  0  0  0  0  0  0  0  0  0  0  0  # atno 14519 bound_to 1222
  143.0747  126.5740  148.5631 LP  0  0  0  0  0  0  0  0  0  0  0  0  # atno 14520 bound_to 1222
  130.9272  113.0441  179.5564 LP  0  0  0  0  0  0  0  0  0  0  0  0  # atno 14523 bound_to 225 
  133.5618  113.7583  180.6285 LP  0  0  0  0  0  0  0  0  0  0  0  0  # atno 14524 bound_to 228 
  133.5500  112.0321  180.4872 LP  0  0  0  0  0  0  0  0  0  0  0  0  # atno 14525 bound_to 228 

> <Gold.Score>
     Fitness  S(hb_ext) S(vdw_ext)  S(hb_int)    S(int)      intcor
     32.47       3.18      21.39       0.00      -0.12      -0.76

> <Gold.Goldscore.Fitness>
32.4734

> <Gold.Goldscore.Internal.Vdw>
-0.4291

> <Gold.Goldscore.Internal.Torsion>
-0.4444

> <Gold.Goldscore.External.Vdw>
21.3903

> <Gold.Goldscore.Internal.HBond>
0.0000

> <Gold.Goldscore.External.HBond>
3.1768

> <Gold.Goldscore.Internal.Correction>
-0.7585

> <Gold.Goldscore.Hbonds>
donor molecule, donor type, donor heavy atom, donor atom, acceptor molecule, acceptor atom, score
      P1  H   323   345       L1    17  0.54
      L1  H     8    22       P1  1193  1.00
      L1  H    10    23       P1   285  0.04

> <Gold.Goldscore.Internal.Vdw.Weighted>
-0.4291

> <Gold.Goldscore.Internal.Torsion.Weighted>
-0.4444

> <Gold.Goldscore.External.Vdw.Weighted>
29.4116

> <Gold.Goldscore.Internal.HBond.Weighted>
0.0000

> <Gold.Goldscore.External.HBond.Weighted>
3.1768

> <Gold.Goldscore.Internal.Correction.Weighted>
-0.7585

> <Gold.Rescore>
     Score     S(PLP)   S(hbond)     S(cho)   S(metal)  DE(clash)   DE(tors)     intcor
     31.27     -25.28       2.24       0.00       0.00       0.00       0.36       ----

> <Gold.PLP.Fitness>
31.2697

> <Gold.PLP.PLP>
-25.2826

> <Gold.PLP.part.hbond>
-5.4582

> <Gold.PLP.part.metal>
0.0000

> <Gold.PLP.part.buried>
2.4753

> <Gold.PLP.part.nonpolar>
-23.1797

> <Gold.PLP.part.repulsive>
0.8955

> <Gold.PLP.ligand.clash>
0.0000

> <Gold.PLP.ligand.torsion>
0.3608

> <Gold.PLP.Chemscore.Hbond>
2.2362

> <Gold.PLP.Chemscore.CHOScore>
0.0000

> <Gold.PLP.Chemscore.Metal>
0.0000

> <Gold.Chemscore.Hbonds>
donor molecule, donor type, donor heavy atom, donor atom, acceptor molecule, acceptor atom, score
      L1  H     8    22       P1  1193  1.00
      L1  H    10    23       P1   285  0.10
      P1  H   313   317       L1    11  0.05
      P1  H   323   345       L1    17  1.00

> <Gold.PLP.Chemscore.Internal.Correction>
   9.000000E+99

#       Name:                CT1002167954
#       Creating user name   hitesit
#       Creation time:       Sun Apr 16 22:56:04 2023


#       File generated by GOLD software.
#

@<TRIPOS>MOLECULE
CT1002167954|ligand_prepared|mol2|1|dock8
    29    30     1
SMALL
NO_CHARGES


@<TRIPOS>ATOM
      1 C1         143.8513 131.6202 146.2830 C.3            1 RES1               0.0000
      2 C2         143.1449 130.2702 146.5223 C.ar           1 RES1               0.0000
      3 C3         143.3636 132.1247 144.9281 C.2            1 RES1               0.0000
      4 C4         143.4676 132.5162 147.4554 C.2            1 RES1               0.0000
      5 C5         145.3940 131.5197 146.2434 C.3            1 RES1               0.0000
      6 C6         143.4882 129.1483 145.7739 C.ar           1 RES1               0.0000
      7 C7         142.1516 130.1309 147.4880 C.ar           1 RES1               0.0000
      8 N8         142.4768 133.1608 144.9216 N.am           1 RES1               0.0000
      9 O9         143.7211 131.5958 143.8828 O.2            1 RES1               0.0000
     10 N10        142.7020 133.6224 147.1945 N.am           1 RES1               0.0000
     11 O11        143.8074 132.2653 148.6051 O.2            1 RES1               0.0000
     12 C12        145.9780 130.6236 147.3242 C.3            1 RES1               0.0000
     13 C13        142.8634 127.9304 145.9852 C.ar           1 RES1               0.0000
     14 C14        141.5278 128.9121 147.6975 C.ar           1 RES1               0.0000
     15 C15        142.1635 133.9685 145.9851 C.2            1 RES1               0.0000
     16 C16        141.8832 127.8113 146.9473 C.ar           1 RES1               0.0000
     17 O17        141.4395 134.9493 145.8404 O.2            1 RES1               0.0000
     18 H18        145.6977 131.1338 145.2625 H              1 RES1               0.0000
     19 H19        145.8164 132.5262 146.3531 H              1 RES1               0.0000
     20 H20        144.2556 129.2234 145.0107 H              1 RES1               0.0000
     21 H21        141.8550 130.9836 148.0893 H              1 RES1               0.0000
     22 H22        142.0027 133.3528 144.0448 H              1 RES1               0.0000
     23 H23        142.5164 134.2456 147.9739 H              1 RES1               0.0000
     24 H24        147.0630 130.5882 147.2513 H              1 RES1               0.0000
     25 H25        145.7167 130.9924 148.3139 H              1 RES1               0.0000
     26 H26        145.5987 129.6081 147.2298 H              1 RES1               0.0000
     27 H27        143.1458 127.0675 145.3912 H              1 RES1               0.0000
     28 H28        140.7564 128.8231 148.4553 H              1 RES1               0.0000
     29 H29        141.3941 126.8571 147.1128 H              1 RES1               0.0000
@<TRIPOS>BOND
    1    1    2 1     
    2    1    3 1     
    3    1    4 1     
    4    1    5 1     
    5    2    6 ar    
    6    2    7 ar    
    7    3    8 1     
    8    3    9 2     
    9    4   10 1     
   10    4   11 2     
   11    5   12 1     
   12    5   18 1     
   13    5   19 1     
   14    6   13 ar    
   15    6   20 1     
   16    7   14 ar    
   17    7   21 1     
   18    8   15 1     
   19    8   22 1     
   20   10   15 1     
   21   10   23 1     
   22   12   24 1     
   23   12   25 1     
   24   12   26 1     
   25   13   16 ar    
   26   13   27 1     
   27   14   16 ar    
   28   14   28 1     
   29   15   17 2     
   30   16   29 1     
@<TRIPOS>SUBSTRUCTURE
      1 RES1           1
@<TRIPOS>SET
DONOR_HYDROGENS      STATIC     ATOMS    <user>   **** ""
2 22 23
ATOM$RED        STATIC     ATOMS    COLORGROUP SYSTEM
2 22 23
@<TRIPOS>COMMENT
> <Gold.Version>
2022.3.0

> <Gold.Id.Protein>
unknown|7rmi_cavity_clean|pdb

> <Gold.Protein.RotatedTorsions>
[  294  288  286  283 ] final  -77.36 input   60.03 | X-H torsion
[  301  289  290  291 ] final  -98.12 input  115.34 | X-H torsion
[ 4333 4325 4326 4327 ] final  -13.13 input   58.17 | X-H torsion
[  162  159  158  157 ] final  -45.28 input   59.97 | X-H torsion
[  352  334  335  336 ] final -174.23 input   81.54 | X-H torsion
[ 1783 1767 1768 1769 ] final   68.05 input  110.17 | X-H torsion
[  113  103  104  105 ] final  -90.79 input  112.99 | X-H torsion
[   82   64   65   66 ] final  -71.45 input  112.25 | X-H torsion
[ 1807 1802 1800 1797 ] final  -87.11 input   60.00 | X-H torsion
[  208  204  203  201 ] final -113.62 input   60.02 | X-H torsion
[ 1839 1834 1833 1830 ] final  -71.68 input   59.99 | X-H torsion
[ 3268 3259 3258 3256 ] final  168.63 input   59.98 | X-H torsion
[ 4684 4679 4678 4675 ] final  -42.42 input   59.98 | X-H torsion
[ 2741 2733 2732 2730 ] final  172.59 input   60.00 | X-H torsion
[ 3932 3927 3928 3929 ] final  -51.20 input   88.25 | X-H torsion
[ 2774 2765 2764 2762 ] final  -91.87 input   60.03 | X-H torsion
[ 3980 3972 3973 3974 ] final -112.18 input   60.58 | X-H torsion
[ 4755 4748 4746 4743 ] final  -45.68 input   60.02 | X-H torsion
[ 1184 1170 1171 1172 ] final  131.04 input   67.97 | X-H torsion
[  880  862  863  864 ] final   56.92 input   59.67 | X-H torsion
[ 4018 4013 4012 4010 ] final  167.75 input   60.01 | X-H torsion
[ 8045 8035 8034 8033 ] final  -96.60 input   59.99 | X-H torsion
[ 1224 1222 1220 1217 ] final -142.34 input   59.96 | X-H torsion
[  249  225  226  227 ] final   -5.20 input   51.53 | X-H torsion
[ 14304  292  291  290 ] final  -47.11 input    0.00 | X-H torsion
[ 14309 4328 4327 4326 ] final  154.53 input   -0.00 | X-H torsion
[ 14335  337  336  335 ] final -110.42 input   -0.00 | X-H torsion
[ 14354 1770 1769 1768 ] final -104.58 input   -0.00 | X-H torsion
[ 14365  106  105  104 ] final   55.62 input    0.00 | X-H torsion
[ 14370   67   66   65 ] final   -0.70 input   -0.00 | X-H torsion
[ 14441 3930 3929 3928 ] final   86.22 input   -0.00 | X-H torsion
[ 14473 3975 3974 3973 ] final -142.95 input   -0.00 | X-H torsion
[ 14486 1173 1172 1171 ] final -135.88 input   -0.00 | X-H torsion
[ 14497  865  864  863 ] final   81.72 input   -0.00 | X-H torsion
[ 14524  228  227  226 ] final   45.32 input    0.00 | X-H torsion

> <Gold.Protein.ActiveResidues>
 GLU27   LEU30   GLN31   ASP33   LYS34   GLN35   VAL36   TYR37   ARG38   THR40  
 HIS41   ARG42   GLU209  HIS220  PHE222  GLN236  ASN239  ASP240  VAL241  THR242 
 ARG280  TRP281  LEU282  ARG283  THR284  ILE285  SER286  VAL287  ILE288  GLY355 
 ARG356  HIS357  TYR358  CYS359  TYR360  ASP381  ILE382  ILE383  GLN385  MET386 
 ASN387  LEU388  ARG389  GLU390  TYR391  VAL394  ALA56   LYS57   ILE58   TYR59  
 ALA60   MET61   LEU79   ILE80   ILE81   TRP82   ILE93   SER98   TRP99   VAL100 
 MET101  THR102  CYS103  GLY310  HIS311  ASP312  ASN313  TRP332  ASP333  SER334 
 PHE335  LYS337 

> <Gold.Protein.RotatedAtoms>
  114.2489  152.7373  181.2766 H   0  0  0  0  0  0  0  0  0  0  0  0  # atno 82   bound_to 64  
  108.5038  133.9690   98.2013 H   0  0  0  0  0  0  0  0  0  0  0  0  # atno 113  bound_to 103 
  144.9344  139.2304  140.6592 H   0  0  0  0  0  0  0  0  0  0  0  0  # atno 162  bound_to 159 
  144.7755  138.4397  142.1075 H   0  0  0  0  0  0  0  0  0  0  0  0  # atno 163  bound_to 159 
  143.7215  139.6545  141.7062 H   0  0  0  0  0  0  0  0  0  0  0  0  # atno 164  bound_to 159 
  144.1248  133.3506  149.7832 H   0  0  0  0  0  0  0  0  0  0  0  0  # atno 208  bound_to 204 
  131.2704  113.8489  179.8852 H   0  0  0  0  0  0  0  0  0  0  0  0  # atno 249  bound_to 225 
  153.4487  128.9019  146.6817 H   0  0  0  0  0  0  0  0  0  0  0  0  # atno 294  bound_to 288 
  115.1676  137.4242  109.7349 H   0  0  0  0  0  0  0  0  0  0  0  0  # atno 301  bound_to 289 
  114.5422  158.0319  159.8639 H   0  0  0  0  0  0  0  0  0  0  0  0  # atno 352  bound_to 334 
  130.8865  142.7927  183.9793 H   0  0  0  0  0  0  0  0  0  0  0  0  # atno 880  bound_to 862 
  130.8904  158.1318  180.4306 H   0  0  0  0  0  0  0  0  0  0  0  0  # atno 1184 bound_to 1170
  144.1122  125.7822  147.7568 H   0  0  0  0  0  0  0  0  0  0  0  0  # atno 1224 bound_to 1222
  125.4148  159.7516  168.9170 H   0  0  0  0  0  0  0  0  0  0  0  0  # atno 1783 bound_to 1767
  131.0319  127.7828  151.1124 H   0  0  0  0  0  0  0  0  0  0  0  0  # atno 1807 bound_to 1802
  138.0037  120.7385  149.7349 H   0  0  0  0  0  0  0  0  0  0  0  0  # atno 1839 bound_to 1834
  130.0099  117.4436  143.9610 H   0  0  0  0  0  0  0  0  0  0  0  0  # atno 2741 bound_to 2733
  137.7128  115.1184  144.4490 H   0  0  0  0  0  0  0  0  0  0  0  0  # atno 2774 bound_to 2765
  139.5846  129.5844  135.2629 H   0  0  0  0  0  0  0  0  0  0  0  0  # atno 3268 bound_to 3259
  115.1220  116.2053  168.3477 H   0  0  0  0  0  0  0  0  0  0  0  0  # atno 3932 bound_to 3927
  119.1977  114.4128  167.1814 H   0  0  0  0  0  0  0  0  0  0  0  0  # atno 3980 bound_to 3972
  138.1647  137.2595  165.0319 H   0  0  0  0  0  0  0  0  0  0  0  0  # atno 4018 bound_to 4013
  116.0848  119.8357  182.1922 H   0  0  0  0  0  0  0  0  0  0  0  0  # atno 4333 bound_to 4325
  148.0711  135.1580  156.5698 H   0  0  0  0  0  0  0  0  0  0  0  0  # atno 4684 bound_to 4679
  144.4540  145.0825  166.9185 H   0  0  0  0  0  0  0  0  0  0  0  0  # atno 4755 bound_to 4748
  133.4526  148.0707  148.3034 H   0  0  0  0  0  0  0  0  0  0  0  0  # atno 8045 bound_to 8035
  132.8293  147.1957  149.5654 H   0  0  0  0  0  0  0  0  0  0  0  0  # atno 8046 bound_to 8035
  132.2476  146.9654  148.0300 H   0  0  0  0  0  0  0  0  0  0  0  0  # atno 8047 bound_to 8035
  153.3483  130.4204  147.2576 LP  0  0  0  0  0  0  0  0  0  0  0  0  # atno 14301 bound_to 288 
  152.6991  130.0502  145.8057 LP  0  0  0  0  0  0  0  0  0  0  0  0  # atno 14302 bound_to 288 
  113.6549  136.5956  109.4588 LP  0  0  0  0  0  0  0  0  0  0  0  0  # atno 14303 bound_to 289 
  114.8112  138.1086  113.5179 LP  0  0  0  0  0  0  0  0  0  0  0  0  # atno 14304 bound_to 292 
  113.4332  137.3899  114.2823 LP  0  0  0  0  0  0  0  0  0  0  0  0  # atno 14305 bound_to 292 
  116.6576  120.9941  181.0074 LP  0  0  0  0  0  0  0  0  0  0  0  0  # atno 14308 bound_to 4325
  117.0274  117.0025  183.1336 LP  0  0  0  0  0  0  0  0  0  0  0  0  # atno 14309 bound_to 4328
  118.0487  118.3499  182.7575 LP  0  0  0  0  0  0  0  0  0  0  0  0  # atno 14310 bound_to 4328
  115.8293  159.2155  159.8325 LP  0  0  0  0  0  0  0  0  0  0  0  0  # atno 14334 bound_to 334 
  118.0773  159.4138  157.1523 LP  0  0  0  0  0  0  0  0  0  0  0  0  # atno 14335 bound_to 337 
  117.5412  159.9559  158.7075 LP  0  0  0  0  0  0  0  0  0  0  0  0  # atno 14336 bound_to 337 
  125.1329  159.2865  170.5767 LP  0  0  0  0  0  0  0  0  0  0  0  0  # atno 14353 bound_to 1767
  122.8054  156.1173  169.0283 LP  0  0  0  0  0  0  0  0  0  0  0  0  # atno 14354 bound_to 1770
  121.5221  157.1267  168.4503 LP  0  0  0  0  0  0  0  0  0  0  0  0  # atno 14355 bound_to 1770
  109.2026  134.8229   96.8474 LP  0  0  0  0  0  0  0  0  0  0  0  0  # atno 14364 bound_to 103 
  112.6922  134.0889   99.9621 LP  0  0  0  0  0  0  0  0  0  0  0  0  # atno 14365 bound_to 106 
  111.6057  134.9727  100.9811 LP  0  0  0  0  0  0  0  0  0  0  0  0  # atno 14366 bound_to 106 
  115.0915  151.5532  180.3091 LP  0  0  0  0  0  0  0  0  0  0  0  0  # atno 14369 bound_to 64  
  115.2981  156.0686  179.3471 LP  0  0  0  0  0  0  0  0  0  0  0  0  # atno 14370 bound_to 67  
  114.0145  156.0167  178.1854 LP  0  0  0  0  0  0  0  0  0  0  0  0  # atno 14371 bound_to 67  
  131.9268  128.6961  152.1195 LP  0  0  0  0  0  0  0  0  0  0  0  0  # atno 14376 bound_to 1802
  131.1634  127.3659  152.6802 LP  0  0  0  0  0  0  0  0  0  0  0  0  # atno 14377 bound_to 1802
  143.8266  134.9112  150.1366 LP  0  0  0  0  0  0  0  0  0  0  0  0  # atno 14384 bound_to 204 
  144.8098  134.0275  151.0953 LP  0  0  0  0  0  0  0  0  0  0  0  0  # atno 14385 bound_to 204 
  137.9858  119.2118  149.1722 LP  0  0  0  0  0  0  0  0  0  0  0  0  # atno 14407 bound_to 1834
  138.6456  119.5403  150.6294 LP  0  0  0  0  0  0  0  0  0  0  0  0  # atno 14408 bound_to 1834
  138.7953  130.9997  135.4103 LP  0  0  0  0  0  0  0  0  0  0  0  0  # atno 14411 bound_to 3259
  139.3474  130.5175  133.9511 LP  0  0  0  0  0  0  0  0  0  0  0  0  # atno 14412 bound_to 3259
  148.5408  134.0538  155.4701 LP  0  0  0  0  0  0  0  0  0  0  0  0  # atno 14415 bound_to 4679
  148.8923  135.6328  155.2472 LP  0  0  0  0  0  0  0  0  0  0  0  0  # atno 14416 bound_to 4679
  128.9717  116.5651  144.8544 LP  0  0  0  0  0  0  0  0  0  0  0  0  # atno 14432 bound_to 2733
  129.9043  115.8364  143.7293 LP  0  0  0  0  0  0  0  0  0  0  0  0  # atno 14433 bound_to 2733
  114.3195  117.2936  167.2386 LP  0  0  0  0  0  0  0  0  0  0  0  0  # atno 14440 bound_to 3927
  116.0936  112.9299  165.5171 LP  0  0  0  0  0  0  0  0  0  0  0  0  # atno 14441 bound_to 3930
  116.5175  113.1006  167.1877 LP  0  0  0  0  0  0  0  0  0  0  0  0  # atno 14442 bound_to 3930
  137.5915  116.4618  145.3595 LP  0  0  0  0  0  0  0  0  0  0  0  0  # atno 14465 bound_to 2765
  136.3570  115.3942  145.3057 LP  0  0  0  0  0  0  0  0  0  0  0  0  # atno 14466 bound_to 2765
  118.4433  112.8680  166.8416 LP  0  0  0  0  0  0  0  0  0  0  0  0  # atno 14472 bound_to 3972
  120.6834  110.0522  167.7749 LP  0  0  0  0  0  0  0  0  0  0  0  0  # atno 14473 bound_to 3975
  119.7522  111.1369  166.7970 LP  0  0  0  0  0  0  0  0  0  0  0  0  # atno 14474 bound_to 3975
  144.1812  144.4584  168.3965 LP  0  0  0  0  0  0  0  0  0  0  0  0  # atno 14479 bound_to 4748
  142.9500  144.6227  167.3365 LP  0  0  0  0  0  0  0  0  0  0  0  0  # atno 14480 bound_to 4748
  131.2698  156.5202  179.8608 LP  0  0  0  0  0  0  0  0  0  0  0  0  # atno 14485 bound_to 1170
  127.8026  154.2194  181.9014 LP  0  0  0  0  0  0  0  0  0  0  0  0  # atno 14486 bound_to 1173
  127.5135  155.8821  182.2912 LP  0  0  0  0  0  0  0  0  0  0  0  0  # atno 14487 bound_to 1173
  130.2037  143.0861  185.5655 LP  0  0  0  0  0  0  0  0  0  0  0  0  # atno 14496 bound_to 862 
  130.0374  140.9747  182.4353 LP  0  0  0  0  0  0  0  0  0  0  0  0  # atno 14497 bound_to 865 
  128.9089  141.6639  181.3167 LP  0  0  0  0  0  0  0  0  0  0  0  0  # atno 14498 bound_to 865 
  138.1024  136.0483  163.9470 LP  0  0  0  0  0  0  0  0  0  0  0  0  # atno 14501 bound_to 4013
  136.9568  137.2120  163.9426 LP  0  0  0  0  0  0  0  0  0  0  0  0  # atno 14502 bound_to 4013
  144.6233  126.2626  149.2255 LP  0  0  0  0  0  0  0  0  0  0  0  0  # atno 14519 bound_to 1222
  143.1144  126.6319  148.7220 LP  0  0  0  0  0  0  0  0  0  0  0  0  # atno 14520 bound_to 1222
  129.6124  113.3388  180.1101 LP  0  0  0  0  0  0  0  0  0  0  0  0  # atno 14523 bound_to 225 
  133.0582  113.5000  180.1884 LP  0  0  0  0  0  0  0  0  0  0  0  0  # atno 14524 bound_to 228 
  134.0536  112.2904  180.9273 LP  0  0  0  0  0  0  0  0  0  0  0  0  # atno 14525 bound_to 228 

> <Gold.Score>
     Fitness  S(hb_ext) S(vdw_ext)  S(hb_int)    S(int)      intcor
     30.80       6.48      20.05       0.00      -3.24      -0.76

> <Gold.Goldscore.Fitness>
30.8020

> <Gold.Goldscore.Internal.Vdw>
-3.1930

> <Gold.Goldscore.Internal.Torsion>
-0.8014

> <Gold.Goldscore.External.Vdw>
20.0453

> <Gold.Goldscore.Internal.HBond>
0.0000

> <Gold.Goldscore.External.HBond>
6.4754

> <Gold.Goldscore.Internal.Correction>
-0.7585

> <Gold.Goldscore.Hbonds>
donor molecule, donor type, donor heavy atom, donor atom, acceptor molecule, acceptor atom, score
      P1  H   332   340       L1    11  1.00
      P1  H   204   208       L1    11  0.24

> <Gold.Goldscore.Internal.Vdw.Weighted>
-3.1930

> <Gold.Goldscore.Internal.Torsion.Weighted>
-0.8014

> <Gold.Goldscore.External.Vdw.Weighted>
27.5623

> <Gold.Goldscore.Internal.HBond.Weighted>
0.0000

> <Gold.Goldscore.External.HBond.Weighted>
6.4754

> <Gold.Goldscore.Internal.Correction.Weighted>
-0.7585

> <Gold.Rescore>
     Score     S(PLP)   S(hbond)     S(cho)   S(metal)  DE(clash)   DE(tors)     intcor
     30.14     -25.61       2.17       0.00       0.00       1.26       0.36       ----

> <Gold.PLP.Fitness>
30.1411

> <Gold.PLP.PLP>
-25.6097

> <Gold.PLP.part.hbond>
-2.9600

> <Gold.PLP.part.metal>
0.0000

> <Gold.PLP.part.buried>
-4.1461

> <Gold.PLP.part.nonpolar>
-18.8927

> <Gold.PLP.part.repulsive>
0.2338

> <Gold.PLP.ligand.clash>
1.2577

> <Gold.PLP.ligand.torsion>
0.3612

> <Gold.PLP.Chemscore.Hbond>
2.1706

> <Gold.PLP.Chemscore.CHOScore>
0.0000

> <Gold.PLP.Chemscore.Metal>
0.0000

> <Gold.Chemscore.Hbonds>
donor molecule, donor type, donor heavy atom, donor atom, acceptor molecule, acceptor atom, score
      P1  H   332   340       L1    11  1.00
      P1  H   204   208       L1    11  1.00

> <Gold.PLP.Chemscore.Internal.Correction>
   9.000000E+99

