#       Name:                CT1002167954
#       Creating user name   hitesit
#       Creation time:       Sun Apr 16 22:55:52 2023


#       File generated by GOLD software.
#

@<TRIPOS>MOLECULE
CT1002167954|ligand_prepared|mol2|1|dock7
    29    30     1
SMALL
NO_CHARGES


@<TRIPOS>ATOM
      1 C1         138.2031 144.6989 166.3387 C.3            1 RES1               0.0000
      2 C2         137.6702 143.5132 165.5087 C.ar           1 RES1               0.0000
      3 C3         139.4390 144.1869 167.0728 C.2            1 RES1               0.0000
      4 C4         138.4892 145.8202 165.3460 C.2            1 RES1               0.0000
      5 C5         137.1963 145.2320 167.3846 C.3            1 RES1               0.0000
      6 C6         136.3563 143.0789 165.6559 C.ar           1 RES1               0.0000
      7 C7         138.4784 142.8466 164.5915 C.ar           1 RES1               0.0000
      8 N8         140.6577 144.6047 166.6257 N.am           1 RES1               0.0000
      9 O9         139.3473 143.3974 168.0047 O.2            1 RES1               0.0000
     10 N10        139.7918 146.2100 165.1756 N.am           1 RES1               0.0000
     11 O11        137.6002 146.3583 164.6977 O.2            1 RES1               0.0000
     12 C12        137.7385 146.3721 168.2320 C.3            1 RES1               0.0000
     13 C13        135.8670 142.0187 164.9110 C.ar           1 RES1               0.0000
     14 C14        137.9872 141.7864 163.8479 C.ar           1 RES1               0.0000
     15 C15        140.8922 145.6322 165.7477 C.2            1 RES1               0.0000
     16 C16        136.6818 141.3720 164.0063 C.ar           1 RES1               0.0000
     17 O17        142.0364 146.0038 165.5029 O.2            1 RES1               0.0000
     18 H18        136.2951 145.5772 166.8631 H              1 RES1               0.0000
     19 H19        136.9053 144.4073 168.0469 H              1 RES1               0.0000
     20 H20        135.7009 143.5740 166.3647 H              1 RES1               0.0000
     21 H21        139.5089 143.1547 164.4510 H              1 RES1               0.0000
     22 H22        141.4699 144.1071 166.9765 H              1 RES1               0.0000
     23 H23        139.9563 147.0047 164.5658 H              1 RES1               0.0000
     24 H24        136.9925 146.7084 168.9490 H              1 RES1               0.0000
     25 H25        138.6211 146.0563 168.7844 H              1 RES1               0.0000
     26 H26        138.0146 147.2193 167.6076 H              1 RES1               0.0000
     27 H27        134.8394 141.6955 165.0405 H              1 RES1               0.0000
     28 H28        138.6322 141.2800 163.1374 H              1 RES1               0.0000
     29 H29        136.2982 140.5417 163.4227 H              1 RES1               0.0000
@<TRIPOS>BOND
    1    1    2 1     
    2    1    3 1     
    3    1    4 1     
    4    1    5 1     
    5    2    6 ar    
    6    2    7 ar    
    7    3    8 1     
    8    3    9 2     
    9    4   10 1     
   10    4   11 2     
   11    5   12 1     
   12    5   18 1     
   13    5   19 1     
   14    6   13 ar    
   15    6   20 1     
   16    7   14 ar    
   17    7   21 1     
   18    8   15 1     
   19    8   22 1     
   20   10   15 1     
   21   10   23 1     
   22   12   24 1     
   23   12   25 1     
   24   12   26 1     
   25   13   16 ar    
   26   13   27 1     
   27   14   16 ar    
   28   14   28 1     
   29   15   17 2     
   30   16   29 1     
@<TRIPOS>SUBSTRUCTURE
      1 RES1           1
@<TRIPOS>SET
DONOR_HYDROGENS      STATIC     ATOMS    <user>   **** ""
2 22 23
ATOM$RED        STATIC     ATOMS    COLORGROUP SYSTEM
2 22 23
@<TRIPOS>COMMENT
> <Gold.Version>
2022.3.0

> <Gold.Id.Protein>
unknown|7rmi_cavity_clean|pdb

> <Gold.Protein.RotatedTorsions>
[  294  288  286  283 ] final  -76.55 input   60.03 | X-H torsion
[  301  289  290  291 ] final  -55.94 input  115.34 | X-H torsion
[ 4333 4325 4326 4327 ] final  -89.24 input   58.17 | X-H torsion
[  162  159  158  157 ] final   20.55 input   59.97 | X-H torsion
[  352  334  335  336 ] final  -12.68 input   81.54 | X-H torsion
[ 1783 1767 1768 1769 ] final  132.70 input  110.17 | X-H torsion
[  113  103  104  105 ] final   25.85 input  112.99 | X-H torsion
[   82   64   65   66 ] final   53.47 input  112.25 | X-H torsion
[ 1807 1802 1800 1797 ] final   55.72 input   60.00 | X-H torsion
[  208  204  203  201 ] final -142.42 input   60.02 | X-H torsion
[ 1839 1834 1833 1830 ] final  -89.03 input   59.99 | X-H torsion
[ 3268 3259 3258 3256 ] final   98.00 input   59.98 | X-H torsion
[ 4684 4679 4678 4675 ] final  -83.43 input   59.98 | X-H torsion
[ 2741 2733 2732 2730 ] final -107.30 input   60.00 | X-H torsion
[ 3932 3927 3928 3929 ] final  -70.61 input   88.25 | X-H torsion
[ 2774 2765 2764 2762 ] final   10.84 input   60.03 | X-H torsion
[ 3980 3972 3973 3974 ] final  -88.44 input   60.58 | X-H torsion
[ 4755 4748 4746 4743 ] final   23.32 input   60.02 | X-H torsion
[ 1184 1170 1171 1172 ] final   63.74 input   67.97 | X-H torsion
[  880  862  863  864 ] final  105.99 input   59.67 | X-H torsion
[ 4018 4013 4012 4010 ] final -122.25 input   60.01 | X-H torsion
[ 8045 8035 8034 8033 ] final   58.37 input   59.99 | X-H torsion
[ 1224 1222 1220 1217 ] final  -33.09 input   59.96 | X-H torsion
[  249  225  226  227 ] final -146.82 input   51.53 | X-H torsion
[ 14304  292  291  290 ] final -105.57 input    0.00 | X-H torsion
[ 14309 4328 4327 4326 ] final -160.45 input   -0.00 | X-H torsion
[ 14335  337  336  335 ] final -145.00 input   -0.00 | X-H torsion
[ 14354 1770 1769 1768 ] final -176.20 input   -0.00 | X-H torsion
[ 14365  106  105  104 ] final -147.97 input    0.00 | X-H torsion
[ 14370   67   66   65 ] final  164.04 input   -0.00 | X-H torsion
[ 14441 3930 3929 3928 ] final   37.46 input   -0.00 | X-H torsion
[ 14473 3975 3974 3973 ] final -165.15 input   -0.00 | X-H torsion
[ 14486 1173 1172 1171 ] final   13.49 input   -0.00 | X-H torsion
[ 14497  865  864  863 ] final  -92.12 input   -0.00 | X-H torsion
[ 14524  228  227  226 ] final -153.94 input    0.00 | X-H torsion

> <Gold.Protein.ActiveResidues>
 GLU27   LEU30   GLN31   ASP33   LYS34   GLN35   VAL36   TYR37   ARG38   THR40  
 HIS41   ARG42   GLU209  HIS220  PHE222  GLN236  ASN239  ASP240  VAL241  THR242 
 ARG280  TRP281  LEU282  ARG283  THR284  ILE285  SER286  VAL287  ILE288  GLY355 
 ARG356  HIS357  TYR358  CYS359  TYR360  ASP381  ILE382  ILE383  GLN385  MET386 
 ASN387  LEU388  ARG389  GLU390  TYR391  VAL394  ALA56   LYS57   ILE58   TYR59  
 ALA60   MET61   LEU79   ILE80   ILE81   TRP82   ILE93   SER98   TRP99   VAL100 
 MET101  THR102  CYS103  GLY310  HIS311  ASP312  ASN313  TRP332  ASP333  SER334 
 PHE335  LYS337 

> <Gold.Protein.RotatedAtoms>
  114.3782  151.8075  180.0290 H   0  0  0  0  0  0  0  0  0  0  0  0  # atno 82   bound_to 64  
  109.0404  135.2541   97.6408 H   0  0  0  0  0  0  0  0  0  0  0  0  # atno 113  bound_to 103 
  145.2197  138.5182  141.3617 H   0  0  0  0  0  0  0  0  0  0  0  0  # atno 162  bound_to 159 
  143.9602  139.0577  142.2948 H   0  0  0  0  0  0  0  0  0  0  0  0  # atno 163  bound_to 159 
  144.2520  139.7484  140.8164 H   0  0  0  0  0  0  0  0  0  0  0  0  # atno 164  bound_to 159 
  143.8692  133.6869  149.5867 H   0  0  0  0  0  0  0  0  0  0  0  0  # atno 208  bound_to 204 
  129.6667  113.8474  180.3744 H   0  0  0  0  0  0  0  0  0  0  0  0  # atno 249  bound_to 225 
  153.4435  128.8990  146.6700 H   0  0  0  0  0  0  0  0  0  0  0  0  # atno 294  bound_to 288 
  115.1447  136.8773  110.0566 H   0  0  0  0  0  0  0  0  0  0  0  0  # atno 301  bound_to 289 
  115.9398  159.0710  160.0478 H   0  0  0  0  0  0  0  0  0  0  0  0  # atno 352  bound_to 334 
  130.8551  143.5068  184.1733 H   0  0  0  0  0  0  0  0  0  0  0  0  # atno 880  bound_to 862 
  130.3526  157.6486  179.7594 H   0  0  0  0  0  0  0  0  0  0  0  0  # atno 1184 bound_to 1170
  143.0793  126.5686  148.5613 H   0  0  0  0  0  0  0  0  0  0  0  0  # atno 1224 bound_to 1222
  125.1259  160.3666  169.5709 H   0  0  0  0  0  0  0  0  0  0  0  0  # atno 1783 bound_to 1767
  131.3826  127.6173  152.8450 H   0  0  0  0  0  0  0  0  0  0  0  0  # atno 1807 bound_to 1802
  137.9003  120.6411  149.4907 H   0  0  0  0  0  0  0  0  0  0  0  0  # atno 1839 bound_to 1834
  130.2223  116.3475  143.5086 H   0  0  0  0  0  0  0  0  0  0  0  0  # atno 2741 bound_to 2733
  136.4238  115.1772  145.1375 H   0  0  0  0  0  0  0  0  0  0  0  0  # atno 2774 bound_to 2765
  139.0567  130.3667  135.7931 H   0  0  0  0  0  0  0  0  0  0  0  0  # atno 3268 bound_to 3259
  114.8370  116.1439  168.4142 H   0  0  0  0  0  0  0  0  0  0  0  0  # atno 3932 bound_to 3927
  119.4639  114.2372  166.9986 H   0  0  0  0  0  0  0  0  0  0  0  0  # atno 3980 bound_to 3972
  137.2701  137.6114  164.5534 H   0  0  0  0  0  0  0  0  0  0  0  0  # atno 4018 bound_to 4013
  115.5367  120.2556  181.3313 H   0  0  0  0  0  0  0  0  0  0  0  0  # atno 4333 bound_to 4325
  148.0444  134.5124  156.4561 H   0  0  0  0  0  0  0  0  0  0  0  0  # atno 4684 bound_to 4679
  143.4161  144.9385  166.7554 H   0  0  0  0  0  0  0  0  0  0  0  0  # atno 4755 bound_to 4748
  132.4327  146.8691  149.3070 H   0  0  0  0  0  0  0  0  0  0  0  0  # atno 8045 bound_to 8035
  132.5620  147.3351  147.7217 H   0  0  0  0  0  0  0  0  0  0  0  0  # atno 8046 bound_to 8035
  133.5354  148.0278  148.8713 H   0  0  0  0  0  0  0  0  0  0  0  0  # atno 8047 bound_to 8035
  153.3543  130.4110  147.2646 LP  0  0  0  0  0  0  0  0  0  0  0  0  # atno 14301 bound_to 288 
  152.6983  130.0624  145.8104 LP  0  0  0  0  0  0  0  0  0  0  0  0  # atno 14302 bound_to 288 
  113.6773  137.1315  109.1437 LP  0  0  0  0  0  0  0  0  0  0  0  0  # atno 14303 bound_to 289 
  114.8782  137.3307  113.8430 LP  0  0  0  0  0  0  0  0  0  0  0  0  # atno 14304 bound_to 292 
  113.3662  138.1678  113.9572 LP  0  0  0  0  0  0  0  0  0  0  0  0  # atno 14305 bound_to 292 
  117.1829  120.5917  181.8324 LP  0  0  0  0  0  0  0  0  0  0  0  0  # atno 14308 bound_to 4325
  117.6265  116.8151  182.9197 LP  0  0  0  0  0  0  0  0  0  0  0  0  # atno 14309 bound_to 4328
  117.4496  118.5374  182.9714 LP  0  0  0  0  0  0  0  0  0  0  0  0  # atno 14310 bound_to 4328
  114.4717  158.2061  159.6538 LP  0  0  0  0  0  0  0  0  0  0  0  0  # atno 14334 bound_to 334 
  118.4941  159.4565  157.4514 LP  0  0  0  0  0  0  0  0  0  0  0  0  # atno 14335 bound_to 337 
  117.1245  159.9132  158.4083 LP  0  0  0  0  0  0  0  0  0  0  0  0  # atno 14336 bound_to 337 
  125.4162  158.6834  169.9354 LP  0  0  0  0  0  0  0  0  0  0  0  0  # atno 14353 bound_to 1767
  122.4744  156.1661  168.0718 LP  0  0  0  0  0  0  0  0  0  0  0  0  # atno 14354 bound_to 1770
  121.8530  157.0779  169.4069 LP  0  0  0  0  0  0  0  0  0  0  0  0  # atno 14355 bound_to 1770
  108.6767  133.5632   97.3968 LP  0  0  0  0  0  0  0  0  0  0  0  0  # atno 14364 bound_to 103 
  111.8462  135.2196  100.9004 LP  0  0  0  0  0  0  0  0  0  0  0  0  # atno 14365 bound_to 106 
  112.4516  133.8420  100.0427 LP  0  0  0  0  0  0  0  0  0  0  0  0  # atno 14366 bound_to 106 
  114.9644  152.4671  181.5355 LP  0  0  0  0  0  0  0  0  0  0  0  0  # atno 14369 bound_to 64  
  114.1901  156.0024  178.0375 LP  0  0  0  0  0  0  0  0  0  0  0  0  # atno 14370 bound_to 67  
  115.1226  156.0829  179.4949 LP  0  0  0  0  0  0  0  0  0  0  0  0  # atno 14371 bound_to 67  
  130.8841  127.4977  151.3002 LP  0  0  0  0  0  0  0  0  0  0  0  0  # atno 14376 bound_to 1802
  131.8531  128.7309  151.7551 LP  0  0  0  0  0  0  0  0  0  0  0  0  # atno 14377 bound_to 1802
  144.0706  135.0000  150.5271 LP  0  0  0  0  0  0  0  0  0  0  0  0  # atno 14384 bound_to 204 
  144.8231  133.6002  150.9026 LP  0  0  0  0  0  0  0  0  0  0  0  0  # atno 14385 bound_to 204 
  138.1065  119.0325  149.3572 LP  0  0  0  0  0  0  0  0  0  0  0  0  # atno 14407 bound_to 1834
  138.6291  119.8177  150.6902 LP  0  0  0  0  0  0  0  0  0  0  0  0  # atno 14408 bound_to 1834
  138.9634  131.0866  134.3368 LP  0  0  0  0  0  0  0  0  0  0  0  0  # atno 14411 bound_to 3259
  139.7109  129.6429  134.4908 LP  0  0  0  0  0  0  0  0  0  0  0  0  # atno 14412 bound_to 3259
  148.8436  134.4527  155.0395 LP  0  0  0  0  0  0  0  0  0  0  0  0  # atno 14415 bound_to 4679
  148.6163  135.8839  155.7921 LP  0  0  0  0  0  0  0  0  0  0  0  0  # atno 14416 bound_to 4679
  129.5771  117.5259  144.4267 LP  0  0  0  0  0  0  0  0  0  0  0  0  # atno 14432 bound_to 2733
  129.0850  115.9800  144.6128 LP  0  0  0  0  0  0  0  0  0  0  0  0  # atno 14433 bound_to 2733
  114.5966  117.3533  167.1739 LP  0  0  0  0  0  0  0  0  0  0  0  0  # atno 14440 bound_to 3927
  115.5399  112.8901  165.9675 LP  0  0  0  0  0  0  0  0  0  0  0  0  # atno 14441 bound_to 3930
  117.0712  113.1404  166.7373 LP  0  0  0  0  0  0  0  0  0  0  0  0  # atno 14442 bound_to 3930
  137.9047  115.3236  144.4791 LP  0  0  0  0  0  0  0  0  0  0  0  0  # atno 14465 bound_to 2765
  137.3416  116.4732  145.4929 LP  0  0  0  0  0  0  0  0  0  0  0  0  # atno 14466 bound_to 2765
  118.1874  113.0368  167.0173 LP  0  0  0  0  0  0  0  0  0  0  0  0  # atno 14472 bound_to 3972
  120.9164  110.1654  167.5650 LP  0  0  0  0  0  0  0  0  0  0  0  0  # atno 14473 bound_to 3975
  119.5192  111.0236  167.0069 LP  0  0  0  0  0  0  0  0  0  0  0  0  # atno 14474 bound_to 3975
  144.7899  144.8778  167.6255 LP  0  0  0  0  0  0  0  0  0  0  0  0  # atno 14479 bound_to 4748
  143.3868  144.3482  168.2717 LP  0  0  0  0  0  0  0  0  0  0  0  0  # atno 14480 bound_to 4748
  131.7897  156.9874  180.5098 LP  0  0  0  0  0  0  0  0  0  0  0  0  # atno 14485 bound_to 1170
  127.8099  155.7338  182.6066 LP  0  0  0  0  0  0  0  0  0  0  0  0  # atno 14486 bound_to 1173
  127.5062  154.3678  181.5860 LP  0  0  0  0  0  0  0  0  0  0  0  0  # atno 14487 bound_to 1173
  130.2340  142.3977  185.3785 LP  0  0  0  0  0  0  0  0  0  0  0  0  # atno 14496 bound_to 862 
  128.9573  141.7430  181.3243 LP  0  0  0  0  0  0  0  0  0  0  0  0  # atno 14497 bound_to 865 
  129.9889  140.8956  182.4277 LP  0  0  0  0  0  0  0  0  0  0  0  0  # atno 14498 bound_to 865 
  138.5218  136.5965  164.7798 LP  0  0  0  0  0  0  0  0  0  0  0  0  # atno 14501 bound_to 4013
  137.4386  136.3094  163.5919 LP  0  0  0  0  0  0  0  0  0  0  0  0  # atno 14502 bound_to 4013
  144.2737  125.7493  147.8191 LP  0  0  0  0  0  0  0  0  0  0  0  0  # atno 14519 bound_to 1222
  144.5038  126.3536  149.3186 LP  0  0  0  0  0  0  0  0  0  0  0  0  # atno 14520 bound_to 1222
  131.1689  113.3403  179.6353 LP  0  0  0  0  0  0  0  0  0  0  0  0  # atno 14523 bound_to 225 
  134.1715  112.5281  181.0439 LP  0  0  0  0  0  0  0  0  0  0  0  0  # atno 14524 bound_to 228 
  132.9403  113.2623  180.0718 LP  0  0  0  0  0  0  0  0  0  0  0  0  # atno 14525 bound_to 228 

> <Gold.Score>
     Fitness  S(hb_ext) S(vdw_ext)  S(hb_int)    S(int)      intcor
     39.46       5.37      25.41       0.00      -0.84      -0.76

> <Gold.Goldscore.Fitness>
39.4645

> <Gold.Goldscore.Internal.Vdw>
-1.2234

> <Gold.Goldscore.Internal.Torsion>
-0.3737

> <Gold.Goldscore.External.Vdw>
25.4052

> <Gold.Goldscore.Internal.HBond>
0.0000

> <Gold.Goldscore.External.HBond>
5.3709

> <Gold.Goldscore.Internal.Correction>
-0.7585

> <Gold.Goldscore.Hbonds>
donor molecule, donor type, donor heavy atom, donor atom, acceptor molecule, acceptor atom, score
      P1  H  4748  4755       L1    17  1.00
      P1  H  4756  4762       L1    17  0.95
      L1  H     8    22       P1  4748  0.02
      L1  H    10    23       P1  4036  0.72

> <Gold.Goldscore.Internal.Vdw.Weighted>
-1.2234

> <Gold.Goldscore.Internal.Torsion.Weighted>
-0.3737

> <Gold.Goldscore.External.Vdw.Weighted>
34.9322

> <Gold.Goldscore.Internal.HBond.Weighted>
0.0000

> <Gold.Goldscore.External.HBond.Weighted>
5.3709

> <Gold.Goldscore.Internal.Correction.Weighted>
-0.7585

> <Gold.Rescore>
     Score     S(PLP)   S(hbond)     S(cho)   S(metal)  DE(clash)   DE(tors)     intcor
     26.83     -20.18       2.31       0.00       0.00       0.00       0.14       ----

> <Gold.PLP.Fitness>
26.8273

> <Gold.PLP.PLP>
-20.1819

> <Gold.PLP.part.hbond>
-2.2602

> <Gold.PLP.part.metal>
0.0000

> <Gold.PLP.part.buried>
-2.8517

> <Gold.PLP.part.nonpolar>
-19.4353

> <Gold.PLP.part.repulsive>
4.0474

> <Gold.PLP.ligand.clash>
0.0000

> <Gold.PLP.ligand.torsion>
0.1404

> <Gold.PLP.Chemscore.Hbond>
2.3088

> <Gold.PLP.Chemscore.CHOScore>
0.0000

> <Gold.PLP.Chemscore.Metal>
0.0000

> <Gold.Chemscore.Hbonds>
donor molecule, donor type, donor heavy atom, donor atom, acceptor molecule, acceptor atom, score
      L1  H    10    23       P1  4036  0.39
      P1  H  4748  4755       L1    17  0.88
      P1  H  4756  4762       L1    17  1.00

> <Gold.PLP.Chemscore.Internal.Correction>
   9.000000E+99

