#       Name:                CT1002167954
#       Creating user name   hitesit
#       Creation time:       Sun Apr 16 22:56:16 2023


#       File generated by GOLD software.
#

@<TRIPOS>MOLECULE
CT1002167954|ligand_prepared|mol2|1|dock9
    29    30     1
SMALL
NO_CHARGES


@<TRIPOS>ATOM
      1 C1         137.0637 141.9748 165.9475 C.3            1 RES1               0.0000
      2 C2         136.2287 140.8518 165.2992 C.ar           1 RES1               0.0000
      3 C3         138.1536 142.3335 164.9417 C.2            1 RES1               0.0000
      4 C4         136.0922 143.1119 166.2440 C.2            1 RES1               0.0000
      5 C5         137.7382 141.5638 167.2770 C.3            1 RES1               0.0000
      6 C6         135.4477 140.0072 166.0823 C.ar           1 RES1               0.0000
      7 C7         136.2271 140.6502 163.9215 C.ar           1 RES1               0.0000
      8 N8         138.0252 143.5096 164.2634 N.am           1 RES1               0.0000
      9 O9         139.0909 141.5773 164.7184 O.2            1 RES1               0.0000
     10 N10        136.2541 144.2891 165.5617 N.am           1 RES1               0.0000
     11 O11        135.1778 142.9934 167.0503 O.2            1 RES1               0.0000
     12 C12        138.7602 142.5698 167.7827 C.3            1 RES1               0.0000
     13 C13        134.6902 138.9994 165.5089 C.ar           1 RES1               0.0000
     14 C14        135.4690 139.6416 163.3501 C.ar           1 RES1               0.0000
     15 C15        137.1576 144.5292 164.5625 C.2            1 RES1               0.0000
     16 C16        134.7000 138.8162 164.1425 C.ar           1 RES1               0.0000
     17 O17        137.2063 145.5965 163.9578 O.2            1 RES1               0.0000
     18 H18        136.9621 141.4342 168.0414 H              1 RES1               0.0000
     19 H19        138.2352 140.5960 167.1364 H              1 RES1               0.0000
     20 H20        135.4293 140.1346 167.1596 H              1 RES1               0.0000
     21 H21        136.8254 141.2868 163.2786 H              1 RES1               0.0000
     22 H22        138.6301 143.6434 163.4593 H              1 RES1               0.0000
     23 H23        135.6447 145.0578 165.8228 H              1 RES1               0.0000
     24 H24        139.2030 142.2329 168.7177 H              1 RES1               0.0000
     25 H25        139.5603 142.7043 167.0579 H              1 RES1               0.0000
     26 H26        138.2948 143.5376 167.9575 H              1 RES1               0.0000
     27 H27        134.0877 138.3516 166.1371 H              1 RES1               0.0000
     28 H28        135.4802 139.5006 162.2743 H              1 RES1               0.0000
     29 H29        134.1062 138.0268 163.6935 H              1 RES1               0.0000
@<TRIPOS>BOND
    1    1    2 1     
    2    1    3 1     
    3    1    4 1     
    4    1    5 1     
    5    2    6 ar    
    6    2    7 ar    
    7    3    8 1     
    8    3    9 2     
    9    4   10 1     
   10    4   11 2     
   11    5   12 1     
   12    5   18 1     
   13    5   19 1     
   14    6   13 ar    
   15    6   20 1     
   16    7   14 ar    
   17    7   21 1     
   18    8   15 1     
   19    8   22 1     
   20   10   15 1     
   21   10   23 1     
   22   12   24 1     
   23   12   25 1     
   24   12   26 1     
   25   13   16 ar    
   26   13   27 1     
   27   14   16 ar    
   28   14   28 1     
   29   15   17 2     
   30   16   29 1     
@<TRIPOS>SUBSTRUCTURE
      1 RES1           1
@<TRIPOS>SET
DONOR_HYDROGENS      STATIC     ATOMS    <user>   **** ""
2 22 23
ATOM$RED        STATIC     ATOMS    COLORGROUP SYSTEM
2 22 23
@<TRIPOS>COMMENT
> <Gold.Version>
2022.3.0

> <Gold.Id.Protein>
unknown|7rmi_cavity_clean|pdb

> <Gold.Protein.RotatedTorsions>
[  294  288  286  283 ] final  -14.94 input   60.03 | X-H torsion
[  301  289  290  291 ] final  -16.12 input  115.34 | X-H torsion
[ 4333 4325 4326 4327 ] final   46.08 input   58.17 | X-H torsion
[  162  159  158  157 ] final -174.31 input   59.97 | X-H torsion
[  352  334  335  336 ] final   76.55 input   81.54 | X-H torsion
[ 1783 1767 1768 1769 ] final  -91.85 input  110.17 | X-H torsion
[  113  103  104  105 ] final  126.04 input  112.99 | X-H torsion
[   82   64   65   66 ] final  -21.09 input  112.25 | X-H torsion
[ 1807 1802 1800 1797 ] final   58.78 input   60.00 | X-H torsion
[  208  204  203  201 ] final  -91.73 input   60.02 | X-H torsion
[ 1839 1834 1833 1830 ] final   36.04 input   59.99 | X-H torsion
[ 3268 3259 3258 3256 ] final  -26.05 input   59.98 | X-H torsion
[ 4684 4679 4678 4675 ] final  -45.65 input   59.98 | X-H torsion
[ 2741 2733 2732 2730 ] final  163.70 input   60.00 | X-H torsion
[ 3932 3927 3928 3929 ] final  144.11 input   88.25 | X-H torsion
[ 2774 2765 2764 2762 ] final -166.86 input   60.03 | X-H torsion
[ 3980 3972 3973 3974 ] final   71.43 input   60.58 | X-H torsion
[ 4755 4748 4746 4743 ] final  103.39 input   60.02 | X-H torsion
[ 1184 1170 1171 1172 ] final  177.26 input   67.97 | X-H torsion
[  880  862  863  864 ] final   56.60 input   59.67 | X-H torsion
[ 4018 4013 4012 4010 ] final -139.74 input   60.01 | X-H torsion
[ 8045 8035 8034 8033 ] final  151.97 input   59.99 | X-H torsion
[ 1224 1222 1220 1217 ] final   19.61 input   59.96 | X-H torsion
[  249  225  226  227 ] final  -81.30 input   51.53 | X-H torsion
[ 14304  292  291  290 ] final  141.10 input    0.00 | X-H torsion
[ 14309 4328 4327 4326 ] final  134.68 input   -0.00 | X-H torsion
[ 14335  337  336  335 ] final  103.46 input   -0.00 | X-H torsion
[ 14354 1770 1769 1768 ] final   -8.75 input   -0.00 | X-H torsion
[ 14365  106  105  104 ] final -169.48 input    0.00 | X-H torsion
[ 14370   67   66   65 ] final  -62.62 input   -0.00 | X-H torsion
[ 14441 3930 3929 3928 ] final -123.25 input   -0.00 | X-H torsion
[ 14473 3975 3974 3973 ] final  170.77 input   -0.00 | X-H torsion
[ 14486 1173 1172 1171 ] final -120.40 input   -0.00 | X-H torsion
[ 14497  865  864  863 ] final  104.15 input   -0.00 | X-H torsion
[ 14524  228  227  226 ] final  -27.55 input    0.00 | X-H torsion

> <Gold.Protein.ActiveResidues>
 GLU27   LEU30   GLN31   ASP33   LYS34   GLN35   VAL36   TYR37   ARG38   THR40  
 HIS41   ARG42   GLU209  HIS220  PHE222  GLN236  ASN239  ASP240  VAL241  THR242 
 ARG280  TRP281  LEU282  ARG283  THR284  ILE285  SER286  VAL287  ILE288  GLY355 
 ARG356  HIS357  TYR358  CYS359  TYR360  ASP381  ILE382  ILE383  GLN385  MET386 
 ASN387  LEU388  ARG389  GLU390  TYR391  VAL394  ALA56   LYS57   ILE58   TYR59  
 ALA60   MET61   LEU79   ILE80   ILE81   TRP82   ILE93   SER98   TRP99   VAL100 
 MET101  THR102  CYS103  GLY310  HIS311  ASP312  ASN313  TRP332  ASP333  SER334 
 PHE335  LYS337 

> <Gold.Protein.RotatedAtoms>
  113.8979  152.5316  180.6475 H   0  0  0  0  0  0  0  0  0  0  0  0  # atno 82   bound_to 64  
  109.1219  134.3025   96.6821 H   0  0  0  0  0  0  0  0  0  0  0  0  # atno 113  bound_to 103 
  143.7161  139.5754  141.8349 H   0  0  0  0  0  0  0  0  0  0  0  0  # atno 162  bound_to 159 
  144.8336  139.3391  140.6336 H   0  0  0  0  0  0  0  0  0  0  0  0  # atno 163  bound_to 159 
  144.8818  138.4096  142.0052 H   0  0  0  0  0  0  0  0  0  0  0  0  # atno 164  bound_to 159 
  144.3444  133.2154  150.0281 H   0  0  0  0  0  0  0  0  0  0  0  0  # atno 208  bound_to 204 
  130.4663  114.3791  180.4043 H   0  0  0  0  0  0  0  0  0  0  0  0  # atno 249  bound_to 225 
  152.9664  129.1898  145.8907 H   0  0  0  0  0  0  0  0  0  0  0  0  # atno 294  bound_to 288 
  114.7678  136.4172  110.1427 H   0  0  0  0  0  0  0  0  0  0  0  0  # atno 301  bound_to 289 
  115.0650  159.1870  159.1680 H   0  0  0  0  0  0  0  0  0  0  0  0  # atno 352  bound_to 334 
  130.8858  142.7878  183.9800 H   0  0  0  0  0  0  0  0  0  0  0  0  # atno 880  bound_to 862 
  131.4587  157.8606  180.7333 H   0  0  0  0  0  0  0  0  0  0  0  0  # atno 1184 bound_to 1170
  143.5273  126.7083  149.2477 H   0  0  0  0  0  0  0  0  0  0  0  0  # atno 1224 bound_to 1222
  125.2186  159.0115  170.4756 H   0  0  0  0  0  0  0  0  0  0  0  0  # atno 1783 bound_to 1767
  131.4122  127.6556  152.8577 H   0  0  0  0  0  0  0  0  0  0  0  0  # atno 1807 bound_to 1802
  138.6326  119.7356  150.6757 H   0  0  0  0  0  0  0  0  0  0  0  0  # atno 1839 bound_to 1834
  129.9227  117.4982  144.0633 H   0  0  0  0  0  0  0  0  0  0  0  0  # atno 2741 bound_to 2733
  138.0329  116.1080  144.9152 H   0  0  0  0  0  0  0  0  0  0  0  0  # atno 2774 bound_to 2765
  138.9900  131.0491  134.2884 H   0  0  0  0  0  0  0  0  0  0  0  0  # atno 3268 bound_to 3259
  114.1145  117.2067  167.3126 H   0  0  0  0  0  0  0  0  0  0  0  0  # atno 3932 bound_to 3927
  118.3937  112.8452  166.8885 H   0  0  0  0  0  0  0  0  0  0  0  0  # atno 3980 bound_to 3972
  137.4786  137.6252  164.7467 H   0  0  0  0  0  0  0  0  0  0  0  0  # atno 4018 bound_to 4013
  116.9156  120.1347  182.2400 H   0  0  0  0  0  0  0  0  0  0  0  0  # atno 4333 bound_to 4325
  148.0604  135.1067  156.5757 H   0  0  0  0  0  0  0  0  0  0  0  0  # atno 4684 bound_to 4679
  142.9939  144.4595  167.7767 H   0  0  0  0  0  0  0  0  0  0  0  0  # atno 4755 bound_to 4748
  132.3080  147.0459  147.9286 H   0  0  0  0  0  0  0  0  0  0  0  0  # atno 8045 bound_to 8035
  133.4960  148.0826  148.4391 H   0  0  0  0  0  0  0  0  0  0  0  0  # atno 8046 bound_to 8035
  132.7253  147.1028  149.5321 H   0  0  0  0  0  0  0  0  0  0  0  0  # atno 8047 bound_to 8035
  153.6363  129.4907  147.3428 LP  0  0  0  0  0  0  0  0  0  0  0  0  # atno 14301 bound_to 288 
  152.8968  130.6899  146.5173 LP  0  0  0  0  0  0  0  0  0  0  0  0  # atno 14302 bound_to 288 
  114.0466  137.5823  109.0593 LP  0  0  0  0  0  0  0  0  0  0  0  0  # atno 14303 bound_to 289 
  113.5065  137.2919  114.3024 LP  0  0  0  0  0  0  0  0  0  0  0  0  # atno 14304 bound_to 292 
  114.7379  138.2066  113.4979 LP  0  0  0  0  0  0  0  0  0  0  0  0  # atno 14305 bound_to 292 
  115.8613  120.7075  180.9616 LP  0  0  0  0  0  0  0  0  0  0  0  0  # atno 14308 bound_to 4325
  116.8420  117.2273  183.1986 LP  0  0  0  0  0  0  0  0  0  0  0  0  # atno 14309 bound_to 4328
  118.2340  118.1252  182.6925 LP  0  0  0  0  0  0  0  0  0  0  0  0  # atno 14310 bound_to 4328
  115.3215  158.0934  160.5085 LP  0  0  0  0  0  0  0  0  0  0  0  0  # atno 14334 bound_to 334 
  118.0426  159.9048  158.7343 LP  0  0  0  0  0  0  0  0  0  0  0  0  # atno 14335 bound_to 337 
  117.5759  159.4649  157.1254 LP  0  0  0  0  0  0  0  0  0  0  0  0  # atno 14336 bound_to 337 
  125.3253  160.0123  169.0482 LP  0  0  0  0  0  0  0  0  0  0  0  0  # atno 14353 bound_to 1767
  121.9850  156.9843  169.5054 LP  0  0  0  0  0  0  0  0  0  0  0  0  # atno 14354 bound_to 1770
  122.3424  156.2597  167.9733 LP  0  0  0  0  0  0  0  0  0  0  0  0  # atno 14355 bound_to 1770
  108.5968  134.4960   98.3366 LP  0  0  0  0  0  0  0  0  0  0  0  0  # atno 14364 bound_to 103 
  112.1110  135.3451  100.7639 LP  0  0  0  0  0  0  0  0  0  0  0  0  # atno 14365 bound_to 106 
  112.1869  133.7164  100.1793 LP  0  0  0  0  0  0  0  0  0  0  0  0  # atno 14366 bound_to 106 
  115.4365  151.7554  180.9275 LP  0  0  0  0  0  0  0  0  0  0  0  0  # atno 14369 bound_to 64  
  114.4457  156.1059  179.6039 LP  0  0  0  0  0  0  0  0  0  0  0  0  # atno 14370 bound_to 67  
  114.8669  155.9795  177.9286 LP  0  0  0  0  0  0  0  0  0  0  0  0  # atno 14371 bound_to 67  
  130.8702  127.4640  151.3349 LP  0  0  0  0  0  0  0  0  0  0  0  0  # atno 14376 bound_to 1802
  131.8371  128.7261  151.7076 LP  0  0  0  0  0  0  0  0  0  0  0  0  # atno 14377 bound_to 1802
  143.7094  134.7054  149.8681 LP  0  0  0  0  0  0  0  0  0  0  0  0  # atno 14384 bound_to 204 
  144.7060  134.3695  151.1173 LP  0  0  0  0  0  0  0  0  0  0  0  0  # atno 14385 bound_to 204 
  137.9285  120.6840  149.5565 LP  0  0  0  0  0  0  0  0  0  0  0  0  # atno 14407 bound_to 1834
  138.0697  119.0779  149.2978 LP  0  0  0  0  0  0  0  0  0  0  0  0  # atno 14408 bound_to 1834
  139.7135  129.6154  134.5513 LP  0  0  0  0  0  0  0  0  0  0  0  0  # atno 14411 bound_to 3259
  139.0278  130.4269  135.7915 LP  0  0  0  0  0  0  0  0  0  0  0  0  # atno 14412 bound_to 3259
  148.5675  134.0706  155.4274 LP  0  0  0  0  0  0  0  0  0  0  0  0  # atno 14415 bound_to 4679
  148.8763  135.6677  155.2839 LP  0  0  0  0  0  0  0  0  0  0  0  0  # atno 14416 bound_to 4679
  128.9700  116.4218  144.8258 LP  0  0  0  0  0  0  0  0  0  0  0  0  # atno 14432 bound_to 2733
  129.9938  115.9247  143.6548 LP  0  0  0  0  0  0  0  0  0  0  0  0  # atno 14433 bound_to 2733
  115.2990  116.3200  168.2450 LP  0  0  0  0  0  0  0  0  0  0  0  0  # atno 14440 bound_to 3927
  116.8996  113.1346  166.9712 LP  0  0  0  0  0  0  0  0  0  0  0  0  # atno 14441 bound_to 3930
  115.7115  112.8959  165.7337 LP  0  0  0  0  0  0  0  0  0  0  0  0  # atno 14442 bound_to 3930
  136.5597  116.0209  145.6009 LP  0  0  0  0  0  0  0  0  0  0  0  0  # atno 14465 bound_to 2765
  137.0663  114.8386  144.5949 LP  0  0  0  0  0  0  0  0  0  0  0  0  # atno 14466 bound_to 2765
  119.2161  114.3748  167.1231 LP  0  0  0  0  0  0  0  0  0  0  0  0  # atno 14472 bound_to 3972
  121.0513  110.3594  167.2917 LP  0  0  0  0  0  0  0  0  0  0  0  0  # atno 14473 bound_to 3975
  119.3843  110.8296  167.2803 LP  0  0  0  0  0  0  0  0  0  0  0  0  # atno 14474 bound_to 3975
  144.0377  145.0867  166.6971 LP  0  0  0  0  0  0  0  0  0  0  0  0  # atno 14479 bound_to 4748
  144.5643  144.6218  168.1713 LP  0  0  0  0  0  0  0  0  0  0  0  0  # atno 14480 bound_to 4748
  130.7203  156.7824  179.5681 LP  0  0  0  0  0  0  0  0  0  0  0  0  # atno 14485 bound_to 1170
  127.9420  154.2327  182.0880 LP  0  0  0  0  0  0  0  0  0  0  0  0  # atno 14486 bound_to 1173
  127.3741  155.8689  182.1046 LP  0  0  0  0  0  0  0  0  0  0  0  0  # atno 14487 bound_to 1173
  130.2044  143.0908  185.5649 LP  0  0  0  0  0  0  0  0  0  0  0  0  # atno 14496 bound_to 862 
  129.8340  140.7125  182.3775 LP  0  0  0  0  0  0  0  0  0  0  0  0  # atno 14497 bound_to 865 
  129.1122  141.9261  181.3745 LP  0  0  0  0  0  0  0  0  0  0  0  0  # atno 14498 bound_to 865 
  138.5157  136.3811  164.5907 LP  0  0  0  0  0  0  0  0  0  0  0  0  # atno 14501 bound_to 4013
  137.2347  136.5109  163.5863 LP  0  0  0  0  0  0  0  0  0  0  0  0  # atno 14502 bound_to 4013
  143.4898  126.0376  147.7652 LP  0  0  0  0  0  0  0  0  0  0  0  0  # atno 14519 bound_to 1222
  144.8367  125.9247  148.6815 LP  0  0  0  0  0  0  0  0  0  0  0  0  # atno 14520 bound_to 1222
  130.3928  112.8242  179.6063 LP  0  0  0  0  0  0  0  0  0  0  0  0  # atno 14523 bound_to 225 
  132.9870  112.4829  180.0515 LP  0  0  0  0  0  0  0  0  0  0  0  0  # atno 14524 bound_to 228 
  134.1248  113.3075  181.0642 LP  0  0  0  0  0  0  0  0  0  0  0  0  # atno 14525 bound_to 228 

> <Gold.Score>
     Fitness  S(hb_ext) S(vdw_ext)  S(hb_int)    S(int)      intcor
     38.15       0.10      28.41       0.00      -1.01      -0.76

> <Gold.Goldscore.Fitness>
38.1499

> <Gold.Goldscore.Internal.Vdw>
-1.2187

> <Gold.Goldscore.Internal.Torsion>
-0.5535

> <Gold.Goldscore.External.Vdw>
28.4097

> <Gold.Goldscore.Internal.HBond>
0.0000

> <Gold.Goldscore.External.HBond>
0.1004

> <Gold.Goldscore.Internal.Correction>
-0.7585

> <Gold.Goldscore.Hbonds>
donor molecule, donor type, donor heavy atom, donor atom, acceptor molecule, acceptor atom, score
      L1  H     8    22       P1  4005  0.05

> <Gold.Goldscore.Internal.Vdw.Weighted>
-1.2187

> <Gold.Goldscore.Internal.Torsion.Weighted>
-0.5535

> <Gold.Goldscore.External.Vdw.Weighted>
39.0633

> <Gold.Goldscore.Internal.HBond.Weighted>
0.0000

> <Gold.Goldscore.External.HBond.Weighted>
0.1004

> <Gold.Goldscore.Internal.Correction.Weighted>
-0.7585

> <Gold.Rescore>
     Score     S(PLP)   S(hbond)     S(cho)   S(metal)  DE(clash)   DE(tors)     intcor
     28.51     -30.22       0.00       0.00       0.00       0.00       0.85       ----

> <Gold.PLP.Fitness>
28.5136

> <Gold.PLP.PLP>
-30.2191

> <Gold.PLP.part.hbond>
-0.7599

> <Gold.PLP.part.metal>
0.0000

> <Gold.PLP.part.buried>
-4.2812

> <Gold.PLP.part.nonpolar>
-30.8046

> <Gold.PLP.part.repulsive>
5.0384

> <Gold.PLP.ligand.clash>
0.0000

> <Gold.PLP.ligand.torsion>
0.8528

> <Gold.PLP.Chemscore.Hbond>
0.0000

> <Gold.PLP.Chemscore.CHOScore>
0.0000

> <Gold.PLP.Chemscore.Metal>
0.0000

> <Gold.Chemscore.Hbonds>
donor molecule, donor type, donor heavy atom, donor atom, acceptor molecule, acceptor atom, score
      L1  H     8    22       P1  4005  0.16

> <Gold.PLP.Chemscore.Internal.Correction>
   9.000000E+99

