#       Name:                CT1002167954
#       Creating user name   hitesit
#       Creation time:       Sun Apr 16 22:55:27 2023


#       File generated by GOLD software.
#

@<TRIPOS>MOLECULE
CT1002167954|ligand_prepared|mol2|1|dock5
    29    30     1
SMALL
NO_CHARGES


@<TRIPOS>ATOM
      1 C1         137.9403 142.2190 166.0321 C.3            1 RES1               0.0000
      2 C2         137.4885 140.7591 166.2406 C.ar           1 RES1               0.0000
      3 C3         137.1038 143.0668 166.9859 C.2            1 RES1               0.0000
      4 C4         139.4367 142.2481 166.3233 C.2            1 RES1               0.0000
      5 C5         137.7235 142.7406 164.5925 C.3            1 RES1               0.0000
      6 C6         136.3357 140.2796 165.6260 C.ar           1 RES1               0.0000
      7 C7         138.2142 139.8810 167.0410 C.ar           1 RES1               0.0000
      8 N8         137.7209 143.5643 168.0957 N.am           1 RES1               0.0000
      9 O9         135.9111 143.2629 166.7878 O.2            1 RES1               0.0000
     10 N10        139.8656 142.9656 167.4091 N.am           1 RES1               0.0000
     11 O11        140.2464 141.6427 165.6319 O.2            1 RES1               0.0000
     12 C12        138.3509 144.1011 164.3323 C.3            1 RES1               0.0000
     13 C13        135.9248 138.9687 165.8027 C.ar           1 RES1               0.0000
     14 C14        137.8014 138.5705 167.2167 C.ar           1 RES1               0.0000
     15 C15        139.0726 143.5997 168.3263 C.2            1 RES1               0.0000
     16 C16        136.6575 138.1133 166.5977 C.ar           1 RES1               0.0000
     17 O17        139.5300 144.1786 169.3075 O.2            1 RES1               0.0000
     18 H18        138.1472 142.0156 163.8867 H              1 RES1               0.0000
     19 H19        136.6457 142.8062 164.3992 H              1 RES1               0.0000
     20 H20        135.7449 140.9388 164.9987 H              1 RES1               0.0000
     21 H21        139.1168 140.2191 167.5387 H              1 RES1               0.0000
     22 H22        137.1219 143.9451 168.8212 H              1 RES1               0.0000
     23 H23        140.8691 143.0333 167.5463 H              1 RES1               0.0000
     24 H24        138.1693 144.4201 163.3081 H              1 RES1               0.0000
     25 H25        137.9342 144.8521 165.0001 H              1 RES1               0.0000
     26 H26        139.4269 144.0662 164.4906 H              1 RES1               0.0000
     27 H27        135.0230 138.6142 165.3145 H              1 RES1               0.0000
     28 H28        138.3808 137.9010 167.8437 H              1 RES1               0.0000
     29 H29        136.3356 137.0864 166.7357 H              1 RES1               0.0000
@<TRIPOS>BOND
    1    1    2 1     
    2    1    3 1     
    3    1    4 1     
    4    1    5 1     
    5    2    6 ar    
    6    2    7 ar    
    7    3    8 1     
    8    3    9 2     
    9    4   10 1     
   10    4   11 2     
   11    5   12 1     
   12    5   18 1     
   13    5   19 1     
   14    6   13 ar    
   15    6   20 1     
   16    7   14 ar    
   17    7   21 1     
   18    8   15 1     
   19    8   22 1     
   20   10   15 1     
   21   10   23 1     
   22   12   24 1     
   23   12   25 1     
   24   12   26 1     
   25   13   16 ar    
   26   13   27 1     
   27   14   16 ar    
   28   14   28 1     
   29   15   17 2     
   30   16   29 1     
@<TRIPOS>SUBSTRUCTURE
      1 RES1           1
@<TRIPOS>SET
DONOR_HYDROGENS      STATIC     ATOMS    <user>   **** ""
2 22 23
ATOM$RED        STATIC     ATOMS    COLORGROUP SYSTEM
2 22 23
@<TRIPOS>COMMENT
> <Gold.Version>
2022.3.0

> <Gold.Id.Protein>
unknown|7rmi_cavity_clean|pdb

> <Gold.Protein.RotatedTorsions>
[  294  288  286  283 ] final  145.49 input   60.03 | X-H torsion
[  301  289  290  291 ] final -102.80 input  115.34 | X-H torsion
[ 4333 4325 4326 4327 ] final -100.85 input   58.17 | X-H torsion
[  162  159  158  157 ] final  -59.56 input   59.97 | X-H torsion
[  352  334  335  336 ] final  -23.47 input   81.54 | X-H torsion
[ 1783 1767 1768 1769 ] final  -86.90 input  110.17 | X-H torsion
[  113  103  104  105 ] final   83.60 input  112.99 | X-H torsion
[   82   64   65   66 ] final -117.43 input  112.25 | X-H torsion
[ 1807 1802 1800 1797 ] final  155.29 input   60.00 | X-H torsion
[  208  204  203  201 ] final  -63.82 input   60.02 | X-H torsion
[ 1839 1834 1833 1830 ] final  -17.79 input   59.99 | X-H torsion
[ 3268 3259 3258 3256 ] final   55.58 input   59.98 | X-H torsion
[ 4684 4679 4678 4675 ] final  131.85 input   59.98 | X-H torsion
[ 2741 2733 2732 2730 ] final  -13.54 input   60.00 | X-H torsion
[ 3932 3927 3928 3929 ] final  157.77 input   88.25 | X-H torsion
[ 2774 2765 2764 2762 ] final  155.29 input   60.03 | X-H torsion
[ 3980 3972 3973 3974 ] final -107.01 input   60.58 | X-H torsion
[ 4755 4748 4746 4743 ] final  135.83 input   60.02 | X-H torsion
[ 1184 1170 1171 1172 ] final  -15.51 input   67.97 | X-H torsion
[  880  862  863  864 ] final -176.89 input   59.67 | X-H torsion
[ 4018 4013 4012 4010 ] final  -27.85 input   60.01 | X-H torsion
[ 8045 8035 8034 8033 ] final -164.86 input   59.99 | X-H torsion
[ 1224 1222 1220 1217 ] final   12.67 input   59.96 | X-H torsion
[  249  225  226  227 ] final  -72.15 input   51.53 | X-H torsion
[ 14304  292  291  290 ] final   72.97 input    0.00 | X-H torsion
[ 14309 4328 4327 4326 ] final   54.90 input   -0.00 | X-H torsion
[ 14335  337  336  335 ] final -130.41 input   -0.00 | X-H torsion
[ 14354 1770 1769 1768 ] final  -99.67 input   -0.00 | X-H torsion
[ 14365  106  105  104 ] final -111.03 input    0.00 | X-H torsion
[ 14370   67   66   65 ] final -109.47 input   -0.00 | X-H torsion
[ 14441 3930 3929 3928 ] final -119.18 input   -0.00 | X-H torsion
[ 14473 3975 3974 3973 ] final   26.01 input   -0.00 | X-H torsion
[ 14486 1173 1172 1171 ] final  -35.17 input   -0.00 | X-H torsion
[ 14497  865  864  863 ] final  126.81 input   -0.00 | X-H torsion
[ 14524  228  227  226 ] final  179.86 input    0.00 | X-H torsion

> <Gold.Protein.ActiveResidues>
 GLU27   LEU30   GLN31   ASP33   LYS34   GLN35   VAL36   TYR37   ARG38   THR40  
 HIS41   ARG42   GLU209  HIS220  PHE222  GLN236  ASN239  ASP240  VAL241  THR242 
 ARG280  TRP281  LEU282  ARG283  THR284  ILE285  SER286  VAL287  ILE288  GLY355 
 ARG356  HIS357  TYR358  CYS359  TYR360  ASP381  ILE382  ILE383  GLN385  MET386 
 ASN387  LEU388  ARG389  GLU390  TYR391  VAL394  ALA56   LYS57   ILE58   TYR59  
 ALA60   MET61   LEU79   ILE80   ILE81   TRP82   ILE93   SER98   TRP99   VAL100 
 MET101  THR102  CYS103  GLY310  HIS311  ASP312  ASN313  TRP332  ASP333  SER334 
 PHE335  LYS337 

> <Gold.Protein.RotatedAtoms>
  114.8494  152.5442  181.5510 H   0  0  0  0  0  0  0  0  0  0  0  0  # atno 82   bound_to 64  
  109.2106  134.9017   96.8841 H   0  0  0  0  0  0  0  0  0  0  0  0  # atno 113  bound_to 103 
  144.7701  139.3996  140.6278 H   0  0  0  0  0  0  0  0  0  0  0  0  # atno 162  bound_to 159 
  144.9391  138.4000  141.9394 H   0  0  0  0  0  0  0  0  0  0  0  0  # atno 163  bound_to 159 
  143.7222  139.5250  141.9058 H   0  0  0  0  0  0  0  0  0  0  0  0  # atno 164  bound_to 159 
  144.6016  133.2275  150.3994 H   0  0  0  0  0  0  0  0  0  0  0  0  # atno 208  bound_to 204 
  130.6019  114.3808  180.3637 H   0  0  0  0  0  0  0  0  0  0  0  0  # atno 249  bound_to 225 
  153.2098  130.5826  147.0758 H   0  0  0  0  0  0  0  0  0  0  0  0  # atno 294  bound_to 288 
  115.1437  137.4762  109.6910 H   0  0  0  0  0  0  0  0  0  0  0  0  # atno 301  bound_to 289 
  115.9537  158.9595  160.1712 H   0  0  0  0  0  0  0  0  0  0  0  0  # atno 352  bound_to 334 
  130.4136  143.7392  185.1669 H   0  0  0  0  0  0  0  0  0  0  0  0  # atno 880  bound_to 862 
  130.8436  156.6350  179.6154 H   0  0  0  0  0  0  0  0  0  0  0  0  # atno 1184 bound_to 1170
  143.4370  126.7125  149.1792 H   0  0  0  0  0  0  0  0  0  0  0  0  # atno 1224 bound_to 1222
  125.2417  158.9532  170.4324 H   0  0  0  0  0  0  0  0  0  0  0  0  # atno 1783 bound_to 1767
  131.9209  128.6995  152.0800 H   0  0  0  0  0  0  0  0  0  0  0  0  # atno 1807 bound_to 1802
  138.3939  120.5184  150.4555 H   0  0  0  0  0  0  0  0  0  0  0  0  # atno 1839 bound_to 1834
  129.3102  115.7504  144.3324 H   0  0  0  0  0  0  0  0  0  0  0  0  # atno 2741 bound_to 2733
  137.6841  116.4288  145.2949 H   0  0  0  0  0  0  0  0  0  0  0  0  # atno 2774 bound_to 2765
  138.8161  130.9244  135.4934 H   0  0  0  0  0  0  0  0  0  0  0  0  # atno 3268 bound_to 3259
  113.9775  117.0964  167.4288 H   0  0  0  0  0  0  0  0  0  0  0  0  # atno 3932 bound_to 3927
  119.2630  114.3853  167.1428 H   0  0  0  0  0  0  0  0  0  0  0  0  # atno 3980 bound_to 3972
  137.1603  136.6186  163.6105 H   0  0  0  0  0  0  0  0  0  0  0  0  # atno 4018 bound_to 4013
  115.5737  120.3708  181.1966 H   0  0  0  0  0  0  0  0  0  0  0  0  # atno 4333 bound_to 4325
  148.9501  134.8305  154.9511 H   0  0  0  0  0  0  0  0  0  0  0  0  # atno 4684 bound_to 4679
  143.2915  144.3574  168.1944 H   0  0  0  0  0  0  0  0  0  0  0  0  # atno 4755 bound_to 4748
  132.7572  147.5318  147.6877 H   0  0  0  0  0  0  0  0  0  0  0  0  # atno 8045 bound_to 8035
  133.4842  147.9233  149.1248 H   0  0  0  0  0  0  0  0  0  0  0  0  # atno 8046 bound_to 8035
  132.2877  146.7762  149.0868 H   0  0  0  0  0  0  0  0  0  0  0  0  # atno 8047 bound_to 8035
  152.7376  129.7789  145.7421 LP  0  0  0  0  0  0  0  0  0  0  0  0  # atno 14301 bound_to 288 
  153.5503  128.9987  146.9242 LP  0  0  0  0  0  0  0  0  0  0  0  0  # atno 14302 bound_to 288 
  113.6782  136.5447  109.5019 LP  0  0  0  0  0  0  0  0  0  0  0  0  # atno 14303 bound_to 289 
  113.3752  138.1850  113.9467 LP  0  0  0  0  0  0  0  0  0  0  0  0  # atno 14304 bound_to 292 
  114.8692  137.3135  113.8536 LP  0  0  0  0  0  0  0  0  0  0  0  0  # atno 14305 bound_to 292 
  117.1474  120.4813  181.9616 LP  0  0  0  0  0  0  0  0  0  0  0  0  # atno 14308 bound_to 4325
  116.9971  118.3254  183.1354 LP  0  0  0  0  0  0  0  0  0  0  0  0  # atno 14309 bound_to 4328
  118.0789  117.0271  182.7557 LP  0  0  0  0  0  0  0  0  0  0  0  0  # atno 14310 bound_to 4328
  114.4582  158.3144  159.5340 LP  0  0  0  0  0  0  0  0  0  0  0  0  # atno 14334 bound_to 334 
  118.3407  159.4270  157.2965 LP  0  0  0  0  0  0  0  0  0  0  0  0  # atno 14335 bound_to 337 
  117.2778  159.9427  158.5632 LP  0  0  0  0  0  0  0  0  0  0  0  0  # atno 14336 bound_to 337 
  125.3027  160.0695  169.0905 LP  0  0  0  0  0  0  0  0  0  0  0  0  # atno 14353 bound_to 1767
  122.7933  156.1459  169.0958 LP  0  0  0  0  0  0  0  0  0  0  0  0  # atno 14354 bound_to 1770
  121.5342  157.0981  168.3829 LP  0  0  0  0  0  0  0  0  0  0  0  0  # atno 14355 bound_to 1770
  108.5098  133.9086   98.1385 LP  0  0  0  0  0  0  0  0  0  0  0  0  # atno 14364 bound_to 103 
  111.5077  134.7969  100.9893 LP  0  0  0  0  0  0  0  0  0  0  0  0  # atno 14365 bound_to 106 
  112.7901  134.2646   99.9539 LP  0  0  0  0  0  0  0  0  0  0  0  0  # atno 14366 bound_to 106 
  114.5013  151.7430  180.0394 LP  0  0  0  0  0  0  0  0  0  0  0  0  # atno 14369 bound_to 64  
  113.8996  156.0890  179.1849 LP  0  0  0  0  0  0  0  0  0  0  0  0  # atno 14370 bound_to 67  
  115.4130  155.9963  178.3476 LP  0  0  0  0  0  0  0  0  0  0  0  0  # atno 14371 bound_to 67  
  131.1853  127.3885  152.7041 LP  0  0  0  0  0  0  0  0  0  0  0  0  # atno 14376 bound_to 1802
  131.0099  127.7506  151.1214 LP  0  0  0  0  0  0  0  0  0  0  0  0  # atno 14377 bound_to 1802
  143.6746  134.3207  149.6280 LP  0  0  0  0  0  0  0  0  0  0  0  0  # atno 14384 bound_to 204 
  144.4819  134.7420  150.9835 LP  0  0  0  0  0  0  0  0  0  0  0  0  # atno 14385 bound_to 204 
  137.7798  120.0288  149.0303 LP  0  0  0  0  0  0  0  0  0  0  0  0  # atno 14407 bound_to 1834
  138.4587  118.9449  150.0457 LP  0  0  0  0  0  0  0  0  0  0  0  0  # atno 14408 bound_to 1834
  139.2911  130.6156  133.9680 LP  0  0  0  0  0  0  0  0  0  0  0  0  # atno 14411 bound_to 3259
  139.6255  129.5523  135.1614 LP  0  0  0  0  0  0  0  0  0  0  0  0  # atno 14412 bound_to 3259
  148.4115  135.8120  156.1325 LP  0  0  0  0  0  0  0  0  0  0  0  0  # atno 14415 bound_to 4679
  148.1366  134.2043  156.2142 LP  0  0  0  0  0  0  0  0  0  0  0  0  # atno 14416 bound_to 4679
  130.2896  116.7685  143.5249 LP  0  0  0  0  0  0  0  0  0  0  0  0  # atno 14432 bound_to 2733
  129.2914  117.3389  144.6847 LP  0  0  0  0  0  0  0  0  0  0  0  0  # atno 14433 bound_to 2733
  115.4323  116.4273  168.1320 LP  0  0  0  0  0  0  0  0  0  0  0  0  # atno 14440 bound_to 3927
  116.8541  113.1316  167.0124 LP  0  0  0  0  0  0  0  0  0  0  0  0  # atno 14441 bound_to 3930
  115.7570  112.8989  165.6924 LP  0  0  0  0  0  0  0  0  0  0  0  0  # atno 14442 bound_to 3930
  136.3548  115.4932  145.3696 LP  0  0  0  0  0  0  0  0  0  0  0  0  # atno 14465 bound_to 2765
  137.6224  115.0432  144.4438 LP  0  0  0  0  0  0  0  0  0  0  0  0  # atno 14466 bound_to 2765
  118.3806  112.8945  166.8787 LP  0  0  0  0  0  0  0  0  0  0  0  0  # atno 14472 bound_to 3972
  119.6253  111.0898  166.8941 LP  0  0  0  0  0  0  0  0  0  0  0  0  # atno 14473 bound_to 3975
  120.8103  110.0992  167.6779 LP  0  0  0  0  0  0  0  0  0  0  0  0  # atno 14474 bound_to 3975
  143.5221  144.9796  166.7085 LP  0  0  0  0  0  0  0  0  0  0  0  0  # atno 14479 bound_to 4748
  144.7801  144.8319  167.7392 LP  0  0  0  0  0  0  0  0  0  0  0  0  # atno 14480 bound_to 4748
  131.3151  157.9674  180.6490 LP  0  0  0  0  0  0  0  0  0  0  0  0  # atno 14485 bound_to 1170
  128.1638  155.1430  182.7933 LP  0  0  0  0  0  0  0  0  0  0  0  0  # atno 14486 bound_to 1173
  127.1524  154.9585  181.3993 LP  0  0  0  0  0  0  0  0  0  0  0  0  # atno 14487 bound_to 1173
  130.6596  142.1737  184.4208 LP  0  0  0  0  0  0  0  0  0  0  0  0  # atno 14496 bound_to 862 
  129.5733  140.5408  182.2421 LP  0  0  0  0  0  0  0  0  0  0  0  0  # atno 14497 bound_to 865 
  129.3730  142.0977  181.5099 LP  0  0  0  0  0  0  0  0  0  0  0  0  # atno 14498 bound_to 865 
  137.5827  137.6114  164.8285 LP  0  0  0  0  0  0  0  0  0  0  0  0  # atno 14501 bound_to 4013
  138.4884  136.2946  164.4931 LP  0  0  0  0  0  0  0  0  0  0  0  0  # atno 14502 bound_to 4013
  143.5847  125.9839  147.7313 LP  0  0  0  0  0  0  0  0  0  0  0  0  # atno 14519 bound_to 1222
  144.8327  125.9741  148.7844 LP  0  0  0  0  0  0  0  0  0  0  0  0  # atno 14520 bound_to 1222
  130.2612  112.8225  179.6456 LP  0  0  0  0  0  0  0  0  0  0  0  0  # atno 14523 bound_to 225 
  134.2200  112.9113  181.1135 LP  0  0  0  0  0  0  0  0  0  0  0  0  # atno 14524 bound_to 228 
  132.8918  112.8791  180.0022 LP  0  0  0  0  0  0  0  0  0  0  0  0  # atno 14525 bound_to 228 

> <Gold.Score>
     Fitness  S(hb_ext) S(vdw_ext)  S(hb_int)    S(int)      intcor
     33.28       0.00      24.92       0.00      -0.98      -0.76

> <Gold.Goldscore.Fitness>
33.2773

> <Gold.Goldscore.Internal.Vdw>
-1.2650

> <Gold.Goldscore.Internal.Torsion>
-0.4767

> <Gold.Goldscore.External.Vdw>
24.9168

> <Gold.Goldscore.Internal.HBond>
0.0000

> <Gold.Goldscore.External.HBond>
0.0000

> <Gold.Goldscore.Internal.Correction>
-0.7585

> <Gold.Goldscore.Internal.Vdw.Weighted>
-1.2650

> <Gold.Goldscore.Internal.Torsion.Weighted>
-0.4767

> <Gold.Goldscore.External.Vdw.Weighted>
34.2605

> <Gold.Goldscore.Internal.HBond.Weighted>
0.0000

> <Gold.Goldscore.External.HBond.Weighted>
0.0000

> <Gold.Goldscore.Internal.Correction.Weighted>
-0.7585

> <Gold.Rescore>
     Score     S(PLP)   S(hbond)     S(cho)   S(metal)  DE(clash)   DE(tors)     intcor
     28.19     -29.78       0.00       0.00       0.00       1.17       0.20       ----

> <Gold.PLP.Fitness>
28.1948

> <Gold.PLP.PLP>
-29.7765

> <Gold.PLP.part.hbond>
-3.3235

> <Gold.PLP.part.metal>
0.0000

> <Gold.PLP.part.buried>
-2.7069

> <Gold.PLP.part.nonpolar>
-28.7791

> <Gold.PLP.part.repulsive>
4.7213

> <Gold.PLP.ligand.clash>
1.1734

> <Gold.PLP.ligand.torsion>
0.2041

> <Gold.PLP.Chemscore.Hbond>
0.0000

> <Gold.PLP.Chemscore.CHOScore>
0.0000

> <Gold.PLP.Chemscore.Metal>
0.0000

> <Gold.PLP.Chemscore.Internal.Correction>
   9.000000E+99

