#       Name:                CT1002167954
#       Creating user name   hitesit
#       Creation time:       Sun Apr 16 22:55:01 2023


#       File generated by GOLD software.
#

@<TRIPOS>MOLECULE
CT1002167954|ligand_prepared|mol2|1|dock3
    29    30     1
SMALL
NO_CHARGES


@<TRIPOS>ATOM
      1 C1         143.6059 129.8831 146.6459 C.3            1 RES1               0.0000
      2 C2         142.7725 128.8729 145.8312 C.ar           1 RES1               0.0000
      3 C3         142.8819 130.0609 147.9772 C.2            1 RES1               0.0000
      4 C4         145.0012 129.2817 146.7720 C.2            1 RES1               0.0000
      5 C5         143.7419 131.2684 145.9719 C.3            1 RES1               0.0000
      6 C6         142.2977 127.7060 146.4224 C.ar           1 RES1               0.0000
      7 C7         142.4687 129.0950 144.4907 C.ar           1 RES1               0.0000
      8 N8         143.4358 129.4805 149.0800 N.am           1 RES1               0.0000
      9 O9         141.8204 130.6675 148.0513 O.2            1 RES1               0.0000
     10 N10        145.4347 128.9214 148.0210 N.am           1 RES1               0.0000
     11 O11        145.7228 129.1011 145.7988 O.2            1 RES1               0.0000
     12 C12        144.4204 132.3114 146.8459 C.3            1 RES1               0.0000
     13 C13        141.5439 126.7954 145.7006 C.ar           1 RES1               0.0000
     14 C14        141.7150 128.1829 143.7705 C.ar           1 RES1               0.0000
     15 C15        144.7034 128.9651 149.1766 C.2            1 RES1               0.0000
     16 C16        141.2517 127.0334 144.3745 C.ar           1 RES1               0.0000
     17 O17        145.1440 128.5722 150.2530 O.2            1 RES1               0.0000
     18 H18        144.3180 131.1552 145.0453 H              1 RES1               0.0000
     19 H19        142.7417 131.6298 145.7028 H              1 RES1               0.0000
     20 H20        142.5197 127.5005 147.4643 H              1 RES1               0.0000
     21 H21        142.8235 129.9920 143.9946 H              1 RES1               0.0000
     22 H22        142.8536 129.4244 149.9097 H              1 RES1               0.0000
     23 H23        146.3912 128.5900 148.0963 H              1 RES1               0.0000
     24 H24        144.4902 133.2643 146.3254 H              1 RES1               0.0000
     25 H25        143.8602 132.4678 147.7654 H              1 RES1               0.0000
     26 H26        145.4272 131.9960 147.1118 H              1 RES1               0.0000
     27 H27        141.1829 125.8916 146.1801 H              1 RES1               0.0000
     28 H28        141.4879 128.3740 142.7269 H              1 RES1               0.0000
     29 H29        140.6609 126.3201 143.8093 H              1 RES1               0.0000
@<TRIPOS>BOND
    1    1    2 1     
    2    1    3 1     
    3    1    4 1     
    4    1    5 1     
    5    2    6 ar    
    6    2    7 ar    
    7    3    8 1     
    8    3    9 2     
    9    4   10 1     
   10    4   11 2     
   11    5   12 1     
   12    5   18 1     
   13    5   19 1     
   14    6   13 ar    
   15    6   20 1     
   16    7   14 ar    
   17    7   21 1     
   18    8   15 1     
   19    8   22 1     
   20   10   15 1     
   21   10   23 1     
   22   12   24 1     
   23   12   25 1     
   24   12   26 1     
   25   13   16 ar    
   26   13   27 1     
   27   14   16 ar    
   28   14   28 1     
   29   15   17 2     
   30   16   29 1     
@<TRIPOS>SUBSTRUCTURE
      1 RES1           1
@<TRIPOS>SET
DONOR_HYDROGENS      STATIC     ATOMS    <user>   **** ""
2 22 23
ATOM$RED        STATIC     ATOMS    COLORGROUP SYSTEM
2 22 23
@<TRIPOS>COMMENT
> <Gold.Version>
2022.3.0

> <Gold.Id.Protein>
unknown|7rmi_cavity_clean|pdb

> <Gold.Protein.RotatedTorsions>
[  294  288  286  283 ] final  126.34 input   60.03 | X-H torsion
[  301  289  290  291 ] final   76.94 input  115.34 | X-H torsion
[ 4333 4325 4326 4327 ] final -102.84 input   58.17 | X-H torsion
[  162  159  158  157 ] final   -2.45 input   59.97 | X-H torsion
[  352  334  335  336 ] final  -54.40 input   81.54 | X-H torsion
[ 1783 1767 1768 1769 ] final   47.28 input  110.17 | X-H torsion
[  113  103  104  105 ] final   34.54 input  112.99 | X-H torsion
[   82   64   65   66 ] final  151.31 input  112.25 | X-H torsion
[ 1807 1802 1800 1797 ] final  131.28 input   60.00 | X-H torsion
[  208  204  203  201 ] final -112.76 input   60.02 | X-H torsion
[ 1839 1834 1833 1830 ] final -169.57 input   59.99 | X-H torsion
[ 3268 3259 3258 3256 ] final   25.85 input   59.98 | X-H torsion
[ 4684 4679 4678 4675 ] final -153.33 input   59.98 | X-H torsion
[ 2741 2733 2732 2730 ] final  -19.13 input   60.00 | X-H torsion
[ 3932 3927 3928 3929 ] final  -64.43 input   88.25 | X-H torsion
[ 2774 2765 2764 2762 ] final   99.29 input   60.03 | X-H torsion
[ 3980 3972 3973 3974 ] final   57.71 input   60.58 | X-H torsion
[ 4755 4748 4746 4743 ] final   65.75 input   60.02 | X-H torsion
[ 1184 1170 1171 1172 ] final  102.56 input   67.97 | X-H torsion
[  880  862  863  864 ] final   77.46 input   59.67 | X-H torsion
[ 4018 4013 4012 4010 ] final -162.64 input   60.01 | X-H torsion
[ 8045 8035 8034 8033 ] final  104.67 input   59.99 | X-H torsion
[ 1224 1222 1220 1217 ] final -152.92 input   59.96 | X-H torsion
[  249  225  226  227 ] final -120.64 input   51.53 | X-H torsion
[ 14304  292  291  290 ] final    4.88 input    0.00 | X-H torsion
[ 14309 4328 4327 4326 ] final  105.80 input   -0.00 | X-H torsion
[ 14335  337  336  335 ] final  170.61 input   -0.00 | X-H torsion
[ 14354 1770 1769 1768 ] final   57.82 input   -0.00 | X-H torsion
[ 14365  106  105  104 ] final  141.31 input    0.00 | X-H torsion
[ 14370   67   66   65 ] final -103.85 input   -0.00 | X-H torsion
[ 14441 3930 3929 3928 ] final -174.30 input   -0.00 | X-H torsion
[ 14473 3975 3974 3973 ] final  135.57 input   -0.00 | X-H torsion
[ 14486 1173 1172 1171 ] final  164.44 input   -0.00 | X-H torsion
[ 14497  865  864  863 ] final  149.13 input   -0.00 | X-H torsion
[ 14524  228  227  226 ] final   94.23 input    0.00 | X-H torsion

> <Gold.Protein.ActiveResidues>
 GLU27   LEU30   GLN31   ASP33   LYS34   GLN35   VAL36   TYR37   ARG38   THR40  
 HIS41   ARG42   GLU209  HIS220  PHE222  GLN236  ASN239  ASP240  VAL241  THR242 
 ARG280  TRP281  LEU282  ARG283  THR284  ILE285  SER286  VAL287  ILE288  GLY355 
 ARG356  HIS357  TYR358  CYS359  TYR360  ASP381  ILE382  ILE383  GLN385  MET386 
 ASN387  LEU388  ARG389  GLU390  TYR391  VAL394  ALA56   LYS57   ILE58   TYR59  
 ALA60   MET61   LEU79   ILE80   ILE81   TRP82   ILE93   SER98   TRP99   VAL100 
 MET101  THR102  CYS103  GLY310  HIS311  ASP312  ASN313  TRP332  ASP333  SER334 
 PHE335  LYS337 

> <Gold.Protein.RotatedAtoms>
  115.4287  151.6891  180.8317 H   0  0  0  0  0  0  0  0  0  0  0  0  # atno 82   bound_to 64  
  109.0840  135.2524   97.5145 H   0  0  0  0  0  0  0  0  0  0  0  0  # atno 113  bound_to 103 
  145.2263  138.7209  141.0384 H   0  0  0  0  0  0  0  0  0  0  0  0  # atno 162  bound_to 159 
  144.2197  138.7843  142.3540 H   0  0  0  0  0  0  0  0  0  0  0  0  # atno 163  bound_to 159 
  143.9857  139.8192  141.0804 H   0  0  0  0  0  0  0  0  0  0  0  0  # atno 164  bound_to 159 
  144.1333  133.3431  149.7915 H   0  0  0  0  0  0  0  0  0  0  0  0  # atno 208  bound_to 204 
  129.9158  114.1525  180.4556 H   0  0  0  0  0  0  0  0  0  0  0  0  # atno 249  bound_to 225 
  153.0545  130.6854  146.8263 H   0  0  0  0  0  0  0  0  0  0  0  0  # atno 294  bound_to 288 
  113.6643  136.5328  109.5030 H   0  0  0  0  0  0  0  0  0  0  0  0  # atno 301  bound_to 289 
  115.8479  158.5901  160.4473 H   0  0  0  0  0  0  0  0  0  0  0  0  # atno 352  bound_to 334 
  130.9067  143.1098  183.9920 H   0  0  0  0  0  0  0  0  0  0  0  0  # atno 880  bound_to 862 
  130.5757  158.0437  180.1391 H   0  0  0  0  0  0  0  0  0  0  0  0  # atno 1184 bound_to 1170
  144.2683  125.7508  147.8236 H   0  0  0  0  0  0  0  0  0  0  0  0  # atno 1224 bound_to 1222
  125.4871  159.4424  168.9029 H   0  0  0  0  0  0  0  0  0  0  0  0  # atno 1783 bound_to 1767
  131.9145  128.5499  152.4397 H   0  0  0  0  0  0  0  0  0  0  0  0  # atno 1807 bound_to 1802
  137.8632  119.5209  149.0338 H   0  0  0  0  0  0  0  0  0  0  0  0  # atno 1839 bound_to 1834
  129.3674  115.7227  144.2670 H   0  0  0  0  0  0  0  0  0  0  0  0  # atno 2741 bound_to 2733
  136.8779  116.3021  145.6218 H   0  0  0  0  0  0  0  0  0  0  0  0  # atno 2774 bound_to 2765
  138.7770  131.1530  135.0727 H   0  0  0  0  0  0  0  0  0  0  0  0  # atno 3268 bound_to 3259
  114.9309  116.1561  168.4006 H   0  0  0  0  0  0  0  0  0  0  0  0  # atno 3932 bound_to 3927
  118.5755  112.7917  166.7904 H   0  0  0  0  0  0  0  0  0  0  0  0  # atno 3980 bound_to 3972
  137.7852  137.5345  164.9362 H   0  0  0  0  0  0  0  0  0  0  0  0  # atno 4018 bound_to 4013
  115.5835  120.3908  181.1749 H   0  0  0  0  0  0  0  0  0  0  0  0  # atno 4333 bound_to 4325
  148.4669  134.0277  155.5970 H   0  0  0  0  0  0  0  0  0  0  0  0  # atno 4684 bound_to 4679
  142.9905  144.6767  167.2132 H   0  0  0  0  0  0  0  0  0  0  0  0  # atno 4755 bound_to 4748
  132.1533  146.7476  148.6189 H   0  0  0  0  0  0  0  0  0  0  0  0  # atno 8045 bound_to 8035
  133.1089  147.8420  147.8215 H   0  0  0  0  0  0  0  0  0  0  0  0  # atno 8046 bound_to 8035
  133.2674  147.6421  149.4597 H   0  0  0  0  0  0  0  0  0  0  0  0  # atno 8047 bound_to 8035
  152.8255  129.4783  145.7593 LP  0  0  0  0  0  0  0  0  0  0  0  0  # atno 14301 bound_to 288 
  153.6189  129.1957  147.1583 LP  0  0  0  0  0  0  0  0  0  0  0  0  # atno 14302 bound_to 288 
  115.1276  137.4689  109.6860 LP  0  0  0  0  0  0  0  0  0  0  0  0  # atno 14303 bound_to 289 
  114.1809  138.5313  113.5327 LP  0  0  0  0  0  0  0  0  0  0  0  0  # atno 14304 bound_to 292 
  114.0635  136.9672  114.2675 LP  0  0  0  0  0  0  0  0  0  0  0  0  # atno 14305 bound_to 292 
  117.1381  120.4621  181.9823 LP  0  0  0  0  0  0  0  0  0  0  0  0  # atno 14308 bound_to 4325
  116.7237  117.6409  183.2383 LP  0  0  0  0  0  0  0  0  0  0  0  0  # atno 14309 bound_to 4328
  118.3523  117.7116  182.6528 LP  0  0  0  0  0  0  0  0  0  0  0  0  # atno 14310 bound_to 4328
  114.5611  158.6732  159.2658 LP  0  0  0  0  0  0  0  0  0  0  0  0  # atno 14334 bound_to 334 
  118.6632  159.6240  158.0609 LP  0  0  0  0  0  0  0  0  0  0  0  0  # atno 14335 bound_to 337 
  116.9554  159.7457  157.7988 LP  0  0  0  0  0  0  0  0  0  0  0  0  # atno 14336 bound_to 337 
  125.0620  159.5898  170.5905 LP  0  0  0  0  0  0  0  0  0  0  0  0  # atno 14353 bound_to 1767
  121.5176  157.1976  168.7056 LP  0  0  0  0  0  0  0  0  0  0  0  0  # atno 14354 bound_to 1770
  122.8099  156.0464  168.7731 LP  0  0  0  0  0  0  0  0  0  0  0  0  # atno 14355 bound_to 1770
  108.6339  133.5648   97.5206 LP  0  0  0  0  0  0  0  0  0  0  0  0  # atno 14364 bound_to 103 
  112.6761  135.2048  100.3384 LP  0  0  0  0  0  0  0  0  0  0  0  0  # atno 14365 bound_to 106 
  111.6217  133.8567  100.6047 LP  0  0  0  0  0  0  0  0  0  0  0  0  # atno 14366 bound_to 106 
  113.9318  152.5835  180.7465 LP  0  0  0  0  0  0  0  0  0  0  0  0  # atno 14369 bound_to 64  
  113.9444  156.0930  179.2568 LP  0  0  0  0  0  0  0  0  0  0  0  0  # atno 14370 bound_to 67  
  115.3682  155.9923  178.2757 LP  0  0  0  0  0  0  0  0  0  0  0  0  # atno 14371 bound_to 67  
  130.9870  127.2126  152.4150 LP  0  0  0  0  0  0  0  0  0  0  0  0  # atno 14376 bound_to 1802
  131.2146  128.0771  151.0484 LP  0  0  0  0  0  0  0  0  0  0  0  0  # atno 14377 bound_to 1802
  143.8207  134.9052  150.1252 LP  0  0  0  0  0  0  0  0  0  0  0  0  # atno 14384 bound_to 204 
  144.8071  134.0411  151.0983 LP  0  0  0  0  0  0  0  0  0  0  0  0  # atno 14385 bound_to 204 
  138.6096  119.2285  150.4499 LP  0  0  0  0  0  0  0  0  0  0  0  0  # atno 14407 bound_to 1834
  138.1633  120.7496  150.0576 LP  0  0  0  0  0  0  0  0  0  0  0  0  # atno 14408 bound_to 1834
  139.5168  130.1884  133.9910 LP  0  0  0  0  0  0  0  0  0  0  0  0  # atno 14411 bound_to 3259
  139.4391  129.7493  135.5620 LP  0  0  0  0  0  0  0  0  0  0  0  0  # atno 14412 bound_to 3259
  148.9306  135.5234  155.1529 LP  0  0  0  0  0  0  0  0  0  0  0  0  # atno 14415 bound_to 4679
  148.1040  135.3011  156.5436 LP  0  0  0  0  0  0  0  0  0  0  0  0  # atno 14416 bound_to 4679
  130.2856  116.8574  143.5478 LP  0  0  0  0  0  0  0  0  0  0  0  0  # atno 14432 bound_to 2733
  129.2378  117.2779  144.7276 LP  0  0  0  0  0  0  0  0  0  0  0  0  # atno 14433 bound_to 2733
  114.5053  117.3414  167.1871 LP  0  0  0  0  0  0  0  0  0  0  0  0  # atno 14440 bound_to 3927
  117.1615  113.1197  166.2724 LP  0  0  0  0  0  0  0  0  0  0  0  0  # atno 14441 bound_to 3930
  115.4496  112.9108  166.4324 LP  0  0  0  0  0  0  0  0  0  0  0  0  # atno 14442 bound_to 3930
  136.7061  114.8991  144.8152 LP  0  0  0  0  0  0  0  0  0  0  0  0  # atno 14465 bound_to 2765
  138.0829  115.7650  144.6691 LP  0  0  0  0  0  0  0  0  0  0  0  0  # atno 14466 bound_to 2765
  119.0413  114.4262  167.2173 LP  0  0  0  0  0  0  0  0  0  0  0  0  # atno 14472 bound_to 3972
  120.9870  110.7054  166.9038 LP  0  0  0  0  0  0  0  0  0  0  0  0  # atno 14473 bound_to 3975
  119.4486  110.4837  167.6681 LP  0  0  0  0  0  0  0  0  0  0  0  0  # atno 14474 bound_to 3975
  144.5572  145.0683  167.0129 LP  0  0  0  0  0  0  0  0  0  0  0  0  # atno 14479 bound_to 4748
  144.0482  144.4215  168.4232 LP  0  0  0  0  0  0  0  0  0  0  0  0  # atno 14480 bound_to 4748
  131.5741  156.6054  180.1427 LP  0  0  0  0  0  0  0  0  0  0  0  0  # atno 14485 bound_to 1170
  127.2631  154.6858  181.4174 LP  0  0  0  0  0  0  0  0  0  0  0  0  # atno 14486 bound_to 1173
  128.0530  155.4158  182.7751 LP  0  0  0  0  0  0  0  0  0  0  0  0  # atno 14487 bound_to 1173
  130.1843  142.7804  185.5533 LP  0  0  0  0  0  0  0  0  0  0  0  0  # atno 14496 bound_to 862 
  129.3011  140.4892  182.0533 LP  0  0  0  0  0  0  0  0  0  0  0  0  # atno 14497 bound_to 865 
  129.6451  142.1493  181.6987 LP  0  0  0  0  0  0  0  0  0  0  0  0  # atno 14498 bound_to 865 
  138.4005  136.1659  164.3068 LP  0  0  0  0  0  0  0  0  0  0  0  0  # atno 14501 bound_to 4013
  137.0410  136.8174  163.6793 LP  0  0  0  0  0  0  0  0  0  0  0  0  # atno 14502 bound_to 4013
  144.5060  126.3521  149.3172 LP  0  0  0  0  0  0  0  0  0  0  0  0  # atno 14519 bound_to 1222
  143.0747  126.5740  148.5631 LP  0  0  0  0  0  0  0  0  0  0  0  0  # atno 14520 bound_to 1222
  130.9272  113.0441  179.5564 LP  0  0  0  0  0  0  0  0  0  0  0  0  # atno 14523 bound_to 225 
  133.5618  113.7583  180.6285 LP  0  0  0  0  0  0  0  0  0  0  0  0  # atno 14524 bound_to 228 
  133.5500  112.0321  180.4872 LP  0  0  0  0  0  0  0  0  0  0  0  0  # atno 14525 bound_to 228 

> <Gold.Score>
     Fitness  S(hb_ext) S(vdw_ext)  S(hb_int)    S(int)      intcor
     32.47       3.18      21.39       0.00      -0.12      -0.76

> <Gold.Goldscore.Fitness>
32.4734

> <Gold.Goldscore.Internal.Vdw>
-0.4291

> <Gold.Goldscore.Internal.Torsion>
-0.4444

> <Gold.Goldscore.External.Vdw>
21.3903

> <Gold.Goldscore.Internal.HBond>
0.0000

> <Gold.Goldscore.External.HBond>
3.1768

> <Gold.Goldscore.Internal.Correction>
-0.7585

> <Gold.Goldscore.Hbonds>
donor molecule, donor type, donor heavy atom, donor atom, acceptor molecule, acceptor atom, score
      P1  H   323   345       L1    17  0.54
      L1  H     8    22       P1  1193  1.00
      L1  H    10    23       P1   285  0.04

> <Gold.Goldscore.Internal.Vdw.Weighted>
-0.4291

> <Gold.Goldscore.Internal.Torsion.Weighted>
-0.4444

> <Gold.Goldscore.External.Vdw.Weighted>
29.4116

> <Gold.Goldscore.Internal.HBond.Weighted>
0.0000

> <Gold.Goldscore.External.HBond.Weighted>
3.1768

> <Gold.Goldscore.Internal.Correction.Weighted>
-0.7585

> <Gold.Rescore>
     Score     S(PLP)   S(hbond)     S(cho)   S(metal)  DE(clash)   DE(tors)     intcor
     31.27     -25.28       2.24       0.00       0.00       0.00       0.36       ----

> <Gold.PLP.Fitness>
31.2697

> <Gold.PLP.PLP>
-25.2826

> <Gold.PLP.part.hbond>
-5.4582

> <Gold.PLP.part.metal>
0.0000

> <Gold.PLP.part.buried>
2.4753

> <Gold.PLP.part.nonpolar>
-23.1797

> <Gold.PLP.part.repulsive>
0.8955

> <Gold.PLP.ligand.clash>
0.0000

> <Gold.PLP.ligand.torsion>
0.3608

> <Gold.PLP.Chemscore.Hbond>
2.2362

> <Gold.PLP.Chemscore.CHOScore>
0.0000

> <Gold.PLP.Chemscore.Metal>
0.0000

> <Gold.Chemscore.Hbonds>
donor molecule, donor type, donor heavy atom, donor atom, acceptor molecule, acceptor atom, score
      L1  H     8    22       P1  1193  1.00
      L1  H    10    23       P1   285  0.10
      P1  H   313   317       L1    11  0.05
      P1  H   323   345       L1    17  1.00

> <Gold.PLP.Chemscore.Internal.Correction>
   9.000000E+99

