#       Name:                CT1002167954
#       Creating user name   hitesit
#       Creation time:       Sun Apr 16 22:56:27 2023


#       File generated by GOLD software.
#

@<TRIPOS>MOLECULE
CT1002167954|ligand_prepared|mol2|1|dock10
    29    30     1
SMALL
NO_CHARGES


@<TRIPOS>ATOM
      1 C1         138.1157 144.7506 166.4528 C.3            1 RES1               0.0000
      2 C2         137.6019 143.4481 165.8061 C.ar           1 RES1               0.0000
      3 C3         139.2658 144.3482 167.3713 C.2            1 RES1               0.0000
      4 C4         138.5277 145.6638 165.3035 C.2            1 RES1               0.0000
      5 C5         137.0513 145.4924 167.2945 C.3            1 RES1               0.0000
      6 C6         136.7750 142.5826 166.5161 C.ar           1 RES1               0.0000
      7 C7         137.9434 143.1003 164.5019 C.ar           1 RES1               0.0000
      8 N8         140.5331 144.6446 166.9640 N.am           1 RES1               0.0000
      9 O9         139.0662 143.7448 168.4184 O.2            1 RES1               0.0000
     10 N10        139.8551 145.9809 165.1795 N.am           1 RES1               0.0000
     11 O11        137.7172 146.0982 164.4944 O.2            1 RES1               0.0000
     12 C12        135.6968 145.6012 166.6122 C.3            1 RES1               0.0000
     13 C13        136.3042 141.4134 165.9421 C.ar           1 RES1               0.0000
     14 C14        137.4716 141.9304 163.9298 C.ar           1 RES1               0.0000
     15 C15        140.8806 145.4879 165.9394 C.2            1 RES1               0.0000
     16 C16        136.6517 141.0867 164.6486 C.ar           1 RES1               0.0000
     17 O17        142.0554 145.7778 165.7322 O.2            1 RES1               0.0000
     18 H18        136.9250 144.9652 168.2481 H              1 RES1               0.0000
     19 H19        137.4173 146.5026 167.5158 H              1 RES1               0.0000
     20 H20        136.4929 142.8218 167.5360 H              1 RES1               0.0000
     21 H21        138.5881 143.7484 163.9179 H              1 RES1               0.0000
     22 H22        141.2927 144.1978 167.4677 H              1 RES1               0.0000
     23 H23        140.1014 146.6462 164.4536 H              1 RES1               0.0000
     24 H24        134.9874 146.1300 167.2453 H              1 RES1               0.0000
     25 H25        135.7808 146.1424 165.6720 H              1 RES1               0.0000
     26 H26        135.2914 144.6141 166.4000 H              1 RES1               0.0000
     27 H27        135.6603 140.7521 166.5125 H              1 RES1               0.0000
     28 H28        137.7482 141.6770 162.9117 H              1 RES1               0.0000
     29 H29        136.2824 140.1709 164.1991 H              1 RES1               0.0000
@<TRIPOS>BOND
    1    1    2 1     
    2    1    3 1     
    3    1    4 1     
    4    1    5 1     
    5    2    6 ar    
    6    2    7 ar    
    7    3    8 1     
    8    3    9 2     
    9    4   10 1     
   10    4   11 2     
   11    5   12 1     
   12    5   18 1     
   13    5   19 1     
   14    6   13 ar    
   15    6   20 1     
   16    7   14 ar    
   17    7   21 1     
   18    8   15 1     
   19    8   22 1     
   20   10   15 1     
   21   10   23 1     
   22   12   24 1     
   23   12   25 1     
   24   12   26 1     
   25   13   16 ar    
   26   13   27 1     
   27   14   16 ar    
   28   14   28 1     
   29   15   17 2     
   30   16   29 1     
@<TRIPOS>SUBSTRUCTURE
      1 RES1           1
@<TRIPOS>SET
DONOR_HYDROGENS      STATIC     ATOMS    <user>   **** ""
2 22 23
ATOM$RED        STATIC     ATOMS    COLORGROUP SYSTEM
2 22 23
@<TRIPOS>COMMENT
> <Gold.Version>
2022.3.0

> <Gold.Id.Protein>
unknown|7rmi_cavity_clean|pdb

> <Gold.Protein.RotatedTorsions>
[  294  288  286  283 ] final   97.02 input   60.03 | X-H torsion
[  301  289  290  291 ] final  -54.41 input  115.34 | X-H torsion
[ 4333 4325 4326 4327 ] final  140.12 input   58.17 | X-H torsion
[  162  159  158  157 ] final  127.78 input   59.97 | X-H torsion
[  352  334  335  336 ] final  119.58 input   81.54 | X-H torsion
[ 1783 1767 1768 1769 ] final  -78.33 input  110.17 | X-H torsion
[  113  103  104  105 ] final   90.35 input  112.99 | X-H torsion
[   82   64   65   66 ] final   99.46 input  112.25 | X-H torsion
[ 1807 1802 1800 1797 ] final -129.92 input   60.00 | X-H torsion
[  208  204  203  201 ] final -103.26 input   60.02 | X-H torsion
[ 1839 1834 1833 1830 ] final   81.12 input   59.99 | X-H torsion
[ 3268 3259 3258 3256 ] final -129.94 input   59.98 | X-H torsion
[ 4684 4679 4678 4675 ] final  -17.67 input   59.98 | X-H torsion
[ 2741 2733 2732 2730 ] final  141.29 input   60.00 | X-H torsion
[ 3932 3927 3928 3929 ] final  -85.00 input   88.25 | X-H torsion
[ 2774 2765 2764 2762 ] final  -78.14 input   60.03 | X-H torsion
[ 3980 3972 3973 3974 ] final   95.43 input   60.58 | X-H torsion
[ 4755 4748 4746 4743 ] final   24.84 input   60.02 | X-H torsion
[ 1184 1170 1171 1172 ] final   14.20 input   67.97 | X-H torsion
[  880  862  863  864 ] final  -92.36 input   59.67 | X-H torsion
[ 4018 4013 4012 4010 ] final -141.05 input   60.01 | X-H torsion
[ 8045 8035 8034 8033 ] final  -53.35 input   59.99 | X-H torsion
[ 1224 1222 1220 1217 ] final   17.81 input   59.96 | X-H torsion
[  249  225  226  227 ] final   78.20 input   51.53 | X-H torsion
[ 14304  292  291  290 ] final   91.28 input    0.00 | X-H torsion
[ 14309 4328 4327 4326 ] final   13.98 input   -0.00 | X-H torsion
[ 14335  337  336  335 ] final  -43.94 input   -0.00 | X-H torsion
[ 14354 1770 1769 1768 ] final   24.95 input   -0.00 | X-H torsion
[ 14365  106  105  104 ] final   23.95 input    0.00 | X-H torsion
[ 14370   67   66   65 ] final   86.70 input   -0.00 | X-H torsion
[ 14441 3930 3929 3928 ] final  -70.56 input   -0.00 | X-H torsion
[ 14473 3975 3974 3973 ] final -111.30 input   -0.00 | X-H torsion
[ 14486 1173 1172 1171 ] final  176.74 input   -0.00 | X-H torsion
[ 14497  865  864  863 ] final   95.13 input   -0.00 | X-H torsion
[ 14524  228  227  226 ] final   92.54 input    0.00 | X-H torsion

> <Gold.Protein.ActiveResidues>
 GLU27   LEU30   GLN31   ASP33   LYS34   GLN35   VAL36   TYR37   ARG38   THR40  
 HIS41   ARG42   GLU209  HIS220  PHE222  GLN236  ASN239  ASP240  VAL241  THR242 
 ARG280  TRP281  LEU282  ARG283  THR284  ILE285  SER286  VAL287  ILE288  GLY355 
 ARG356  HIS357  TYR358  CYS359  TYR360  ASP381  ILE382  ILE383  GLN385  MET386 
 ASN387  LEU388  ARG389  GLU390  TYR391  VAL394  ALA56   LYS57   ILE58   TYR59  
 ALA60   MET61   LEU79   ILE80   ILE81   TRP82   ILE93   SER98   TRP99   VAL100 
 MET101  THR102  CYS103  GLY310  HIS311  ASP312  ASN313  TRP332  ASP333  SER334 
 PHE335  LYS337 

> <Gold.Protein.RotatedAtoms>
  114.9878  151.5495  180.2163 H   0  0  0  0  0  0  0  0  0  0  0  0  # atno 82   bound_to 64  
  109.2088  134.8168   96.8244 H   0  0  0  0  0  0  0  0  0  0  0  0  # atno 113  bound_to 103 
  144.0964  138.9015  142.3445 H   0  0  0  0  0  0  0  0  0  0  0  0  # atno 162  bound_to 159 
  144.0966  139.8012  140.9522 H   0  0  0  0  0  0  0  0  0  0  0  0  # atno 163  bound_to 159 
  145.2388  138.6211  141.1768 H   0  0  0  0  0  0  0  0  0  0  0  0  # atno 164  bound_to 159 
  144.2284  133.2716  149.8911 H   0  0  0  0  0  0  0  0  0  0  0  0  # atno 208  bound_to 204 
  130.6979  112.8699  179.5553 H   0  0  0  0  0  0  0  0  0  0  0  0  # atno 249  bound_to 225 
  152.8459  130.6498  146.4024 H   0  0  0  0  0  0  0  0  0  0  0  0  # atno 294  bound_to 288 
  115.1358  136.8569  110.0645 H   0  0  0  0  0  0  0  0  0  0  0  0  # atno 301  bound_to 289 
  114.5945  158.7391  159.2039 H   0  0  0  0  0  0  0  0  0  0  0  0  # atno 352  bound_to 334 
  130.1553  142.6245  185.5270 H   0  0  0  0  0  0  0  0  0  0  0  0  # atno 880  bound_to 862 
  130.5307  156.9584  179.5394 H   0  0  0  0  0  0  0  0  0  0  0  0  # atno 1184 bound_to 1170
  143.5032  126.7101  149.2308 H   0  0  0  0  0  0  0  0  0  0  0  0  # atno 1224 bound_to 1222
  125.2820  158.8624  170.3459 H   0  0  0  0  0  0  0  0  0  0  0  0  # atno 1783 bound_to 1767
  131.4206  128.3450  151.1218 H   0  0  0  0  0  0  0  0  0  0  0  0  # atno 1807 bound_to 1802
  138.5656  119.1118  150.3268 H   0  0  0  0  0  0  0  0  0  0  0  0  # atno 1839 bound_to 1834
  129.6770  117.5403  144.3282 H   0  0  0  0  0  0  0  0  0  0  0  0  # atno 2741 bound_to 2733
  137.5307  114.9885  144.4586 H   0  0  0  0  0  0  0  0  0  0  0  0  # atno 2774 bound_to 2765
  139.6836  129.7486  134.3261 H   0  0  0  0  0  0  0  0  0  0  0  0  # atno 3268 bound_to 3259
  114.6150  116.1430  168.4171 H   0  0  0  0  0  0  0  0  0  0  0  0  # atno 3932 bound_to 3927
  118.1394  113.0418  167.0747 H   0  0  0  0  0  0  0  0  0  0  0  0  # atno 3980 bound_to 3972
  137.4955  137.6233  164.7597 H   0  0  0  0  0  0  0  0  0  0  0  0  # atno 4018 bound_to 4013
  117.0081  120.9384  181.2100 H   0  0  0  0  0  0  0  0  0  0  0  0  # atno 4333 bound_to 4325
  148.1951  135.5180  156.4422 H   0  0  0  0  0  0  0  0  0  0  0  0  # atno 4684 bound_to 4679
  143.3949  144.9304  166.7655 H   0  0  0  0  0  0  0  0  0  0  0  0  # atno 4755 bound_to 4748
  133.5170  147.9826  149.0003 H   0  0  0  0  0  0  0  0  0  0  0  0  # atno 8045 bound_to 8035
  132.3565  146.8169  149.2043 H   0  0  0  0  0  0  0  0  0  0  0  0  # atno 8046 bound_to 8035
  132.6563  147.4326  147.6943 H   0  0  0  0  0  0  0  0  0  0  0  0  # atno 8047 bound_to 8035
  153.0285  129.0950  145.9584 LP  0  0  0  0  0  0  0  0  0  0  0  0  # atno 14301 bound_to 288 
  153.6260  129.6149  147.3864 LP  0  0  0  0  0  0  0  0  0  0  0  0  # atno 14302 bound_to 288 
  113.6859  137.1515  109.1360 LP  0  0  0  0  0  0  0  0  0  0  0  0  # atno 14303 bound_to 289 
  113.2988  137.9532  114.0746 LP  0  0  0  0  0  0  0  0  0  0  0  0  # atno 14304 bound_to 292 
  114.9456  137.5453  113.7256 LP  0  0  0  0  0  0  0  0  0  0  0  0  # atno 14305 bound_to 292 
  115.7728  119.9373  181.9487 LP  0  0  0  0  0  0  0  0  0  0  0  0  # atno 14308 bound_to 4325
  117.5287  118.5422  182.9429 LP  0  0  0  0  0  0  0  0  0  0  0  0  # atno 14309 bound_to 4328
  117.5473  116.8103  182.9482 LP  0  0  0  0  0  0  0  0  0  0  0  0  # atno 14310 bound_to 4328
  115.7785  158.5285  160.4736 LP  0  0  0  0  0  0  0  0  0  0  0  0  # atno 14334 bound_to 334 
  117.1664  159.5851  157.3582 LP  0  0  0  0  0  0  0  0  0  0  0  0  # atno 14335 bound_to 337 
  118.4521  159.7846  158.5015 LP  0  0  0  0  0  0  0  0  0  0  0  0  # atno 14336 bound_to 337 
  125.2632  160.1585  169.1754 LP  0  0  0  0  0  0  0  0  0  0  0  0  # atno 14353 bound_to 1767
  121.6673  157.1844  169.1721 LP  0  0  0  0  0  0  0  0  0  0  0  0  # atno 14354 bound_to 1770
  122.6602  156.0596  168.3066 LP  0  0  0  0  0  0  0  0  0  0  0  0  # atno 14355 bound_to 1770
  108.5116  133.9919   98.1970 LP  0  0  0  0  0  0  0  0  0  0  0  0  # atno 14364 bound_to 103 
  112.3552  133.7823  100.0879 LP  0  0  0  0  0  0  0  0  0  0  0  0  # atno 14365 bound_to 106 
  111.9427  135.2792  100.8553 LP  0  0  0  0  0  0  0  0  0  0  0  0  # atno 14366 bound_to 106 
  114.3652  152.7208  181.3514 LP  0  0  0  0  0  0  0  0  0  0  0  0  # atno 14369 bound_to 64  
  115.2659  155.9861  178.1537 LP  0  0  0  0  0  0  0  0  0  0  0  0  # atno 14370 bound_to 67  
  114.0467  156.0992  179.3787 LP  0  0  0  0  0  0  0  0  0  0  0  0  # atno 14371 bound_to 67  
  131.8323  128.3334  152.6965 LP  0  0  0  0  0  0  0  0  0  0  0  0  # atno 14376 bound_to 1802
  130.8666  127.1627  152.0937 LP  0  0  0  0  0  0  0  0  0  0  0  0  # atno 14377 bound_to 1802
  143.7622  134.8270  150.0033 LP  0  0  0  0  0  0  0  0  0  0  0  0  # atno 14384 bound_to 204 
  144.7700  134.1913  151.1199 LP  0  0  0  0  0  0  0  0  0  0  0  0  # atno 14385 bound_to 204 
  138.2442  120.7025  150.2065 LP  0  0  0  0  0  0  0  0  0  0  0  0  # atno 14407 bound_to 1834
  137.8215  119.6875  148.9991 LP  0  0  0  0  0  0  0  0  0  0  0  0  # atno 14408 bound_to 1834
  139.1522  130.1937  135.7982 LP  0  0  0  0  0  0  0  0  0  0  0  0  # atno 14411 bound_to 3259
  138.8908  131.1581  134.5066 LP  0  0  0  0  0  0  0  0  0  0  0  0  # atno 14412 bound_to 3259
  148.3373  134.0216  155.8179 LP  0  0  0  0  0  0  0  0  0  0  0  0  # atno 14415 bound_to 4679
  148.9709  135.3026  155.0277 LP  0  0  0  0  0  0  0  0  0  0  0  0  # atno 14416 bound_to 4679
  129.0353  116.0888  144.6876 LP  0  0  0  0  0  0  0  0  0  0  0  0  # atno 14432 bound_to 2733
  130.1762  116.2154  143.5262 LP  0  0  0  0  0  0  0  0  0  0  0  0  # atno 14433 bound_to 2733
  114.8124  117.3542  167.1710 LP  0  0  0  0  0  0  0  0  0  0  0  0  # atno 14440 bound_to 3927
  116.1721  113.0576  167.2071 LP  0  0  0  0  0  0  0  0  0  0  0  0  # atno 14441 bound_to 3930
  116.4390  112.9729  165.4978 LP  0  0  0  0  0  0  0  0  0  0  0  0  # atno 14442 bound_to 3930
  137.7671  116.4006  145.2320 LP  0  0  0  0  0  0  0  0  0  0  0  0  # atno 14465 bound_to 2765
  136.3647  115.5862  145.4236 LP  0  0  0  0  0  0  0  0  0  0  0  0  # atno 14466 bound_to 2765
  119.4605  114.1858  166.9441 LP  0  0  0  0  0  0  0  0  0  0  0  0  # atno 14472 bound_to 3972
  120.2426  110.0314  167.9434 LP  0  0  0  0  0  0  0  0  0  0  0  0  # atno 14473 bound_to 3975
  120.1930  111.1577  166.6285 LP  0  0  0  0  0  0  0  0  0  0  0  0  # atno 14474 bound_to 3975
  144.7900  144.8868  167.6022 LP  0  0  0  0  0  0  0  0  0  0  0  0  # atno 14479 bound_to 4748
  143.4081  144.3474  168.2848 LP  0  0  0  0  0  0  0  0  0  0  0  0  # atno 14480 bound_to 4748
  131.6175  157.6547  180.7225 LP  0  0  0  0  0  0  0  0  0  0  0  0  # atno 14485 bound_to 1170
  127.3571  154.5345  181.4695 LP  0  0  0  0  0  0  0  0  0  0  0  0  # atno 14486 bound_to 1173
  127.9591  155.5671  182.7231 LP  0  0  0  0  0  0  0  0  0  0  0  0  # atno 14487 bound_to 1173
  130.9085  143.2482  184.0738 LP  0  0  0  0  0  0  0  0  0  0  0  0  # atno 14496 bound_to 862 
  129.9244  140.8089  182.4106 LP  0  0  0  0  0  0  0  0  0  0  0  0  # atno 14497 bound_to 865 
  129.0219  141.8297  181.3414 LP  0  0  0  0  0  0  0  0  0  0  0  0  # atno 14498 bound_to 865 
  138.5123  136.3664  164.5752 LP  0  0  0  0  0  0  0  0  0  0  0  0  # atno 14501 bound_to 4013
  137.2211  136.5274  163.5886 LP  0  0  0  0  0  0  0  0  0  0  0  0  # atno 14502 bound_to 4013
  143.5139  126.0233  147.7552 LP  0  0  0  0  0  0  0  0  0  0  0  0  # atno 14519 bound_to 1222
  144.8369  125.9372  148.7085 LP  0  0  0  0  0  0  0  0  0  0  0  0  # atno 14520 bound_to 1222
  130.1680  114.2890  180.4302 LP  0  0  0  0  0  0  0  0  0  0  0  0  # atno 14523 bound_to 225 
  133.5421  113.7594  180.6122 LP  0  0  0  0  0  0  0  0  0  0  0  0  # atno 14524 bound_to 228 
  133.5697  112.0310  180.5035 LP  0  0  0  0  0  0  0  0  0  0  0  0  # atno 14525 bound_to 228 

> <Gold.Score>
     Fitness  S(hb_ext) S(vdw_ext)  S(hb_int)    S(int)      intcor
     36.14       4.39      25.22       0.00      -2.92      -0.76

> <Gold.Goldscore.Fitness>
36.1413

> <Gold.Goldscore.Internal.Vdw>
-2.9963

> <Gold.Goldscore.Internal.Torsion>
-0.6867

> <Gold.Goldscore.External.Vdw>
25.2192

> <Gold.Goldscore.Internal.HBond>
0.0000

> <Gold.Goldscore.External.HBond>
4.3893

> <Gold.Goldscore.Internal.Correction>
-0.7585

> <Gold.Goldscore.Hbonds>
donor molecule, donor type, donor heavy atom, donor atom, acceptor molecule, acceptor atom, score
      P1  H  4748  4755       L1    17  1.00
      P1  H  4756  4762       L1    17  0.90
      L1  H    10    23       P1  4036  0.29

> <Gold.Goldscore.Internal.Vdw.Weighted>
-2.9963

> <Gold.Goldscore.Internal.Torsion.Weighted>
-0.6867

> <Gold.Goldscore.External.Vdw.Weighted>
34.6764

> <Gold.Goldscore.Internal.HBond.Weighted>
0.0000

> <Gold.Goldscore.External.HBond.Weighted>
4.3893

> <Gold.Goldscore.Internal.Correction.Weighted>
-0.7585

> <Gold.Rescore>
     Score     S(PLP)   S(hbond)     S(cho)   S(metal)  DE(clash)   DE(tors)     intcor
     30.64     -26.57       2.00       0.00       0.00       0.24       0.84       ----

> <Gold.PLP.Fitness>
30.6424

> <Gold.PLP.PLP>
-26.5722

> <Gold.PLP.part.hbond>
-2.6471

> <Gold.PLP.part.metal>
0.0000

> <Gold.PLP.part.buried>
-0.4090

> <Gold.PLP.part.nonpolar>
-24.1651

> <Gold.PLP.part.repulsive>
0.7376

> <Gold.PLP.ligand.clash>
0.2434

> <Gold.PLP.ligand.torsion>
0.8432

> <Gold.PLP.Chemscore.Hbond>
2.0000

> <Gold.PLP.Chemscore.CHOScore>
0.0000

> <Gold.PLP.Chemscore.Metal>
0.0000

> <Gold.Chemscore.Hbonds>
donor molecule, donor type, donor heavy atom, donor atom, acceptor molecule, acceptor atom, score
      P1  H  4748  4755       L1    17  1.00
      P1  H  4756  4762       L1    17  1.00

> <Gold.PLP.Chemscore.Internal.Correction>
   9.000000E+99

