#       Name:                CT1002167954
#       Creating user name   hitesit
#       Creation time:       Sun Apr 16 22:54:47 2023


#       File generated by GOLD software.
#

@<TRIPOS>MOLECULE
CT1002167954|ligand_prepared|mol2|1|dock2
    29    30     1
SMALL
NO_CHARGES


@<TRIPOS>ATOM
      1 C1         142.4207 128.8606 146.2783 C.3            1 RES1               0.0000
      2 C2         141.4402 127.8202 146.8571 C.ar           1 RES1               0.0000
      3 C3         141.7056 130.2068 146.3451 C.2            1 RES1               0.0000
      4 C4         143.6802 128.7820 147.1339 C.2            1 RES1               0.0000
      5 C5         142.8231 128.5905 144.8097 C.3            1 RES1               0.0000
      6 C6         140.7589 128.0722 148.0442 C.ar           1 RES1               0.0000
      7 C7         141.2049 126.6073 146.2151 C.ar           1 RES1               0.0000
      8 N8         142.1156 131.0935 147.2967 N.am           1 RES1               0.0000
      9 O9         140.7699 130.4711 145.6001 O.2            1 RES1               0.0000
     10 N10        144.0078 129.8727 147.8960 N.am           1 RES1               0.0000
     11 O11        144.3828 127.7793 147.1677 O.2            1 RES1               0.0000
     12 C12        143.6541 129.7016 144.1875 C.3            1 RES1               0.0000
     13 C13        139.8724 127.1465 148.5690 C.ar           1 RES1               0.0000
     14 C14        140.3181 125.6828 146.7418 C.ar           1 RES1               0.0000
     15 C15        143.2659 131.0134 148.0397 C.2            1 RES1               0.0000
     16 C16        139.6510 125.9515 147.9180 C.ar           1 RES1               0.0000
     17 O17        143.5993 131.9290 148.7865 O.2            1 RES1               0.0000
     18 H18        143.3949 127.6554 144.7665 H              1 RES1               0.0000
     19 H19        141.9125 128.4545 144.2133 H              1 RES1               0.0000
     20 H20        140.9221 129.0060 148.5718 H              1 RES1               0.0000
     21 H21        141.7193 126.3740 145.2890 H              1 RES1               0.0000
     22 H22        141.5110 131.8898 147.4721 H              1 RES1               0.0000
     23 H23        144.8861 129.8304 148.4030 H              1 RES1               0.0000
     24 H24        143.9092 129.4617 143.1574 H              1 RES1               0.0000
     25 H25        143.1060 130.6414 144.1908 H              1 RES1               0.0000
     26 H26        144.5797 129.8470 144.7408 H              1 RES1               0.0000
     27 H27        139.3509 127.3621 149.4957 H              1 RES1               0.0000
     28 H28        140.1474 124.7434 146.2264 H              1 RES1               0.0000
     29 H29        138.9562 125.2267 148.3292 H              1 RES1               0.0000
@<TRIPOS>BOND
    1    1    2 1     
    2    1    3 1     
    3    1    4 1     
    4    1    5 1     
    5    2    6 ar    
    6    2    7 ar    
    7    3    8 1     
    8    3    9 2     
    9    4   10 1     
   10    4   11 2     
   11    5   12 1     
   12    5   18 1     
   13    5   19 1     
   14    6   13 ar    
   15    6   20 1     
   16    7   14 ar    
   17    7   21 1     
   18    8   15 1     
   19    8   22 1     
   20   10   15 1     
   21   10   23 1     
   22   12   24 1     
   23   12   25 1     
   24   12   26 1     
   25   13   16 ar    
   26   13   27 1     
   27   14   16 ar    
   28   14   28 1     
   29   15   17 2     
   30   16   29 1     
@<TRIPOS>SUBSTRUCTURE
      1 RES1           1
@<TRIPOS>SET
DONOR_HYDROGENS      STATIC     ATOMS    <user>   **** ""
2 22 23
ATOM$RED        STATIC     ATOMS    COLORGROUP SYSTEM
2 22 23
@<TRIPOS>COMMENT
> <Gold.Version>
2022.3.0

> <Gold.Id.Protein>
unknown|7rmi_cavity_clean|pdb

> <Gold.Protein.RotatedTorsions>
[  294  288  286  283 ] final -170.14 input   60.03 | X-H torsion
[  301  289  290  291 ] final  107.51 input  115.34 | X-H torsion
[ 4333 4325 4326 4327 ] final  -87.79 input   58.17 | X-H torsion
[  162  159  158  157 ] final -122.62 input   59.97 | X-H torsion
[  352  334  335  336 ] final  165.01 input   81.54 | X-H torsion
[ 1783 1767 1768 1769 ] final   13.40 input  110.17 | X-H torsion
[  113  103  104  105 ] final   25.79 input  112.99 | X-H torsion
[   82   64   65   66 ] final   48.91 input  112.25 | X-H torsion
[ 1807 1802 1800 1797 ] final -138.78 input   60.00 | X-H torsion
[  208  204  203  201 ] final -119.82 input   60.02 | X-H torsion
[ 1839 1834 1833 1830 ] final  -90.28 input   59.99 | X-H torsion
[ 3268 3259 3258 3256 ] final   13.76 input   59.98 | X-H torsion
[ 4684 4679 4678 4675 ] final  104.79 input   59.98 | X-H torsion
[ 2741 2733 2732 2730 ] final  -62.35 input   60.00 | X-H torsion
[ 3932 3927 3928 3929 ] final   29.34 input   88.25 | X-H torsion
[ 2774 2765 2764 2762 ] final  -75.67 input   60.03 | X-H torsion
[ 3980 3972 3973 3974 ] final  -17.10 input   60.58 | X-H torsion
[ 4755 4748 4746 4743 ] final -133.28 input   60.02 | X-H torsion
[ 1184 1170 1171 1172 ] final  120.69 input   67.97 | X-H torsion
[  880  862  863  864 ] final -100.01 input   59.67 | X-H torsion
[ 4018 4013 4012 4010 ] final  -45.86 input   60.01 | X-H torsion
[ 8045 8035 8034 8033 ] final  119.82 input   59.99 | X-H torsion
[ 1224 1222 1220 1217 ] final  -21.36 input   59.96 | X-H torsion
[  249  225  226  227 ] final  117.01 input   51.53 | X-H torsion
[ 14304  292  291  290 ] final -142.64 input    0.00 | X-H torsion
[ 14309 4328 4327 4326 ] final  126.25 input   -0.00 | X-H torsion
[ 14335  337  336  335 ] final -160.41 input   -0.00 | X-H torsion
[ 14354 1770 1769 1768 ] final  -82.20 input   -0.00 | X-H torsion
[ 14365  106  105  104 ] final   69.35 input    0.00 | X-H torsion
[ 14370   67   66   65 ] final  -29.81 input   -0.00 | X-H torsion
[ 14441 3930 3929 3928 ] final -122.54 input   -0.00 | X-H torsion
[ 14473 3975 3974 3973 ] final   80.54 input   -0.00 | X-H torsion
[ 14486 1173 1172 1171 ] final  105.87 input   -0.00 | X-H torsion
[ 14497  865  864  863 ] final   47.86 input   -0.00 | X-H torsion
[ 14524  228  227  226 ] final  149.87 input    0.00 | X-H torsion

> <Gold.Protein.ActiveResidues>
 GLU27   LEU30   GLN31   ASP33   LYS34   GLN35   VAL36   TYR37   ARG38   THR40  
 HIS41   ARG42   GLU209  HIS220  PHE222  GLN236  ASN239  ASP240  VAL241  THR242 
 ARG280  TRP281  LEU282  ARG283  THR284  ILE285  SER286  VAL287  ILE288  GLY355 
 ARG356  HIS357  TYR358  CYS359  TYR360  ASP381  ILE382  ILE383  GLN385  MET386 
 ASN387  LEU388  ARG389  GLU390  TYR391  VAL394  ALA56   LYS57   ILE58   TYR59  
 ALA60   MET61   LEU79   ILE80   ILE81   TRP82   ILE93   SER98   TRP99   VAL100 
 MET101  THR102  CYS103  GLY310  HIS311  ASP312  ASN313  TRP332  ASP333  SER334 
 PHE335  LYS337 

> <Gold.Protein.RotatedAtoms>
  114.3217  151.8482  180.0364 H   0  0  0  0  0  0  0  0  0  0  0  0  # atno 82   bound_to 64  
  109.0401  135.2540   97.6417 H   0  0  0  0  0  0  0  0  0  0  0  0  # atno 113  bound_to 103 
  143.9833  139.8189  141.0828 H   0  0  0  0  0  0  0  0  0  0  0  0  # atno 162  bound_to 159 
  145.2261  138.7229  141.0366 H   0  0  0  0  0  0  0  0  0  0  0  0  # atno 163  bound_to 159 
  144.2218  138.7825  142.3540 H   0  0  0  0  0  0  0  0  0  0  0  0  # atno 164  bound_to 159 
  144.0647  133.4097  149.7270 H   0  0  0  0  0  0  0  0  0  0  0  0  # atno 208  bound_to 204 
  130.1289  112.8106  179.6986 H   0  0  0  0  0  0  0  0  0  0  0  0  # atno 249  bound_to 225 
  153.5228  130.0434  147.4090 H   0  0  0  0  0  0  0  0  0  0  0  0  # atno 294  bound_to 288 
  113.6015  136.9112  109.2399 H   0  0  0  0  0  0  0  0  0  0  0  0  # atno 301  bound_to 289 
  114.4534  158.2069  159.6116 H   0  0  0  0  0  0  0  0  0  0  0  0  # atno 352  bound_to 334 
  130.1482  142.7378  185.5624 H   0  0  0  0  0  0  0  0  0  0  0  0  # atno 880  bound_to 862 
  130.7663  158.1227  180.3290 H   0  0  0  0  0  0  0  0  0  0  0  0  # atno 1184 bound_to 1170
  143.1243  126.6319  148.7363 H   0  0  0  0  0  0  0  0  0  0  0  0  # atno 1224 bound_to 1222
  125.5425  158.9764  169.1125 H   0  0  0  0  0  0  0  0  0  0  0  0  # atno 1783 bound_to 1767
  131.5054  128.4437  151.1852 H   0  0  0  0  0  0  0  0  0  0  0  0  # atno 1807 bound_to 1802
  137.8938  120.6311  149.4742 H   0  0  0  0  0  0  0  0  0  0  0  0  # atno 1839 bound_to 1834
  129.8500  115.8002  143.7807 H   0  0  0  0  0  0  0  0  0  0  0  0  # atno 2741 bound_to 2733
  137.4958  114.9690  144.4638 H   0  0  0  0  0  0  0  0  0  0  0  0  # atno 2774 bound_to 2765
  138.7967  131.1882  134.8796 H   0  0  0  0  0  0  0  0  0  0  0  0  # atno 3268 bound_to 3259
  115.5590  116.9369  167.5810 H   0  0  0  0  0  0  0  0  0  0  0  0  # atno 3932 bound_to 3927
  119.5231  113.2811  166.5886 H   0  0  0  0  0  0  0  0  0  0  0  0  # atno 3980 bound_to 3972
  137.0283  136.8628  163.7041 H   0  0  0  0  0  0  0  0  0  0  0  0  # atno 4018 bound_to 4013
  115.5345  120.2415  181.3490 H   0  0  0  0  0  0  0  0  0  0  0  0  # atno 4333 bound_to 4325
  148.9727  135.2628  155.0188 H   0  0  0  0  0  0  0  0  0  0  0  0  # atno 4684 bound_to 4679
  144.5934  144.6421  168.1294 H   0  0  0  0  0  0  0  0  0  0  0  0  # atno 4755 bound_to 4748
  132.1533  146.8008  148.3723 H   0  0  0  0  0  0  0  0  0  0  0  0  # atno 8045 bound_to 8035
  133.2678  147.9619  147.9764 H   0  0  0  0  0  0  0  0  0  0  0  0  # atno 8046 bound_to 8035
  133.1084  147.4688  149.5513 H   0  0  0  0  0  0  0  0  0  0  0  0  # atno 8047 bound_to 8035
  152.7233  130.4237  146.0437 LP  0  0  0  0  0  0  0  0  0  0  0  0  # atno 14301 bound_to 288 
  153.2494  128.8971  146.2870 LP  0  0  0  0  0  0  0  0  0  0  0  0  # atno 14302 bound_to 288 
  115.1892  137.0983  109.9438 LP  0  0  0  0  0  0  0  0  0  0  0  0  # atno 14303 bound_to 289 
  114.5178  137.0063  114.1037 LP  0  0  0  0  0  0  0  0  0  0  0  0  # atno 14304 bound_to 292 
  113.7266  138.4922  113.6965 LP  0  0  0  0  0  0  0  0  0  0  0  0  # atno 14305 bound_to 292 
  117.1850  120.6052  181.8154 LP  0  0  0  0  0  0  0  0  0  0  0  0  # atno 14308 bound_to 4325
  116.7873  117.3407  183.2175 LP  0  0  0  0  0  0  0  0  0  0  0  0  # atno 14309 bound_to 4328
  118.2887  118.0117  182.6736 LP  0  0  0  0  0  0  0  0  0  0  0  0  # atno 14310 bound_to 4328
  115.9157  159.0455  160.0776 LP  0  0  0  0  0  0  0  0  0  0  0  0  # atno 14334 bound_to 334 
  118.6079  159.5035  157.6482 LP  0  0  0  0  0  0  0  0  0  0  0  0  # atno 14335 bound_to 337 
  117.0106  159.8662  158.2115 LP  0  0  0  0  0  0  0  0  0  0  0  0  # atno 14336 bound_to 337 
  125.0077  160.0467  170.3849 LP  0  0  0  0  0  0  0  0  0  0  0  0  # atno 14353 bound_to 1767
  122.7136  156.2743  169.3110 LP  0  0  0  0  0  0  0  0  0  0  0  0  # atno 14354 bound_to 1770
  121.6139  156.9697  168.1677 LP  0  0  0  0  0  0  0  0  0  0  0  0  # atno 14355 bound_to 1770
  108.6770  133.5633   97.3959 LP  0  0  0  0  0  0  0  0  0  0  0  0  # atno 14364 bound_to 103 
  112.7924  134.2698   99.9541 LP  0  0  0  0  0  0  0  0  0  0  0  0  # atno 14365 bound_to 106 
  111.5054  134.7917  100.9891 LP  0  0  0  0  0  0  0  0  0  0  0  0  # atno 14366 bound_to 106 
  115.0199  152.4271  181.5282 LP  0  0  0  0  0  0  0  0  0  0  0  0  # atno 14369 bound_to 64  
  114.9344  156.0934  179.5848 LP  0  0  0  0  0  0  0  0  0  0  0  0  # atno 14370 bound_to 67  
  114.3783  155.9919  177.9476 LP  0  0  0  0  0  0  0  0  0  0  0  0  # atno 14371 bound_to 67  
  131.7776  128.2233  152.7747 LP  0  0  0  0  0  0  0  0  0  0  0  0  # atno 14376 bound_to 1802
  130.8359  127.1734  151.9516 LP  0  0  0  0  0  0  0  0  0  0  0  0  # atno 14377 bound_to 1802
  143.8720  134.9489  150.2197 LP  0  0  0  0  0  0  0  0  0  0  0  0  # atno 14384 bound_to 204 
  144.8249  133.9303  151.0687 LP  0  0  0  0  0  0  0  0  0  0  0  0  # atno 14385 bound_to 204 
  138.1156  119.0223  149.3724 LP  0  0  0  0  0  0  0  0  0  0  0  0  # atno 14407 bound_to 1834
  138.6264  119.8380  150.6916 LP  0  0  0  0  0  0  0  0  0  0  0  0  # atno 14408 bound_to 1834
  139.5910  130.0217  134.0696 LP  0  0  0  0  0  0  0  0  0  0  0  0  # atno 14411 bound_to 3259
  139.3451  129.8806  135.6778 LP  0  0  0  0  0  0  0  0  0  0  0  0  # atno 14412 bound_to 3259
  148.2072  135.5532  156.4255 LP  0  0  0  0  0  0  0  0  0  0  0  0  # atno 14415 bound_to 4679
  148.3181  134.0279  155.8530 LP  0  0  0  0  0  0  0  0  0  0  0  0  # atno 14416 bound_to 4679
  130.0574  117.4096  143.9019 LP  0  0  0  0  0  0  0  0  0  0  0  0  # atno 14432 bound_to 2733
  128.9797  116.6476  144.8634 LP  0  0  0  0  0  0  0  0  0  0  0  0  # atno 14433 bound_to 2733
  113.8946  116.5823  167.9840 LP  0  0  0  0  0  0  0  0  0  0  0  0  # atno 14440 bound_to 3927
  116.8919  113.1341  166.9785 LP  0  0  0  0  0  0  0  0  0  0  0  0  # atno 14441 bound_to 3930
  115.7192  112.8964  165.7263 LP  0  0  0  0  0  0  0  0  0  0  0  0  # atno 14442 bound_to 3930
  137.7956  116.3850  145.2077 LP  0  0  0  0  0  0  0  0  0  0  0  0  # atno 14465 bound_to 2765
  136.3713  115.6214  145.4427 LP  0  0  0  0  0  0  0  0  0  0  0  0  # atno 14466 bound_to 2765
  118.1306  113.9558  167.4113 LP  0  0  0  0  0  0  0  0  0  0  0  0  # atno 14472 bound_to 3972
  120.3673  111.1211  166.6149 LP  0  0  0  0  0  0  0  0  0  0  0  0  # atno 14473 bound_to 3975
  120.0683  110.0680  167.9571 LP  0  0  0  0  0  0  0  0  0  0  0  0  # atno 14474 bound_to 3975
  143.0065  144.4440  167.8278 LP  0  0  0  0  0  0  0  0  0  0  0  0  # atno 14479 bound_to 4748
  143.9843  145.0806  166.6854 LP  0  0  0  0  0  0  0  0  0  0  0  0  # atno 14480 bound_to 4748
  131.3898  156.5289  179.9590 LP  0  0  0  0  0  0  0  0  0  0  0  0  # atno 14485 bound_to 1170
  127.1122  155.5001  181.5962 LP  0  0  0  0  0  0  0  0  0  0  0  0  # atno 14486 bound_to 1173
  128.2039  154.6015  182.5964 LP  0  0  0  0  0  0  0  0  0  0  0  0  # atno 14487 bound_to 1173
  130.9154  143.1389  184.0396 LP  0  0  0  0  0  0  0  0  0  0  0  0  # atno 14496 bound_to 862 
  130.1763  141.4541  182.3632 LP  0  0  0  0  0  0  0  0  0  0  0  0  # atno 14497 bound_to 865 
  128.7699  141.1845  181.3888 LP  0  0  0  0  0  0  0  0  0  0  0  0  # atno 14498 bound_to 865 
  137.8285  137.5163  164.9612 LP  0  0  0  0  0  0  0  0  0  0  0  0  # atno 14501 bound_to 4013
  138.3755  136.1437  164.2660 LP  0  0  0  0  0  0  0  0  0  0  0  0  # atno 14502 bound_to 4013
  144.0991  125.7849  147.7457 LP  0  0  0  0  0  0  0  0  0  0  0  0  # atno 14519 bound_to 1222
  144.6331  126.2542  149.2158 LP  0  0  0  0  0  0  0  0  0  0  0  0  # atno 14520 bound_to 1222
  130.7203  114.3465  180.2912 LP  0  0  0  0  0  0  0  0  0  0  0  0  # atno 14523 bound_to 225 
  134.1087  113.3412  181.0533 LP  0  0  0  0  0  0  0  0  0  0  0  0  # atno 14524 bound_to 228 
  133.0031  112.4492  180.0624 LP  0  0  0  0  0  0  0  0  0  0  0  0  # atno 14525 bound_to 228 

> <Gold.Score>
     Fitness  S(hb_ext) S(vdw_ext)  S(hb_int)    S(int)      intcor
     35.22       9.01      19.13       0.00      -0.09      -0.76

> <Gold.Goldscore.Fitness>
35.2204

> <Gold.Goldscore.Internal.Vdw>
-0.4090

> <Gold.Goldscore.Internal.Torsion>
-0.4462

> <Gold.Goldscore.External.Vdw>
19.1258

> <Gold.Goldscore.Internal.HBond>
0.0000

> <Gold.Goldscore.External.HBond>
9.0127

> <Gold.Goldscore.Internal.Correction>
-0.7650

> <Gold.Goldscore.Hbonds>
donor molecule, donor type, donor heavy atom, donor atom, acceptor molecule, acceptor atom, score
      P1  H   313   317       L1    11  0.52
      P1  H   332   340       L1    17  1.00
      P1  H   204   208       L1    17  1.00

> <Gold.Goldscore.Internal.Vdw.Weighted>
-0.4090

> <Gold.Goldscore.Internal.Torsion.Weighted>
-0.4462

> <Gold.Goldscore.External.Vdw.Weighted>
26.2980

> <Gold.Goldscore.Internal.HBond.Weighted>
0.0000

> <Gold.Goldscore.External.HBond.Weighted>
9.0127

> <Gold.Goldscore.Internal.Correction.Weighted>
-0.7650

> <Gold.Rescore>
     Score     S(PLP)   S(hbond)     S(cho)   S(metal)  DE(clash)   DE(tors)     intcor
     42.62     -31.82       3.69       0.00       0.00       0.00       0.13       ----

> <Gold.PLP.Fitness>
42.6233

> <Gold.PLP.PLP>
-31.8192

> <Gold.PLP.part.hbond>
-4.9100

> <Gold.PLP.part.metal>
0.0000

> <Gold.PLP.part.buried>
-4.6875

> <Gold.PLP.part.nonpolar>
-22.7942

> <Gold.PLP.part.repulsive>
0.2586

> <Gold.PLP.ligand.clash>
0.0000

> <Gold.PLP.ligand.torsion>
0.1345

> <Gold.PLP.Chemscore.Hbond>
3.6910

> <Gold.PLP.Chemscore.CHOScore>
0.0000

> <Gold.PLP.Chemscore.Metal>
0.0000

> <Gold.Chemscore.Hbonds>
donor molecule, donor type, donor heavy atom, donor atom, acceptor molecule, acceptor atom, score
      P1  H   313   317       L1    11  1.00
      P1  H   332   340       L1    17  1.00
      P1  H   204   208       L1    17  1.00

> <Gold.PLP.Chemscore.Internal.Correction>
   9.000000E+99

