#       Name:                CT1002167954
#       Creating user name   hitesit
#       Creation time:       Sun Apr 16 22:55:15 2023


#       File generated by GOLD software.
#

@<TRIPOS>MOLECULE
CT1002167954|ligand_prepared|mol2|1|dock4
    29    30     1
SMALL
NO_CHARGES


@<TRIPOS>ATOM
      1 C1         137.9638 143.4613 165.8041 C.3            1 RES1               0.0000
      2 C2         137.2739 142.2875 165.0796 C.ar           1 RES1               0.0000
      3 C3         137.0577 144.6742 165.6140 C.2            1 RES1               0.0000
      4 C4         138.1276 143.0288 167.2570 C.2            1 RES1               0.0000
      5 C5         139.3652 143.8028 165.2464 C.3            1 RES1               0.0000
      6 C6         136.0799 141.7602 165.5624 C.ar           1 RES1               0.0000
      7 C7         137.8169 141.7243 163.9279 C.ar           1 RES1               0.0000
      8 N8         136.3325 145.0959 166.6892 N.am           1 RES1               0.0000
      9 O9         136.9511 145.2280 164.5267 O.2            1 RES1               0.0000
     10 N10        137.4266 143.7146 168.2140 N.am           1 RES1               0.0000
     11 O11        138.8445 142.0896 167.5799 O.2            1 RES1               0.0000
     12 C12        140.1029 144.8629 166.0491 C.3            1 RES1               0.0000
     13 C13        135.4501 140.7098 164.9157 C.ar           1 RES1               0.0000
     14 C14        137.1855 140.6737 163.2828 C.ar           1 RES1               0.0000
     15 C15        136.5128 144.7088 167.9928 C.2            1 RES1               0.0000
     16 C16        136.0021 140.1662 163.7754 C.ar           1 RES1               0.0000
     17 O17        135.8816 145.2406 168.9016 O.2            1 RES1               0.0000
     18 H18        139.9707 142.8883 165.2289 H              1 RES1               0.0000
     19 H19        139.2579 144.1539 164.2127 H              1 RES1               0.0000
     20 H20        135.6318 142.1734 166.4599 H              1 RES1               0.0000
     21 H21        138.7477 142.1067 163.5229 H              1 RES1               0.0000
     22 H22        135.5872 145.7605 166.5072 H              1 RES1               0.0000
     23 H23        137.6023 143.4606 169.1810 H              1 RES1               0.0000
     24 H24        141.0799 145.0648 165.6152 H              1 RES1               0.0000
     25 H25        139.5407 145.7943 166.0664 H              1 RES1               0.0000
     26 H26        140.2493 144.5363 167.0766 H              1 RES1               0.0000
     27 H27        134.5196 140.3130 165.3082 H              1 RES1               0.0000
     28 H28        137.6239 140.2486 162.3860 H              1 RES1               0.0000
     29 H29        135.5083 139.3436 163.2687 H              1 RES1               0.0000
@<TRIPOS>BOND
    1    1    2 1     
    2    1    3 1     
    3    1    4 1     
    4    1    5 1     
    5    2    6 ar    
    6    2    7 ar    
    7    3    8 1     
    8    3    9 2     
    9    4   10 1     
   10    4   11 2     
   11    5   12 1     
   12    5   18 1     
   13    5   19 1     
   14    6   13 ar    
   15    6   20 1     
   16    7   14 ar    
   17    7   21 1     
   18    8   15 1     
   19    8   22 1     
   20   10   15 1     
   21   10   23 1     
   22   12   24 1     
   23   12   25 1     
   24   12   26 1     
   25   13   16 ar    
   26   13   27 1     
   27   14   16 ar    
   28   14   28 1     
   29   15   17 2     
   30   16   29 1     
@<TRIPOS>SUBSTRUCTURE
      1 RES1           1
@<TRIPOS>SET
DONOR_HYDROGENS      STATIC     ATOMS    <user>   **** ""
2 22 23
ATOM$RED        STATIC     ATOMS    COLORGROUP SYSTEM
2 22 23
@<TRIPOS>COMMENT
> <Gold.Version>
2022.3.0

> <Gold.Id.Protein>
unknown|7rmi_cavity_clean|pdb

> <Gold.Protein.RotatedTorsions>
[  294  288  286  283 ] final   65.47 input   60.03 | X-H torsion
[  301  289  290  291 ] final  -52.69 input  115.34 | X-H torsion
[ 4333 4325 4326 4327 ] final -164.78 input   58.17 | X-H torsion
[  162  159  158  157 ] final   32.56 input   59.97 | X-H torsion
[  352  334  335  336 ] final   71.00 input   81.54 | X-H torsion
[ 1783 1767 1768 1769 ] final  -38.46 input  110.17 | X-H torsion
[  113  103  104  105 ] final -105.94 input  112.99 | X-H torsion
[   82   64   65   66 ] final   -2.72 input  112.25 | X-H torsion
[ 1807 1802 1800 1797 ] final   61.02 input   60.00 | X-H torsion
[  208  204  203  201 ] final   16.73 input   60.02 | X-H torsion
[ 1839 1834 1833 1830 ] final -161.96 input   59.99 | X-H torsion
[ 3268 3259 3258 3256 ] final  134.66 input   59.98 | X-H torsion
[ 4684 4679 4678 4675 ] final  152.95 input   59.98 | X-H torsion
[ 2741 2733 2732 2730 ] final -119.98 input   60.00 | X-H torsion
[ 3932 3927 3928 3929 ] final  140.24 input   88.25 | X-H torsion
[ 2774 2765 2764 2762 ] final  176.59 input   60.03 | X-H torsion
[ 3980 3972 3973 3974 ] final  -90.10 input   60.58 | X-H torsion
[ 4755 4748 4746 4743 ] final   75.26 input   60.02 | X-H torsion
[ 1184 1170 1171 1172 ] final  -53.23 input   67.97 | X-H torsion
[  880  862  863  864 ] final   39.72 input   59.67 | X-H torsion
[ 4018 4013 4012 4010 ] final -156.80 input   60.01 | X-H torsion
[ 8045 8035 8034 8033 ] final  -18.85 input   59.99 | X-H torsion
[ 1224 1222 1220 1217 ] final  117.17 input   59.96 | X-H torsion
[  249  225  226  227 ] final -134.54 input   51.53 | X-H torsion
[ 14304  292  291  290 ] final   68.40 input    0.00 | X-H torsion
[ 14309 4328 4327 4326 ] final  -42.69 input   -0.00 | X-H torsion
[ 14335  337  336  335 ] final   41.66 input   -0.00 | X-H torsion
[ 14354 1770 1769 1768 ] final -156.85 input   -0.00 | X-H torsion
[ 14365  106  105  104 ] final   58.35 input    0.00 | X-H torsion
[ 14370   67   66   65 ] final -169.50 input   -0.00 | X-H torsion
[ 14441 3930 3929 3928 ] final  125.77 input   -0.00 | X-H torsion
[ 14473 3975 3974 3973 ] final -110.87 input   -0.00 | X-H torsion
[ 14486 1173 1172 1171 ] final  124.20 input   -0.00 | X-H torsion
[ 14497  865  864  863 ] final -121.56 input   -0.00 | X-H torsion
[ 14524  228  227  226 ] final  172.62 input    0.00 | X-H torsion

> <Gold.Protein.ActiveResidues>
 GLU27   LEU30   GLN31   ASP33   LYS34   GLN35   VAL36   TYR37   ARG38   THR40  
 HIS41   ARG42   GLU209  HIS220  PHE222  GLN236  ASN239  ASP240  VAL241  THR242 
 ARG280  TRP281  LEU282  ARG283  THR284  ILE285  SER286  VAL287  ILE288  GLY355 
 ARG356  HIS357  TYR358  CYS359  TYR360  ASP381  ILE382  ILE383  GLN385  MET386 
 ASN387  LEU388  ARG389  GLU390  TYR391  VAL394  ALA56   LYS57   ILE58   TYR59  
 ALA60   MET61   LEU79   ILE80   ILE81   TRP82   ILE93   SER98   TRP99   VAL100 
 MET101  THR102  CYS103  GLY310  HIS311  ASP312  ASN313  TRP332  ASP333  SER334 
 PHE335  LYS337 

> <Gold.Protein.RotatedAtoms>
  113.9086  152.3691  180.4184 H   0  0  0  0  0  0  0  0  0  0  0  0  # atno 82   bound_to 64  
  108.5086  133.7908   98.0518 H   0  0  0  0  0  0  0  0  0  0  0  0  # atno 113  bound_to 103 
  145.1684  138.4481  141.5420 H   0  0  0  0  0  0  0  0  0  0  0  0  # atno 162  bound_to 159 
  143.8553  139.2065  142.2117 H   0  0  0  0  0  0  0  0  0  0  0  0  # atno 163  bound_to 159 
  144.4082  139.6696  140.7192 H   0  0  0  0  0  0  0  0  0  0  0  0  # atno 164  bound_to 159 
  144.7683  134.1911  151.1136 H   0  0  0  0  0  0  0  0  0  0  0  0  # atno 208  bound_to 204 
  129.7665  114.0015  180.4234 H   0  0  0  0  0  0  0  0  0  0  0  0  # atno 249  bound_to 225 
  152.7138  130.3664  146.0006 H   0  0  0  0  0  0  0  0  0  0  0  0  # atno 294  bound_to 288 
  115.1254  136.8342  110.0729 H   0  0  0  0  0  0  0  0  0  0  0  0  # atno 301  bound_to 289 
  115.1375  159.2266  159.1918 H   0  0  0  0  0  0  0  0  0  0  0  0  # atno 352  bound_to 334 
  130.8342  142.5402  184.0475 H   0  0  0  0  0  0  0  0  0  0  0  0  # atno 880  bound_to 862 
  131.3167  156.4858  179.9072 H   0  0  0  0  0  0  0  0  0  0  0  0  # atno 1184 bound_to 1170
  144.7712  126.0954  148.9984 H   0  0  0  0  0  0  0  0  0  0  0  0  # atno 1224 bound_to 1222
  125.4529  158.6553  169.8079 H   0  0  0  0  0  0  0  0  0  0  0  0  # atno 1783 bound_to 1767
  131.4339  127.6841  152.8654 H   0  0  0  0  0  0  0  0  0  0  0  0  # atno 1807 bound_to 1802
  137.8323  119.6392  149.0111 H   0  0  0  0  0  0  0  0  0  0  0  0  # atno 1839 bound_to 1834
  130.2697  116.5485  143.5016 H   0  0  0  0  0  0  0  0  0  0  0  0  # atno 2741 bound_to 2733
  137.9166  116.2824  145.0846 H   0  0  0  0  0  0  0  0  0  0  0  0  # atno 2774 bound_to 2765
  139.3491  129.8721  135.6643 H   0  0  0  0  0  0  0  0  0  0  0  0  # atno 3268 bound_to 3259
  114.1600  117.2335  167.2842 H   0  0  0  0  0  0  0  0  0  0  0  0  # atno 3932 bound_to 3927
  119.4484  114.2534  167.0116 H   0  0  0  0  0  0  0  0  0  0  0  0  # atno 3980 bound_to 3972
  137.7056  137.5689  164.8963 H   0  0  0  0  0  0  0  0  0  0  0  0  # atno 4018 bound_to 4013
  116.2662  120.9126  180.8432 H   0  0  0  0  0  0  0  0  0  0  0  0  # atno 4333 bound_to 4325
  148.8633  134.5064  155.0225 H   0  0  0  0  0  0  0  0  0  0  0  0  # atno 4684 bound_to 4679
  142.9543  144.6161  167.3512 H   0  0  0  0  0  0  0  0  0  0  0  0  # atno 4755 bound_to 4748
  133.3003  147.6807  149.4294 H   0  0  0  0  0  0  0  0  0  0  0  0  # atno 8045 bound_to 8035
  132.1607  146.7415  148.6769 H   0  0  0  0  0  0  0  0  0  0  0  0  # atno 8046 bound_to 8035
  133.0691  147.8101  147.7928 H   0  0  0  0  0  0  0  0  0  0  0  0  # atno 8047 bound_to 8035
  153.2848  128.8829  146.3485 LP  0  0  0  0  0  0  0  0  0  0  0  0  # atno 14301 bound_to 288 
  153.5028  130.1124  147.4009 LP  0  0  0  0  0  0  0  0  0  0  0  0  # atno 14302 bound_to 288 
  113.6962  137.1737  109.1277 LP  0  0  0  0  0  0  0  0  0  0  0  0  # atno 14303 bound_to 289 
  113.4066  138.2368  113.9135 LP  0  0  0  0  0  0  0  0  0  0  0  0  # atno 14304 bound_to 292 
  114.8378  137.2617  113.8868 LP  0  0  0  0  0  0  0  0  0  0  0  0  # atno 14305 bound_to 292 
  116.4837  119.9620  182.3002 LP  0  0  0  0  0  0  0  0  0  0  0  0  # atno 14308 bound_to 4325
  118.2138  118.1587  182.6995 LP  0  0  0  0  0  0  0  0  0  0  0  0  # atno 14309 bound_to 4328
  116.8622  117.1938  183.1916 LP  0  0  0  0  0  0  0  0  0  0  0  0  # atno 14310 bound_to 4328
  115.2511  158.0550  160.4853 LP  0  0  0  0  0  0  0  0  0  0  0  0  # atno 14334 bound_to 334 
  117.1896  159.9287  158.4835 LP  0  0  0  0  0  0  0  0  0  0  0  0  # atno 14335 bound_to 337 
  118.4290  159.4410  157.3762 LP  0  0  0  0  0  0  0  0  0  0  0  0  # atno 14336 bound_to 337 
  125.0955  160.3616  169.7030 LP  0  0  0  0  0  0  0  0  0  0  0  0  # atno 14353 bound_to 1767
  122.6467  156.0658  168.2839 LP  0  0  0  0  0  0  0  0  0  0  0  0  # atno 14354 bound_to 1770
  121.6808  157.1782  169.1948 LP  0  0  0  0  0  0  0  0  0  0  0  0  # atno 14355 bound_to 1770
  109.1979  134.9976   96.9939 LP  0  0  0  0  0  0  0  0  0  0  0  0  # atno 14364 bound_to 103 
  112.7148  134.1232   99.9581 LP  0  0  0  0  0  0  0  0  0  0  0  0  # atno 14365 bound_to 106 
  111.5830  134.9383  100.9850 LP  0  0  0  0  0  0  0  0  0  0  0  0  # atno 14366 bound_to 106 
  115.4261  151.9151  181.1527 LP  0  0  0  0  0  0  0  0  0  0  0  0  # atno 14369 bound_to 64  
  113.9139  156.0284  178.3206 LP  0  0  0  0  0  0  0  0  0  0  0  0  # atno 14370 bound_to 67  
  115.3988  156.0569  179.2119 LP  0  0  0  0  0  0  0  0  0  0  0  0  # atno 14371 bound_to 67  
  130.8610  127.4402  151.3616 LP  0  0  0  0  0  0  0  0  0  0  0  0  # atno 14376 bound_to 1802
  131.8245  128.7212  151.6733 LP  0  0  0  0  0  0  0  0  0  0  0  0  # atno 14377 bound_to 1802
  144.2264  133.2656  149.8892 LP  0  0  0  0  0  0  0  0  0  0  0  0  # atno 14384 bound_to 204 
  143.7622  134.8271  150.0034 LP  0  0  0  0  0  0  0  0  0  0  0  0  # atno 14385 bound_to 204 
  138.5831  119.1397  150.3657 LP  0  0  0  0  0  0  0  0  0  0  0  0  # atno 14407 bound_to 1834
  138.2208  120.7193  150.1646 LP  0  0  0  0  0  0  0  0  0  0  0  0  # atno 14408 bound_to 1834
  138.7938  131.1939  134.8948 LP  0  0  0  0  0  0  0  0  0  0  0  0  # atno 14411 bound_to 3259
  139.5860  130.0335  134.0625 LP  0  0  0  0  0  0  0  0  0  0  0  0  # atno 14412 bound_to 3259
  148.5868  135.8841  155.8439 LP  0  0  0  0  0  0  0  0  0  0  0  0  # atno 14415 bound_to 4679
  148.0488  134.4584  156.4309 LP  0  0  0  0  0  0  0  0  0  0  0  0  # atno 14416 bound_to 4679
  129.4339  117.4574  144.5613 LP  0  0  0  0  0  0  0  0  0  0  0  0  # atno 14432 bound_to 2733
  129.1804  115.8460  144.4852 LP  0  0  0  0  0  0  0  0  0  0  0  0  # atno 14433 bound_to 2733
  115.2548  116.2939  168.2726 LP  0  0  0  0  0  0  0  0  0  0  0  0  # atno 14440 bound_to 3927
  116.6723  113.0078  165.5679 LP  0  0  0  0  0  0  0  0  0  0  0  0  # atno 14441 bound_to 3930
  115.9389  113.0227  167.1369 LP  0  0  0  0  0  0  0  0  0  0  0  0  # atno 14442 bound_to 3930
  136.4274  115.7963  145.5253 LP  0  0  0  0  0  0  0  0  0  0  0  0  # atno 14465 bound_to 2765
  137.3158  114.8876  144.4999 LP  0  0  0  0  0  0  0  0  0  0  0  0  # atno 14466 bound_to 2765
  118.2023  113.0213  167.0048 LP  0  0  0  0  0  0  0  0  0  0  0  0  # atno 14472 bound_to 3972
  120.2362  110.0323  167.9444 LP  0  0  0  0  0  0  0  0  0  0  0  0  # atno 14473 bound_to 3975
  120.1994  111.1568  166.6275 LP  0  0  0  0  0  0  0  0  0  0  0  0  # atno 14474 bound_to 3975
  144.4463  145.0880  166.9047 LP  0  0  0  0  0  0  0  0  0  0  0  0  # atno 14479 bound_to 4748
  144.1956  144.4629  168.3923 LP  0  0  0  0  0  0  0  0  0  0  0  0  # atno 14480 bound_to 4748
  130.8576  158.1117  180.3669 LP  0  0  0  0  0  0  0  0  0  0  0  0  # atno 14485 bound_to 1170
  127.0993  155.2564  181.4674 LP  0  0  0  0  0  0  0  0  0  0  0  0  # atno 14486 bound_to 1173
  128.2169  154.8452  182.7252 LP  0  0  0  0  0  0  0  0  0  0  0  0  # atno 14487 bound_to 1173
  130.2541  143.3294  185.4998 LP  0  0  0  0  0  0  0  0  0  0  0  0  # atno 14496 bound_to 862 
  128.7883  141.3371  181.3461 LP  0  0  0  0  0  0  0  0  0  0  0  0  # atno 14497 bound_to 865 
  130.1579  141.3015  182.4059 LP  0  0  0  0  0  0  0  0  0  0  0  0  # atno 14498 bound_to 865 
  138.4408  136.2118  164.3811 LP  0  0  0  0  0  0  0  0  0  0  0  0  # atno 14501 bound_to 4013
  137.0809  136.7368  163.6452 LP  0  0  0  0  0  0  0  0  0  0  0  0  # atno 14502 bound_to 4013
  143.2606  126.7013  148.9974 LP  0  0  0  0  0  0  0  0  0  0  0  0  # atno 14519 bound_to 1222
  143.8138  125.8779  147.7003 LP  0  0  0  0  0  0  0  0  0  0  0  0  # atno 14520 bound_to 1222
  131.0720  113.1907  179.5877 LP  0  0  0  0  0  0  0  0  0  0  0  0  # atno 14523 bound_to 225 
  134.2090  113.0201  181.1127 LP  0  0  0  0  0  0  0  0  0  0  0  0  # atno 14524 bound_to 228 
  132.9028  112.7703  180.0030 LP  0  0  0  0  0  0  0  0  0  0  0  0  # atno 14525 bound_to 228 

> <Gold.Score>
     Fitness  S(hb_ext) S(vdw_ext)  S(hb_int)    S(int)      intcor
     36.09       0.00      26.27       0.00      -0.04      -0.76

> <Gold.Goldscore.Fitness>
36.0864

> <Gold.Goldscore.Internal.Vdw>
-0.3786

> <Gold.Goldscore.Internal.Torsion>
-0.4210

> <Gold.Goldscore.External.Vdw>
26.2745

> <Gold.Goldscore.Internal.HBond>
0.0000

> <Gold.Goldscore.External.HBond>
0.0000

> <Gold.Goldscore.Internal.Correction>
-0.7585

> <Gold.Goldscore.Internal.Vdw.Weighted>
-0.3786

> <Gold.Goldscore.Internal.Torsion.Weighted>
-0.4210

> <Gold.Goldscore.External.Vdw.Weighted>
36.1275

> <Gold.Goldscore.Internal.HBond.Weighted>
0.0000

> <Gold.Goldscore.External.HBond.Weighted>
0.0000

> <Gold.Goldscore.Internal.Correction.Weighted>
-0.7585

> <Gold.Rescore>
     Score     S(PLP)   S(hbond)     S(cho)   S(metal)  DE(clash)   DE(tors)     intcor
     21.76     -22.34       0.00       0.00       0.00       0.00       0.29       ----

> <Gold.PLP.Fitness>
21.7552

> <Gold.PLP.PLP>
-22.3366

> <Gold.PLP.part.hbond>
-1.0000

> <Gold.PLP.part.metal>
0.0000

> <Gold.PLP.part.buried>
-0.4316

> <Gold.PLP.part.nonpolar>
-22.4044

> <Gold.PLP.part.repulsive>
1.4399

> <Gold.PLP.ligand.clash>
0.0000

> <Gold.PLP.ligand.torsion>
0.2907

> <Gold.PLP.Chemscore.Hbond>
0.0000

> <Gold.PLP.Chemscore.CHOScore>
0.0000

> <Gold.PLP.Chemscore.Metal>
0.0000

> <Gold.PLP.Chemscore.Internal.Correction>
   9.000000E+99

