#       Name:                CT1002167954
#       Creating user name   hitesit
#       Creation time:       Sun Apr 16 22:54:35 2023


#       File generated by GOLD software.
#

@<TRIPOS>MOLECULE
CT1002167954|ligand_prepared|mol2|1|dock1
    29    30     1
SMALL
NO_CHARGES


@<TRIPOS>ATOM
      1 C1         142.5959 129.5321 146.4155 C.3            1 RES1               0.0000
      2 C2         141.6884 128.2985 146.2322 C.ar           1 RES1               0.0000
      3 C3         141.6655 130.7145 146.6694 C.2            1 RES1               0.0000
      4 C4         143.5241 129.2094 147.5813 C.2            1 RES1               0.0000
      5 C5         143.4718 129.8523 145.1819 C.3            1 RES1               0.0000
      6 C6         141.1486 127.6456 147.3363 C.ar           1 RES1               0.0000
      7 C7         141.3805 127.8042 144.9675 C.ar           1 RES1               0.0000
      8 N8         141.5971 131.2030 147.9408 N.am           1 RES1               0.0000
      9 O9         140.9725 131.1856 145.7760 O.2            1 RES1               0.0000
     10 N10        143.4003 129.9531 148.7255 N.am           1 RES1               0.0000
     11 O11        144.3503 128.3068 147.5251 O.2            1 RES1               0.0000
     12 C12        144.5528 130.8876 145.4495 C.3            1 RES1               0.0000
     13 C13        140.3283 126.5404 147.1817 C.ar           1 RES1               0.0000
     14 C14        140.5601 126.6987 144.8151 C.ar           1 RES1               0.0000
     15 C15        142.4582 130.9149 148.9691 C.2            1 RES1               0.0000
     16 C16        140.0331 126.0665 145.9211 C.ar           1 RES1               0.0000
     17 O17        142.3759 131.5025 150.0439 O.2            1 RES1               0.0000
     18 H18        143.9476 128.9261 144.8367 H              1 RES1               0.0000
     19 H19        142.8249 130.2179 144.3749 H              1 RES1               0.0000
     20 H20        141.3717 128.0026 148.3362 H              1 RES1               0.0000
     21 H21        141.7848 128.2850 144.0831 H              1 RES1               0.0000
     22 H22        140.8353 131.8416 148.1461 H              1 RES1               0.0000
     23 H23        144.0729 129.7730 149.4641 H              1 RES1               0.0000
     24 H24        145.1379 131.0752 144.5517 H              1 RES1               0.0000
     25 H25        144.1135 131.8297 145.7708 H              1 RES1               0.0000
     26 H26        145.2296 130.5456 146.2298 H              1 RES1               0.0000
     27 H27        139.9171 126.0456 148.0554 H              1 RES1               0.0000
     28 H28        140.3310 126.3288 143.8211 H              1 RES1               0.0000
     29 H29        139.3901 125.2010 145.8002 H              1 RES1               0.0000
@<TRIPOS>BOND
    1    1    2 1     
    2    1    3 1     
    3    1    4 1     
    4    1    5 1     
    5    2    6 ar    
    6    2    7 ar    
    7    3    8 1     
    8    3    9 2     
    9    4   10 1     
   10    4   11 2     
   11    5   12 1     
   12    5   18 1     
   13    5   19 1     
   14    6   13 ar    
   15    6   20 1     
   16    7   14 ar    
   17    7   21 1     
   18    8   15 1     
   19    8   22 1     
   20   10   15 1     
   21   10   23 1     
   22   12   24 1     
   23   12   25 1     
   24   12   26 1     
   25   13   16 ar    
   26   13   27 1     
   27   14   16 ar    
   28   14   28 1     
   29   15   17 2     
   30   16   29 1     
@<TRIPOS>SUBSTRUCTURE
      1 RES1           1
@<TRIPOS>SET
DONOR_HYDROGENS      STATIC     ATOMS    <user>   **** ""
2 22 23
ATOM$RED        STATIC     ATOMS    COLORGROUP SYSTEM
2 22 23
@<TRIPOS>COMMENT
> <Gold.Version>
2022.3.0

> <Gold.Id.Protein>
unknown|7rmi_cavity_clean|pdb

> <Gold.Protein.RotatedTorsions>
[  294  288  286  283 ] final  -20.67 input   60.03 | X-H torsion
[  301  289  290  291 ] final  138.09 input  115.34 | X-H torsion
[ 4333 4325 4326 4327 ] final  -47.14 input   58.17 | X-H torsion
[  162  159  158  157 ] final  -27.07 input   59.97 | X-H torsion
[  352  334  335  336 ] final   97.17 input   81.54 | X-H torsion
[ 1783 1767 1768 1769 ] final   86.58 input  110.17 | X-H torsion
[  113  103  104  105 ] final  -28.79 input  112.99 | X-H torsion
[   82   64   65   66 ] final -144.37 input  112.25 | X-H torsion
[ 1807 1802 1800 1797 ] final   40.36 input   60.00 | X-H torsion
[  208  204  203  201 ] final -128.43 input   60.02 | X-H torsion
[ 1839 1834 1833 1830 ] final -122.80 input   59.99 | X-H torsion
[ 3268 3259 3258 3256 ] final -176.12 input   59.98 | X-H torsion
[ 4684 4679 4678 4675 ] final  -28.16 input   59.98 | X-H torsion
[ 2741 2733 2732 2730 ] final -110.09 input   60.00 | X-H torsion
[ 3932 3927 3928 3929 ] final   15.33 input   88.25 | X-H torsion
[ 2774 2765 2764 2762 ] final -132.27 input   60.03 | X-H torsion
[ 3980 3972 3973 3974 ] final  -98.09 input   60.58 | X-H torsion
[ 4755 4748 4746 4743 ] final  -48.33 input   60.02 | X-H torsion
[ 1184 1170 1171 1172 ] final  -81.33 input   67.97 | X-H torsion
[  880  862  863  864 ] final -141.59 input   59.67 | X-H torsion
[ 4018 4013 4012 4010 ] final  -62.59 input   60.01 | X-H torsion
[ 8045 8035 8034 8033 ] final  -19.07 input   59.99 | X-H torsion
[ 1224 1222 1220 1217 ] final -114.63 input   59.96 | X-H torsion
[  249  225  226  227 ] final  -22.02 input   51.53 | X-H torsion
[ 14304  292  291  290 ] final  -38.21 input    0.00 | X-H torsion
[ 14309 4328 4327 4326 ] final  171.03 input   -0.00 | X-H torsion
[ 14335  337  336  335 ] final -167.66 input   -0.00 | X-H torsion
[ 14354 1770 1769 1768 ] final   33.46 input   -0.00 | X-H torsion
[ 14365  106  105  104 ] final  112.01 input    0.00 | X-H torsion
[ 14370   67   66   65 ] final   99.60 input   -0.00 | X-H torsion
[ 14441 3930 3929 3928 ] final  -37.12 input   -0.00 | X-H torsion
[ 14473 3975 3974 3973 ] final  -76.47 input   -0.00 | X-H torsion
[ 14486 1173 1172 1171 ] final   31.77 input   -0.00 | X-H torsion
[ 14497  865  864  863 ] final  -51.12 input   -0.00 | X-H torsion
[ 14524  228  227  226 ] final -149.53 input    0.00 | X-H torsion

> <Gold.Protein.ActiveResidues>
 GLU27   LEU30   GLN31   ASP33   LYS34   GLN35   VAL36   TYR37   ARG38   THR40  
 HIS41   ARG42   GLU209  HIS220  PHE222  GLN236  ASN239  ASP240  VAL241  THR242 
 ARG280  TRP281  LEU282  ARG283  THR284  ILE285  SER286  VAL287  ILE288  GLY355 
 ARG356  HIS357  TYR358  CYS359  TYR360  ASP381  ILE382  ILE383  GLN385  MET386 
 ASN387  LEU388  ARG389  GLU390  TYR391  VAL394  ALA56   LYS57   ILE58   TYR59  
 ALA60   MET61   LEU79   ILE80   ILE81   TRP82   ILE93   SER98   TRP99   VAL100 
 MET101  THR102  CYS103  GLY310  HIS311  ASP312  ASN313  TRP332  ASP333  SER334 
 PHE335  LYS337 

> <Gold.Protein.RotatedAtoms>
  115.1746  152.3006  181.4949 H   0  0  0  0  0  0  0  0  0  0  0  0  # atno 82   bound_to 64  
  108.7162  134.8501   98.2631 H   0  0  0  0  0  0  0  0  0  0  0  0  # atno 113  bound_to 103 
  145.1017  139.0051  140.7732 H   0  0  0  0  0  0  0  0  0  0  0  0  # atno 162  bound_to 159 
  144.5417  138.5496  142.2654 H   0  0  0  0  0  0  0  0  0  0  0  0  # atno 163  bound_to 159 
  143.7881  139.7698  141.4342 H   0  0  0  0  0  0  0  0  0  0  0  0  # atno 164  bound_to 159 
  143.9851  133.5049  149.6610 H   0  0  0  0  0  0  0  0  0  0  0  0  # atno 208  bound_to 204 
  131.1849  114.0551  180.0176 H   0  0  0  0  0  0  0  0  0  0  0  0  # atno 249  bound_to 225 
  153.0098  129.1241  145.9414 H   0  0  0  0  0  0  0  0  0  0  0  0  # atno 294  bound_to 288 
  113.7616  137.3161  109.0757 H   0  0  0  0  0  0  0  0  0  0  0  0  # atno 301  bound_to 289 
  114.8122  158.9977  159.1361 H   0  0  0  0  0  0  0  0  0  0  0  0  # atno 352  bound_to 334 
  130.2249  143.3638  185.5075 H   0  0  0  0  0  0  0  0  0  0  0  0  # atno 880  bound_to 862 
  131.6142  156.6002  180.1990 H   0  0  0  0  0  0  0  0  0  0  0  0  # atno 1184 bound_to 1170
  143.6912  125.9313  147.7155 H   0  0  0  0  0  0  0  0  0  0  0  0  # atno 1224 bound_to 1222
  125.3344  160.0028  169.0218 H   0  0  0  0  0  0  0  0  0  0  0  0  # atno 1783 bound_to 1767
  131.2351  127.4418  152.7446 H   0  0  0  0  0  0  0  0  0  0  0  0  # atno 1807 bound_to 1802
  137.7859  120.2544  149.1259 H   0  0  0  0  0  0  0  0  0  0  0  0  # atno 1839 bound_to 1834
  130.2353  116.3910  143.5042 H   0  0  0  0  0  0  0  0  0  0  0  0  # atno 2741 bound_to 2733
  138.0545  115.6433  144.6094 H   0  0  0  0  0  0  0  0  0  0  0  0  # atno 2774 bound_to 2765
  139.6557  129.5391  135.0293 H   0  0  0  0  0  0  0  0  0  0  0  0  # atno 3268 bound_to 3259
  115.5998  116.7896  167.7341 H   0  0  0  0  0  0  0  0  0  0  0  0  # atno 3932 bound_to 3927
  119.3667  114.3233  167.0741 H   0  0  0  0  0  0  0  0  0  0  0  0  # atno 3980 bound_to 3972
  136.9683  137.0884  163.8443 H   0  0  0  0  0  0  0  0  0  0  0  0  # atno 4018 bound_to 4013
  115.6894  119.9235  181.8603 H   0  0  0  0  0  0  0  0  0  0  0  0  # atno 4333 bound_to 4325
  148.1340  135.3747  156.5134 H   0  0  0  0  0  0  0  0  0  0  0  0  # atno 4684 bound_to 4679
  144.4860  145.0777  166.9472 H   0  0  0  0  0  0  0  0  0  0  0  0  # atno 4755 bound_to 4748
  133.3023  147.6831  149.4274 H   0  0  0  0  0  0  0  0  0  0  0  0  # atno 8045 bound_to 8035
  132.1612  146.7412  148.6807 H   0  0  0  0  0  0  0  0  0  0  0  0  # atno 8046 bound_to 8035
  133.0665  147.8080  147.7911 H   0  0  0  0  0  0  0  0  0  0  0  0  # atno 8047 bound_to 8035
  153.6299  129.5788  147.3755 LP  0  0  0  0  0  0  0  0  0  0  0  0  # atno 14301 bound_to 288 
  152.8596  130.6679  146.4335 LP  0  0  0  0  0  0  0  0  0  0  0  0  # atno 14302 bound_to 288 
  115.0323  136.7015  110.1047 LP  0  0  0  0  0  0  0  0  0  0  0  0  # atno 14303 bound_to 289 
  114.7312  138.2143  113.4966 LP  0  0  0  0  0  0  0  0  0  0  0  0  # atno 14304 bound_to 292 
  113.5132  137.2842  114.3036 LP  0  0  0  0  0  0  0  0  0  0  0  0  # atno 14305 bound_to 292 
  117.0365  120.9100  181.3255 LP  0  0  0  0  0  0  0  0  0  0  0  0  # atno 14308 bound_to 4325
  117.2289  116.8757  183.0621 LP  0  0  0  0  0  0  0  0  0  0  0  0  # atno 14309 bound_to 4328
  117.8471  118.4768  182.8290 LP  0  0  0  0  0  0  0  0  0  0  0  0  # atno 14310 bound_to 4328
  115.5671  158.2773  160.5395 LP  0  0  0  0  0  0  0  0  0  0  0  0  # atno 14334 bound_to 334 
  118.6420  159.5304  157.7488 LP  0  0  0  0  0  0  0  0  0  0  0  0  # atno 14335 bound_to 337 
  116.9766  159.8392  158.1109 LP  0  0  0  0  0  0  0  0  0  0  0  0  # atno 14336 bound_to 337 
  125.2118  159.0401  170.4739 LP  0  0  0  0  0  0  0  0  0  0  0  0  # atno 14353 bound_to 1767
  121.6103  157.2064  169.0590 LP  0  0  0  0  0  0  0  0  0  0  0  0  # atno 14354 bound_to 1770
  122.7172  156.0376  168.4197 LP  0  0  0  0  0  0  0  0  0  0  0  0  # atno 14355 bound_to 1770
  108.9944  133.9592   96.7867 LP  0  0  0  0  0  0  0  0  0  0  0  0  # atno 14364 bound_to 103 
  112.8559  134.8769  100.1103 LP  0  0  0  0  0  0  0  0  0  0  0  0  # atno 14365 bound_to 106 
  111.4420  134.1847  100.8328 LP  0  0  0  0  0  0  0  0  0  0  0  0  # atno 14366 bound_to 106 
  114.1817  151.9825  180.0946 LP  0  0  0  0  0  0  0  0  0  0  0  0  # atno 14369 bound_to 64  
  115.1133  155.9812  178.0331 LP  0  0  0  0  0  0  0  0  0  0  0  0  # atno 14370 bound_to 67  
  114.1994  156.1042  179.4993 LP  0  0  0  0  0  0  0  0  0  0  0  0  # atno 14371 bound_to 67  
  130.9737  127.6843  151.1565 LP  0  0  0  0  0  0  0  0  0  0  0  0  # atno 14376 bound_to 1802
  131.9119  128.7211  152.0000 LP  0  0  0  0  0  0  0  0  0  0  0  0  # atno 14377 bound_to 1802
  143.9422  134.9847  150.3372 LP  0  0  0  0  0  0  0  0  0  0  0  0  # atno 14384 bound_to 204 
  144.8349  133.7987  151.0177 LP  0  0  0  0  0  0  0  0  0  0  0  0  # atno 14385 bound_to 204 
  138.3581  118.9012  149.8255 LP  0  0  0  0  0  0  0  0  0  0  0  0  # atno 14407 bound_to 1834
  138.4927  120.3383  150.5892 LP  0  0  0  0  0  0  0  0  0  0  0  0  # atno 14408 bound_to 1834
  138.8479  130.8351  135.5912 LP  0  0  0  0  0  0  0  0  0  0  0  0  # atno 14411 bound_to 3259
  139.2232  130.7277  134.0055 LP  0  0  0  0  0  0  0  0  0  0  0  0  # atno 14412 bound_to 3259
  148.4220  134.0141  155.6679 LP  0  0  0  0  0  0  0  0  0  0  0  0  # atno 14415 bound_to 4679
  148.9477  135.4544  155.1060 LP  0  0  0  0  0  0  0  0  0  0  0  0  # atno 14416 bound_to 4679
  129.5450  117.5145  144.4576 LP  0  0  0  0  0  0  0  0  0  0  0  0  # atno 14432 bound_to 2733
  129.1039  115.9475  144.5863 LP  0  0  0  0  0  0  0  0  0  0  0  0  # atno 14433 bound_to 2733
  113.8549  116.7255  167.8351 LP  0  0  0  0  0  0  0  0  0  0  0  0  # atno 14440 bound_to 3927
  115.7266  112.9856  166.9958 LP  0  0  0  0  0  0  0  0  0  0  0  0  # atno 14441 bound_to 3930
  116.8846  113.0449  165.7091 LP  0  0  0  0  0  0  0  0  0  0  0  0  # atno 14442 bound_to 3930
  136.9949  116.3741  145.6052 LP  0  0  0  0  0  0  0  0  0  0  0  0  # atno 14465 bound_to 2765
  136.6093  114.9533  144.8985 LP  0  0  0  0  0  0  0  0  0  0  0  0  # atno 14466 bound_to 2765
  118.2808  112.9540  166.9446 LP  0  0  0  0  0  0  0  0  0  0  0  0  # atno 14472 bound_to 3972
  119.7544  110.2008  167.9026 LP  0  0  0  0  0  0  0  0  0  0  0  0  # atno 14473 bound_to 3975
  120.6812  110.9882  166.6694 LP  0  0  0  0  0  0  0  0  0  0  0  0  # atno 14474 bound_to 3975
  144.1407  144.4463  168.4068 LP  0  0  0  0  0  0  0  0  0  0  0  0  # atno 14479 bound_to 4748
  142.9583  144.6395  167.2972 LP  0  0  0  0  0  0  0  0  0  0  0  0  # atno 14480 bound_to 4748
  130.5700  158.0010  180.0848 LP  0  0  0  0  0  0  0  0  0  0  0  0  # atno 14485 bound_to 1170
  127.6328  155.8494  182.4304 LP  0  0  0  0  0  0  0  0  0  0  0  0  # atno 14486 bound_to 1173
  127.6834  154.2522  181.7622 LP  0  0  0  0  0  0  0  0  0  0  0  0  # atno 14487 bound_to 1173
  130.8414  142.5355  184.0925 LP  0  0  0  0  0  0  0  0  0  0  0  0  # atno 14496 bound_to 862 
  129.3981  142.1076  181.5255 LP  0  0  0  0  0  0  0  0  0  0  0  0  # atno 14497 bound_to 865 
  129.5481  140.5309  182.2265 LP  0  0  0  0  0  0  0  0  0  0  0  0  # atno 14498 bound_to 865 
  138.0497  137.3683  165.0275 LP  0  0  0  0  0  0  0  0  0  0  0  0  # atno 14501 bound_to 4013
  138.2147  136.0644  164.0584 LP  0  0  0  0  0  0  0  0  0  0  0  0  # atno 14502 bound_to 4013
  144.8145  126.0300  148.8890 LP  0  0  0  0  0  0  0  0  0  0  0  0  # atno 14519 bound_to 1222
  143.3471  126.7145  149.1001 LP  0  0  0  0  0  0  0  0  0  0  0  0  # atno 14520 bound_to 1222
  129.6953  113.1387  179.9815 LP  0  0  0  0  0  0  0  0  0  0  0  0  # atno 14523 bound_to 225 
  134.1503  112.4690  181.0216 LP  0  0  0  0  0  0  0  0  0  0  0  0  # atno 14524 bound_to 228 
  132.9615  113.3214  180.0941 LP  0  0  0  0  0  0  0  0  0  0  0  0  # atno 14525 bound_to 228 

> <Gold.Score>
     Fitness  S(hb_ext) S(vdw_ext)  S(hb_int)    S(int)      intcor
     33.54       7.37      19.12       0.00      -0.12      -0.76

> <Gold.Goldscore.Fitness>
33.5396

> <Gold.Goldscore.Internal.Vdw>
-0.3178

> <Gold.Goldscore.Internal.Torsion>
-0.5638

> <Gold.Goldscore.External.Vdw>
19.1179

> <Gold.Goldscore.Internal.HBond>
0.0000

> <Gold.Goldscore.External.HBond>
7.3691

> <Gold.Goldscore.Internal.Correction>
-0.7650

> <Gold.Goldscore.Hbonds>
donor molecule, donor type, donor heavy atom, donor atom, acceptor molecule, acceptor atom, score
      P1  H   313   317       L1    11  0.65
      P1  H   333   346       L1    17  1.00
      P1  H   204   208       L1    17  0.03

> <Gold.Goldscore.Internal.Vdw.Weighted>
-0.3178

> <Gold.Goldscore.Internal.Torsion.Weighted>
-0.5638

> <Gold.Goldscore.External.Vdw.Weighted>
26.2871

> <Gold.Goldscore.Internal.HBond.Weighted>
0.0000

> <Gold.Goldscore.External.HBond.Weighted>
7.3691

> <Gold.Goldscore.Internal.Correction.Weighted>
-0.7650

> <Gold.Rescore>
     Score     S(PLP)   S(hbond)     S(cho)   S(metal)  DE(clash)   DE(tors)     intcor
     42.55     -31.69       3.69       0.00       0.00       0.00       0.10       ----

> <Gold.PLP.Fitness>
42.5497

> <Gold.PLP.PLP>
-31.6852

> <Gold.PLP.part.hbond>
-5.0000

> <Gold.PLP.part.metal>
0.0000

> <Gold.PLP.part.buried>
-4.9022

> <Gold.PLP.part.nonpolar>
-22.6579

> <Gold.PLP.part.repulsive>
0.2613

> <Gold.PLP.ligand.clash>
0.0000

> <Gold.PLP.ligand.torsion>
0.0999

> <Gold.PLP.Chemscore.Hbond>
3.6881

> <Gold.PLP.Chemscore.CHOScore>
0.0000

> <Gold.PLP.Chemscore.Metal>
0.0000

> <Gold.Chemscore.Hbonds>
donor molecule, donor type, donor heavy atom, donor atom, acceptor molecule, acceptor atom, score
      P1  H   313   317       L1    11  0.39
      P1  H   333   346       L1    17  1.00

> <Gold.PLP.Chemscore.Internal.Correction>
   9.000000E+99

