#       Name:                CT1002167954
#       Creating user name   hitesit
#       Creation time:       Sun Apr 16 22:55:40 2023


#       File generated by GOLD software.
#

@<TRIPOS>MOLECULE
CT1002167954|ligand_prepared|mol2|1|dock6
    29    30     1
SMALL
NO_CHARGES


@<TRIPOS>ATOM
      1 C1         143.3379 129.9578 146.5844 C.3            1 RES1               0.0000
      2 C2         142.5780 128.8361 145.8473 C.ar           1 RES1               0.0000
      3 C3         142.7938 129.9788 148.0098 C.2            1 RES1               0.0000
      4 C4         144.8180 129.6046 146.4886 C.2            1 RES1               0.0000
      5 C5         143.1400 131.3597 145.9624 C.3            1 RES1               0.0000
      6 C6         142.2006 127.6766 146.5180 C.ar           1 RES1               0.0000
      7 C7         142.2457 128.9474 144.4998 C.ar           1 RES1               0.0000
      8 N8         143.5906 129.4796 148.9977 N.am           1 RES1               0.0000
      9 O9         141.6672 130.3906 148.2578 O.2            1 RES1               0.0000
     10 N10        145.4813 129.2982 147.6479 N.am           1 RES1               0.0000
     11 O11        145.4118 129.5727 145.4178 O.2            1 RES1               0.0000
     12 C12        143.7015 132.4910 146.8092 C.3            1 RES1               0.0000
     13 C13        141.5132 126.6663 145.8661 C.ar           1 RES1               0.0000
     14 C14        141.5585 127.9357 143.8497 C.ar           1 RES1               0.0000
     15 C15        144.9274 129.1898 148.8943 C.2            1 RES1               0.0000
     16 C16        141.1913 126.7952 144.5318 C.ar           1 RES1               0.0000
     17 O17        145.5784 128.8561 149.8802 O.2            1 RES1               0.0000
     18 H18        143.6245 131.3811 144.9785 H              1 RES1               0.0000
     19 H19        142.0669 131.5308 145.8115 H              1 RES1               0.0000
     20 H20        142.4473 127.5563 147.5676 H              1 RES1               0.0000
     21 H21        142.5253 129.8352 143.9428 H              1 RES1               0.0000
     22 H22        143.1519 129.3057 149.8964 H              1 RES1               0.0000
     23 H23        146.4807 129.1360 147.5749 H              1 RES1               0.0000
     24 H24        143.5362 133.4523 146.3272 H              1 RES1               0.0000
     25 H25        143.2238 132.5152 147.7864 H              1 RES1               0.0000
     26 H26        144.7721 132.3664 146.9583 H              1 RES1               0.0000
     27 H27        141.2278 125.7701 146.4071 H              1 RES1               0.0000
     28 H28        141.3078 128.0412 142.7994 H              1 RES1               0.0000
     29 H29        140.6525 126.0037 144.0215 H              1 RES1               0.0000
@<TRIPOS>BOND
    1    1    2 1     
    2    1    3 1     
    3    1    4 1     
    4    1    5 1     
    5    2    6 ar    
    6    2    7 ar    
    7    3    8 1     
    8    3    9 2     
    9    4   10 1     
   10    4   11 2     
   11    5   12 1     
   12    5   18 1     
   13    5   19 1     
   14    6   13 ar    
   15    6   20 1     
   16    7   14 ar    
   17    7   21 1     
   18    8   15 1     
   19    8   22 1     
   20   10   15 1     
   21   10   23 1     
   22   12   24 1     
   23   12   25 1     
   24   12   26 1     
   25   13   16 ar    
   26   13   27 1     
   27   14   16 ar    
   28   14   28 1     
   29   15   17 2     
   30   16   29 1     
@<TRIPOS>SUBSTRUCTURE
      1 RES1           1
@<TRIPOS>SET
DONOR_HYDROGENS      STATIC     ATOMS    <user>   **** ""
2 22 23
ATOM$RED        STATIC     ATOMS    COLORGROUP SYSTEM
2 22 23
@<TRIPOS>COMMENT
> <Gold.Version>
2022.3.0

> <Gold.Id.Protein>
unknown|7rmi_cavity_clean|pdb

> <Gold.Protein.RotatedTorsions>
[  294  288  286  283 ] final  101.16 input   60.03 | X-H torsion
[  301  289  290  291 ] final   16.78 input  115.34 | X-H torsion
[ 4333 4325 4326 4327 ] final   99.27 input   58.17 | X-H torsion
[  162  159  158  157 ] final   -9.27 input   59.97 | X-H torsion
[  352  334  335  336 ] final  143.09 input   81.54 | X-H torsion
[ 1783 1767 1768 1769 ] final -162.76 input  110.17 | X-H torsion
[  113  103  104  105 ] final  153.59 input  112.99 | X-H torsion
[   82   64   65   66 ] final  -56.89 input  112.25 | X-H torsion
[ 1807 1802 1800 1797 ] final -121.49 input   60.00 | X-H torsion
[  208  204  203  201 ] final  -78.53 input   60.02 | X-H torsion
[ 1839 1834 1833 1830 ] final  -14.57 input   59.99 | X-H torsion
[ 3268 3259 3258 3256 ] final   -1.85 input   59.98 | X-H torsion
[ 4684 4679 4678 4675 ] final  116.19 input   59.98 | X-H torsion
[ 2741 2733 2732 2730 ] final -134.16 input   60.00 | X-H torsion
[ 3932 3927 3928 3929 ] final  -52.37 input   88.25 | X-H torsion
[ 2774 2765 2764 2762 ] final  135.91 input   60.03 | X-H torsion
[ 3980 3972 3973 3974 ] final  150.36 input   60.58 | X-H torsion
[ 4755 4748 4746 4743 ] final  179.77 input   60.02 | X-H torsion
[ 1184 1170 1171 1172 ] final   57.79 input   67.97 | X-H torsion
[  880  862  863  864 ] final  -85.46 input   59.67 | X-H torsion
[ 4018 4013 4012 4010 ] final  169.67 input   60.01 | X-H torsion
[ 8045 8035 8034 8033 ] final  -54.00 input   59.99 | X-H torsion
[ 1224 1222 1220 1217 ] final -150.17 input   59.96 | X-H torsion
[  249  225  226  227 ] final  -11.92 input   51.53 | X-H torsion
[ 14304  292  291  290 ] final  -12.34 input    0.00 | X-H torsion
[ 14309 4328 4327 4326 ] final  149.04 input   -0.00 | X-H torsion
[ 14335  337  336  335 ] final   10.97 input   -0.00 | X-H torsion
[ 14354 1770 1769 1768 ] final  -13.13 input   -0.00 | X-H torsion
[ 14365  106  105  104 ] final  -12.69 input    0.00 | X-H torsion
[ 14370   67   66   65 ] final -126.52 input   -0.00 | X-H torsion
[ 14441 3930 3929 3928 ] final -142.16 input   -0.00 | X-H torsion
[ 14473 3975 3974 3973 ] final  153.29 input   -0.00 | X-H torsion
[ 14486 1173 1172 1171 ] final  122.46 input   -0.00 | X-H torsion
[ 14497  865  864  863 ] final   58.09 input   -0.00 | X-H torsion
[ 14524  228  227  226 ] final -155.13 input    0.00 | X-H torsion

> <Gold.Protein.ActiveResidues>
 GLU27   LEU30   GLN31   ASP33   LYS34   GLN35   VAL36   TYR37   ARG38   THR40  
 HIS41   ARG42   GLU209  HIS220  PHE222  GLN236  ASN239  ASP240  VAL241  THR242 
 ARG280  TRP281  LEU282  ARG283  THR284  ILE285  SER286  VAL287  ILE288  GLY355 
 ARG356  HIS357  TYR358  CYS359  TYR360  ASP381  ILE382  ILE383  GLN385  MET386 
 ASN387  LEU388  ARG389  GLU390  TYR391  VAL394  ALA56   LYS57   ILE58   TYR59  
 ALA60   MET61   LEU79   ILE80   ILE81   TRP82   ILE93   SER98   TRP99   VAL100 
 MET101  THR102  CYS103  GLY310  HIS311  ASP312  ASN313  TRP332  ASP333  SER334 
 PHE335  LYS337 

> <Gold.Protein.RotatedAtoms>
  114.0979  152.7217  181.1132 H   0  0  0  0  0  0  0  0  0  0  0  0  # atno 82   bound_to 64  
  108.9834  133.9205   96.7883 H   0  0  0  0  0  0  0  0  0  0  0  0  # atno 113  bound_to 103 
  145.2049  138.7946  140.9543 H   0  0  0  0  0  0  0  0  0  0  0  0  # atno 162  bound_to 159 
  144.3066  138.7113  142.3450 H   0  0  0  0  0  0  0  0  0  0  0  0  # atno 163  bound_to 159 
  143.9201  139.8185  141.1735 H   0  0  0  0  0  0  0  0  0  0  0  0  # atno 164  bound_to 159 
  144.4726  133.1946  150.1998 H   0  0  0  0  0  0  0  0  0  0  0  0  # atno 208  bound_to 204 
  131.2446  113.9350  179.9375 H   0  0  0  0  0  0  0  0  0  0  0  0  # atno 249  bound_to 225 
  152.8714  130.6690  146.4618 H   0  0  0  0  0  0  0  0  0  0  0  0  # atno 294  bound_to 288 
  114.3180  136.2372  110.0204 H   0  0  0  0  0  0  0  0  0  0  0  0  # atno 301  bound_to 289 
  114.4647  158.4504  159.3785 H   0  0  0  0  0  0  0  0  0  0  0  0  # atno 352  bound_to 334 
  130.1674  142.5270  185.4836 H   0  0  0  0  0  0  0  0  0  0  0  0  # atno 880  bound_to 862 
  130.3461  157.5690  179.7129 H   0  0  0  0  0  0  0  0  0  0  0  0  # atno 1184 bound_to 1170
  144.2286  125.7575  147.8037 H   0  0  0  0  0  0  0  0  0  0  0  0  # atno 1224 bound_to 1222
  125.0051  160.0111  170.4344 H   0  0  0  0  0  0  0  0  0  0  0  0  # atno 1783 bound_to 1767
  131.3389  128.2422  151.0803 H   0  0  0  0  0  0  0  0  0  0  0  0  # atno 1807 bound_to 1802
  138.4154  120.4825  150.4872 H   0  0  0  0  0  0  0  0  0  0  0  0  # atno 1839 bound_to 1834
  130.2858  116.7769  143.5330 H   0  0  0  0  0  0  0  0  0  0  0  0  # atno 2741 bound_to 2733
  137.4168  116.4707  145.4565 H   0  0  0  0  0  0  0  0  0  0  0  0  # atno 2774 bound_to 2765
  138.8510  131.1796  134.6315 H   0  0  0  0  0  0  0  0  0  0  0  0  # atno 3268 bound_to 3259
  115.1059  116.1997  168.3536 H   0  0  0  0  0  0  0  0  0  0  0  0  # atno 3932 bound_to 3927
  118.0348  113.7839  167.4176 H   0  0  0  0  0  0  0  0  0  0  0  0  # atno 3980 bound_to 3972
  138.1425  137.2816  165.0314 H   0  0  0  0  0  0  0  0  0  0  0  0  # atno 4018 bound_to 4013
  117.2341  120.6520  181.7172 H   0  0  0  0  0  0  0  0  0  0  0  0  # atno 4333 bound_to 4325
  148.9760  135.0837  154.9687 H   0  0  0  0  0  0  0  0  0  0  0  0  # atno 4684 bound_to 4679
  143.9521  144.4005  168.4237 H   0  0  0  0  0  0  0  0  0  0  0  0  # atno 4755 bound_to 4748
  133.5189  147.9865  148.9904 H   0  0  0  0  0  0  0  0  0  0  0  0  # atno 8045 bound_to 8035
  132.3622  146.8205  149.2127 H   0  0  0  0  0  0  0  0  0  0  0  0  # atno 8046 bound_to 8035
  132.6488  147.4250  147.6957 H   0  0  0  0  0  0  0  0  0  0  0  0  # atno 8047 bound_to 8035
  152.9964  129.1401  145.9189 LP  0  0  0  0  0  0  0  0  0  0  0  0  # atno 14301 bound_to 288 
  153.6325  129.5504  147.3659 LP  0  0  0  0  0  0  0  0  0  0  0  0  # atno 14302 bound_to 288 
  114.4872  137.7586  109.1791 LP  0  0  0  0  0  0  0  0  0  0  0  0  # atno 14303 bound_to 289 
  114.4236  138.4503  113.4906 LP  0  0  0  0  0  0  0  0  0  0  0  0  # atno 14304 bound_to 292 
  113.8208  137.0482  114.3097 LP  0  0  0  0  0  0  0  0  0  0  0  0  # atno 14305 bound_to 292 
  115.5562  120.2118  181.4626 LP  0  0  0  0  0  0  0  0  0  0  0  0  # atno 14308 bound_to 4325
  116.9690  117.0576  183.1542 LP  0  0  0  0  0  0  0  0  0  0  0  0  # atno 14309 bound_to 4328
  118.1070  118.2948  182.7369 LP  0  0  0  0  0  0  0  0  0  0  0  0  # atno 14310 bound_to 4328
  115.9047  158.8089  160.3040 LP  0  0  0  0  0  0  0  0  0  0  0  0  # atno 14334 bound_to 334 
  116.9716  159.8339  158.0916 LP  0  0  0  0  0  0  0  0  0  0  0  0  # atno 14335 bound_to 337 
  118.6469  159.5358  157.7681 LP  0  0  0  0  0  0  0  0  0  0  0  0  # atno 14336 bound_to 337 
  125.5347  159.0320  169.0886 LP  0  0  0  0  0  0  0  0  0  0  0  0  # atno 14353 bound_to 1767
  122.0334  156.9473  169.5313 LP  0  0  0  0  0  0  0  0  0  0  0  0  # atno 14354 bound_to 1770
  122.2940  156.2967  167.9474 LP  0  0  0  0  0  0  0  0  0  0  0  0  # atno 14355 bound_to 1770
  108.7325  134.8704   98.2324 LP  0  0  0  0  0  0  0  0  0  0  0  0  # atno 14364 bound_to 103 
  111.8965  133.7084  100.3716 LP  0  0  0  0  0  0  0  0  0  0  0  0  # atno 14365 bound_to 106 
  112.4014  135.3531  100.5715 LP  0  0  0  0  0  0  0  0  0  0  0  0  # atno 14366 bound_to 106 
  115.2399  151.5685  180.4697 LP  0  0  0  0  0  0  0  0  0  0  0  0  # atno 14369 bound_to 64  
  113.8095  156.0744  178.9449 LP  0  0  0  0  0  0  0  0  0  0  0  0  # atno 14370 bound_to 67  
  115.5031  156.0110  178.5875 LP  0  0  0  0  0  0  0  0  0  0  0  0  # atno 14371 bound_to 67  
  131.8741  128.4296  152.6060 LP  0  0  0  0  0  0  0  0  0  0  0  0  # atno 14376 bound_to 1802
  130.9070  127.1699  152.2260 LP  0  0  0  0  0  0  0  0  0  0  0  0  # atno 14377 bound_to 1802
  143.6759  134.5363  149.7368 LP  0  0  0  0  0  0  0  0  0  0  0  0  # atno 14384 bound_to 204 
  144.6104  134.5595  151.0757 LP  0  0  0  0  0  0  0  0  0  0  0  0  # atno 14385 bound_to 204 
  137.7785  120.0796  149.0449 LP  0  0  0  0  0  0  0  0  0  0  0  0  # atno 14407 bound_to 1834
  138.4383  118.9303  149.9991 LP  0  0  0  0  0  0  0  0  0  0  0  0  # atno 14408 bound_to 1834
  139.6635  129.8302  134.2232 LP  0  0  0  0  0  0  0  0  0  0  0  0  # atno 14411 bound_to 3259
  139.2179  130.0807  135.7741 LP  0  0  0  0  0  0  0  0  0  0  0  0  # atno 14412 bound_to 3259
  148.2878  135.6824  156.3167 LP  0  0  0  0  0  0  0  0  0  0  0  0  # atno 14415 bound_to 4679
  148.2342  134.0789  156.0124 LP  0  0  0  0  0  0  0  0  0  0  0  0  # atno 14416 bound_to 4679
  129.2852  117.3324  144.6897 LP  0  0  0  0  0  0  0  0  0  0  0  0  # atno 14432 bound_to 2733
  129.3128  115.7408  144.3252 LP  0  0  0  0  0  0  0  0  0  0  0  0  # atno 14433 bound_to 2733
  114.3351  117.2990  167.2328 LP  0  0  0  0  0  0  0  0  0  0  0  0  # atno 14440 bound_to 3927
  117.0686  113.1404  166.7424 LP  0  0  0  0  0  0  0  0  0  0  0  0  # atno 14441 bound_to 3930
  115.5425  112.8901  165.9624 LP  0  0  0  0  0  0  0  0  0  0  0  0  # atno 14442 bound_to 3930
  136.3916  115.2358  145.1877 LP  0  0  0  0  0  0  0  0  0  0  0  0  # atno 14465 bound_to 2765
  137.8548  115.2585  144.4630 LP  0  0  0  0  0  0  0  0  0  0  0  0  # atno 14466 bound_to 2765
  119.5610  113.4726  166.6145 LP  0  0  0  0  0  0  0  0  0  0  0  0  # atno 14472 bound_to 3972
  121.0587  110.5282  167.0898 LP  0  0  0  0  0  0  0  0  0  0  0  0  # atno 14473 bound_to 3975
  119.3769  110.6609  167.4821 LP  0  0  0  0  0  0  0  0  0  0  0  0  # atno 14474 bound_to 3975
  143.0194  144.7170  167.1282 LP  0  0  0  0  0  0  0  0  0  0  0  0  # atno 14479 bound_to 4748
  144.6174  145.0510  167.0885 LP  0  0  0  0  0  0  0  0  0  0  0  0  # atno 14480 bound_to 4748
  131.7960  157.0643  180.5548 LP  0  0  0  0  0  0  0  0  0  0  0  0  # atno 14485 bound_to 1170
  127.0980  155.2809  181.4771 LP  0  0  0  0  0  0  0  0  0  0  0  0  # atno 14486 bound_to 1173
  128.2181  154.8207  182.7155 LP  0  0  0  0  0  0  0  0  0  0  0  0  # atno 14487 bound_to 1173
  130.8969  143.3421  184.1155 LP  0  0  0  0  0  0  0  0  0  0  0  0  # atno 14496 bound_to 862 
  130.1589  141.3065  182.4047 LP  0  0  0  0  0  0  0  0  0  0  0  0  # atno 14497 bound_to 865 
  128.7874  141.3321  181.3472 LP  0  0  0  0  0  0  0  0  0  0  0  0  # atno 14498 bound_to 865 
  138.1256  136.0497  163.9684 LP  0  0  0  0  0  0  0  0  0  0  0  0  # atno 14501 bound_to 4013
  136.9560  137.1883  163.9218 LP  0  0  0  0  0  0  0  0  0  0  0  0  # atno 14502 bound_to 4013
  144.5384  126.3292  149.2958 LP  0  0  0  0  0  0  0  0  0  0  0  0  # atno 14519 bound_to 1222
  143.0822  126.5902  148.6045 LP  0  0  0  0  0  0  0  0  0  0  0  0  # atno 14520 bound_to 1222
  129.6374  113.2553  180.0594 LP  0  0  0  0  0  0  0  0  0  0  0  0  # atno 14523 bound_to 225 
  134.1766  112.5443  181.0494 LP  0  0  0  0  0  0  0  0  0  0  0  0  # atno 14524 bound_to 228 
  132.9352  113.2461  180.0663 LP  0  0  0  0  0  0  0  0  0  0  0  0  # atno 14525 bound_to 228 

> <Gold.Score>
     Fitness  S(hb_ext) S(vdw_ext)  S(hb_int)    S(int)      intcor
     33.68       3.97      21.92       0.00      -0.43      -0.76

> <Gold.Goldscore.Fitness>
33.6819

> <Gold.Goldscore.Internal.Vdw>
-0.6846

> <Gold.Goldscore.Internal.Torsion>
-0.5052

> <Gold.Goldscore.External.Vdw>
21.9211

> <Gold.Goldscore.Internal.HBond>
0.0000

> <Gold.Goldscore.External.HBond>
3.9716

> <Gold.Goldscore.Internal.Correction>
-0.7585

> <Gold.Goldscore.Hbonds>
donor molecule, donor type, donor heavy atom, donor atom, acceptor molecule, acceptor atom, score
      P1  H   323   345       L1    17  0.66
      L1  H     8    22       P1  1193  0.35
      L1  H    10    23       P1   285  0.97

> <Gold.Goldscore.Internal.Vdw.Weighted>
-0.6846

> <Gold.Goldscore.Internal.Torsion.Weighted>
-0.5052

> <Gold.Goldscore.External.Vdw.Weighted>
30.1415

> <Gold.Goldscore.Internal.HBond.Weighted>
0.0000

> <Gold.Goldscore.External.HBond.Weighted>
3.9716

> <Gold.Goldscore.Internal.Correction.Weighted>
-0.7585

> <Gold.Rescore>
     Score     S(PLP)   S(hbond)     S(cho)   S(metal)  DE(clash)   DE(tors)     intcor
     32.06     -26.95       2.17       0.00       0.00       0.00       0.70       ----

> <Gold.PLP.Fitness>
32.0591

> <Gold.PLP.PLP>
-26.9489

> <Gold.PLP.part.hbond>
-6.6001

> <Gold.PLP.part.metal>
0.0000

> <Gold.PLP.part.buried>
1.0702

> <Gold.PLP.part.nonpolar>
-21.8689

> <Gold.PLP.part.repulsive>
0.8686

> <Gold.PLP.ligand.clash>
0.0000

> <Gold.PLP.ligand.torsion>
0.7041

> <Gold.PLP.Chemscore.Hbond>
2.1728

> <Gold.PLP.Chemscore.CHOScore>
0.0000

> <Gold.PLP.Chemscore.Metal>
0.0000

> <Gold.Chemscore.Hbonds>
donor molecule, donor type, donor heavy atom, donor atom, acceptor molecule, acceptor atom, score
      L1  H     8    22       P1  1193  0.59
      L1  H    10    23       P1   285  0.88
      P1  H   323   345       L1    17  1.00

> <Gold.PLP.Chemscore.Internal.Correction>
   9.000000E+99

