#       Name:                CT1002167954
#       Creating user name   hitesit
#       Creation time:       Sun Apr 16 22:56:04 2023


#       File generated by GOLD software.
#

@<TRIPOS>MOLECULE
CT1002167954|ligand_prepared|mol2|1|dock8
    29    30     1
SMALL
NO_CHARGES


@<TRIPOS>ATOM
      1 C1         143.8513 131.6202 146.2830 C.3            1 RES1               0.0000
      2 C2         143.1449 130.2702 146.5223 C.ar           1 RES1               0.0000
      3 C3         143.3636 132.1247 144.9281 C.2            1 RES1               0.0000
      4 C4         143.4676 132.5162 147.4554 C.2            1 RES1               0.0000
      5 C5         145.3940 131.5197 146.2434 C.3            1 RES1               0.0000
      6 C6         143.4882 129.1483 145.7739 C.ar           1 RES1               0.0000
      7 C7         142.1516 130.1309 147.4880 C.ar           1 RES1               0.0000
      8 N8         142.4768 133.1608 144.9216 N.am           1 RES1               0.0000
      9 O9         143.7211 131.5958 143.8828 O.2            1 RES1               0.0000
     10 N10        142.7020 133.6224 147.1945 N.am           1 RES1               0.0000
     11 O11        143.8074 132.2653 148.6051 O.2            1 RES1               0.0000
     12 C12        145.9780 130.6236 147.3242 C.3            1 RES1               0.0000
     13 C13        142.8634 127.9304 145.9852 C.ar           1 RES1               0.0000
     14 C14        141.5278 128.9121 147.6975 C.ar           1 RES1               0.0000
     15 C15        142.1635 133.9685 145.9851 C.2            1 RES1               0.0000
     16 C16        141.8832 127.8113 146.9473 C.ar           1 RES1               0.0000
     17 O17        141.4395 134.9493 145.8404 O.2            1 RES1               0.0000
     18 H18        145.6977 131.1338 145.2625 H              1 RES1               0.0000
     19 H19        145.8164 132.5262 146.3531 H              1 RES1               0.0000
     20 H20        144.2556 129.2234 145.0107 H              1 RES1               0.0000
     21 H21        141.8550 130.9836 148.0893 H              1 RES1               0.0000
     22 H22        142.0027 133.3528 144.0448 H              1 RES1               0.0000
     23 H23        142.5164 134.2456 147.9739 H              1 RES1               0.0000
     24 H24        147.0630 130.5882 147.2513 H              1 RES1               0.0000
     25 H25        145.7167 130.9924 148.3139 H              1 RES1               0.0000
     26 H26        145.5987 129.6081 147.2298 H              1 RES1               0.0000
     27 H27        143.1458 127.0675 145.3912 H              1 RES1               0.0000
     28 H28        140.7564 128.8231 148.4553 H              1 RES1               0.0000
     29 H29        141.3941 126.8571 147.1128 H              1 RES1               0.0000
@<TRIPOS>BOND
    1    1    2 1     
    2    1    3 1     
    3    1    4 1     
    4    1    5 1     
    5    2    6 ar    
    6    2    7 ar    
    7    3    8 1     
    8    3    9 2     
    9    4   10 1     
   10    4   11 2     
   11    5   12 1     
   12    5   18 1     
   13    5   19 1     
   14    6   13 ar    
   15    6   20 1     
   16    7   14 ar    
   17    7   21 1     
   18    8   15 1     
   19    8   22 1     
   20   10   15 1     
   21   10   23 1     
   22   12   24 1     
   23   12   25 1     
   24   12   26 1     
   25   13   16 ar    
   26   13   27 1     
   27   14   16 ar    
   28   14   28 1     
   29   15   17 2     
   30   16   29 1     
@<TRIPOS>SUBSTRUCTURE
      1 RES1           1
@<TRIPOS>SET
DONOR_HYDROGENS      STATIC     ATOMS    <user>   **** ""
2 22 23
ATOM$RED        STATIC     ATOMS    COLORGROUP SYSTEM
2 22 23
@<TRIPOS>COMMENT
> <Gold.Version>
2022.3.0

> <Gold.Id.Protein>
unknown|7rmi_cavity_clean|pdb

> <Gold.Protein.RotatedTorsions>
[  294  288  286  283 ] final  -77.36 input   60.03 | X-H torsion
[  301  289  290  291 ] final  -98.12 input  115.34 | X-H torsion
[ 4333 4325 4326 4327 ] final  -13.13 input   58.17 | X-H torsion
[  162  159  158  157 ] final  -45.28 input   59.97 | X-H torsion
[  352  334  335  336 ] final -174.23 input   81.54 | X-H torsion
[ 1783 1767 1768 1769 ] final   68.05 input  110.17 | X-H torsion
[  113  103  104  105 ] final  -90.79 input  112.99 | X-H torsion
[   82   64   65   66 ] final  -71.45 input  112.25 | X-H torsion
[ 1807 1802 1800 1797 ] final  -87.11 input   60.00 | X-H torsion
[  208  204  203  201 ] final -113.62 input   60.02 | X-H torsion
[ 1839 1834 1833 1830 ] final  -71.68 input   59.99 | X-H torsion
[ 3268 3259 3258 3256 ] final  168.63 input   59.98 | X-H torsion
[ 4684 4679 4678 4675 ] final  -42.42 input   59.98 | X-H torsion
[ 2741 2733 2732 2730 ] final  172.59 input   60.00 | X-H torsion
[ 3932 3927 3928 3929 ] final  -51.20 input   88.25 | X-H torsion
[ 2774 2765 2764 2762 ] final  -91.87 input   60.03 | X-H torsion
[ 3980 3972 3973 3974 ] final -112.18 input   60.58 | X-H torsion
[ 4755 4748 4746 4743 ] final  -45.68 input   60.02 | X-H torsion
[ 1184 1170 1171 1172 ] final  131.04 input   67.97 | X-H torsion
[  880  862  863  864 ] final   56.92 input   59.67 | X-H torsion
[ 4018 4013 4012 4010 ] final  167.75 input   60.01 | X-H torsion
[ 8045 8035 8034 8033 ] final  -96.60 input   59.99 | X-H torsion
[ 1224 1222 1220 1217 ] final -142.34 input   59.96 | X-H torsion
[  249  225  226  227 ] final   -5.20 input   51.53 | X-H torsion
[ 14304  292  291  290 ] final  -47.11 input    0.00 | X-H torsion
[ 14309 4328 4327 4326 ] final  154.53 input   -0.00 | X-H torsion
[ 14335  337  336  335 ] final -110.42 input   -0.00 | X-H torsion
[ 14354 1770 1769 1768 ] final -104.58 input   -0.00 | X-H torsion
[ 14365  106  105  104 ] final   55.62 input    0.00 | X-H torsion
[ 14370   67   66   65 ] final   -0.70 input   -0.00 | X-H torsion
[ 14441 3930 3929 3928 ] final   86.22 input   -0.00 | X-H torsion
[ 14473 3975 3974 3973 ] final -142.95 input   -0.00 | X-H torsion
[ 14486 1173 1172 1171 ] final -135.88 input   -0.00 | X-H torsion
[ 14497  865  864  863 ] final   81.72 input   -0.00 | X-H torsion
[ 14524  228  227  226 ] final   45.32 input    0.00 | X-H torsion

> <Gold.Protein.ActiveResidues>
 GLU27   LEU30   GLN31   ASP33   LYS34   GLN35   VAL36   TYR37   ARG38   THR40  
 HIS41   ARG42   GLU209  HIS220  PHE222  GLN236  ASN239  ASP240  VAL241  THR242 
 ARG280  TRP281  LEU282  ARG283  THR284  ILE285  SER286  VAL287  ILE288  GLY355 
 ARG356  HIS357  TYR358  CYS359  TYR360  ASP381  ILE382  ILE383  GLN385  MET386 
 ASN387  LEU388  ARG389  GLU390  TYR391  VAL394  ALA56   LYS57   ILE58   TYR59  
 ALA60   MET61   LEU79   ILE80   ILE81   TRP82   ILE93   SER98   TRP99   VAL100 
 MET101  THR102  CYS103  GLY310  HIS311  ASP312  ASN313  TRP332  ASP333  SER334 
 PHE335  LYS337 

> <Gold.Protein.RotatedAtoms>
  114.2489  152.7373  181.2766 H   0  0  0  0  0  0  0  0  0  0  0  0  # atno 82   bound_to 64  
  108.5038  133.9690   98.2013 H   0  0  0  0  0  0  0  0  0  0  0  0  # atno 113  bound_to 103 
  144.9344  139.2304  140.6592 H   0  0  0  0  0  0  0  0  0  0  0  0  # atno 162  bound_to 159 
  144.7755  138.4397  142.1075 H   0  0  0  0  0  0  0  0  0  0  0  0  # atno 163  bound_to 159 
  143.7215  139.6545  141.7062 H   0  0  0  0  0  0  0  0  0  0  0  0  # atno 164  bound_to 159 
  144.1248  133.3506  149.7832 H   0  0  0  0  0  0  0  0  0  0  0  0  # atno 208  bound_to 204 
  131.2704  113.8489  179.8852 H   0  0  0  0  0  0  0  0  0  0  0  0  # atno 249  bound_to 225 
  153.4487  128.9019  146.6817 H   0  0  0  0  0  0  0  0  0  0  0  0  # atno 294  bound_to 288 
  115.1676  137.4242  109.7349 H   0  0  0  0  0  0  0  0  0  0  0  0  # atno 301  bound_to 289 
  114.5422  158.0319  159.8639 H   0  0  0  0  0  0  0  0  0  0  0  0  # atno 352  bound_to 334 
  130.8865  142.7927  183.9793 H   0  0  0  0  0  0  0  0  0  0  0  0  # atno 880  bound_to 862 
  130.8904  158.1318  180.4306 H   0  0  0  0  0  0  0  0  0  0  0  0  # atno 1184 bound_to 1170
  144.1122  125.7822  147.7568 H   0  0  0  0  0  0  0  0  0  0  0  0  # atno 1224 bound_to 1222
  125.4148  159.7516  168.9170 H   0  0  0  0  0  0  0  0  0  0  0  0  # atno 1783 bound_to 1767
  131.0319  127.7828  151.1124 H   0  0  0  0  0  0  0  0  0  0  0  0  # atno 1807 bound_to 1802
  138.0037  120.7385  149.7349 H   0  0  0  0  0  0  0  0  0  0  0  0  # atno 1839 bound_to 1834
  130.0099  117.4436  143.9610 H   0  0  0  0  0  0  0  0  0  0  0  0  # atno 2741 bound_to 2733
  137.7128  115.1184  144.4490 H   0  0  0  0  0  0  0  0  0  0  0  0  # atno 2774 bound_to 2765
  139.5846  129.5844  135.2629 H   0  0  0  0  0  0  0  0  0  0  0  0  # atno 3268 bound_to 3259
  115.1220  116.2053  168.3477 H   0  0  0  0  0  0  0  0  0  0  0  0  # atno 3932 bound_to 3927
  119.1977  114.4128  167.1814 H   0  0  0  0  0  0  0  0  0  0  0  0  # atno 3980 bound_to 3972
  138.1647  137.2595  165.0319 H   0  0  0  0  0  0  0  0  0  0  0  0  # atno 4018 bound_to 4013
  116.0848  119.8357  182.1922 H   0  0  0  0  0  0  0  0  0  0  0  0  # atno 4333 bound_to 4325
  148.0711  135.1580  156.5698 H   0  0  0  0  0  0  0  0  0  0  0  0  # atno 4684 bound_to 4679
  144.4540  145.0825  166.9185 H   0  0  0  0  0  0  0  0  0  0  0  0  # atno 4755 bound_to 4748
  133.4526  148.0707  148.3034 H   0  0  0  0  0  0  0  0  0  0  0  0  # atno 8045 bound_to 8035
  132.8293  147.1957  149.5654 H   0  0  0  0  0  0  0  0  0  0  0  0  # atno 8046 bound_to 8035
  132.2476  146.9654  148.0300 H   0  0  0  0  0  0  0  0  0  0  0  0  # atno 8047 bound_to 8035
  153.3483  130.4204  147.2576 LP  0  0  0  0  0  0  0  0  0  0  0  0  # atno 14301 bound_to 288 
  152.6991  130.0502  145.8057 LP  0  0  0  0  0  0  0  0  0  0  0  0  # atno 14302 bound_to 288 
  113.6549  136.5956  109.4588 LP  0  0  0  0  0  0  0  0  0  0  0  0  # atno 14303 bound_to 289 
  114.8112  138.1086  113.5179 LP  0  0  0  0  0  0  0  0  0  0  0  0  # atno 14304 bound_to 292 
  113.4332  137.3899  114.2823 LP  0  0  0  0  0  0  0  0  0  0  0  0  # atno 14305 bound_to 292 
  116.6576  120.9941  181.0074 LP  0  0  0  0  0  0  0  0  0  0  0  0  # atno 14308 bound_to 4325
  117.0274  117.0025  183.1336 LP  0  0  0  0  0  0  0  0  0  0  0  0  # atno 14309 bound_to 4328
  118.0487  118.3499  182.7575 LP  0  0  0  0  0  0  0  0  0  0  0  0  # atno 14310 bound_to 4328
  115.8293  159.2155  159.8325 LP  0  0  0  0  0  0  0  0  0  0  0  0  # atno 14334 bound_to 334 
  118.0773  159.4138  157.1523 LP  0  0  0  0  0  0  0  0  0  0  0  0  # atno 14335 bound_to 337 
  117.5412  159.9559  158.7075 LP  0  0  0  0  0  0  0  0  0  0  0  0  # atno 14336 bound_to 337 
  125.1329  159.2865  170.5767 LP  0  0  0  0  0  0  0  0  0  0  0  0  # atno 14353 bound_to 1767
  122.8054  156.1173  169.0283 LP  0  0  0  0  0  0  0  0  0  0  0  0  # atno 14354 bound_to 1770
  121.5221  157.1267  168.4503 LP  0  0  0  0  0  0  0  0  0  0  0  0  # atno 14355 bound_to 1770
  109.2026  134.8229   96.8474 LP  0  0  0  0  0  0  0  0  0  0  0  0  # atno 14364 bound_to 103 
  112.6922  134.0889   99.9621 LP  0  0  0  0  0  0  0  0  0  0  0  0  # atno 14365 bound_to 106 
  111.6057  134.9727  100.9811 LP  0  0  0  0  0  0  0  0  0  0  0  0  # atno 14366 bound_to 106 
  115.0915  151.5532  180.3091 LP  0  0  0  0  0  0  0  0  0  0  0  0  # atno 14369 bound_to 64  
  115.2981  156.0686  179.3471 LP  0  0  0  0  0  0  0  0  0  0  0  0  # atno 14370 bound_to 67  
  114.0145  156.0167  178.1854 LP  0  0  0  0  0  0  0  0  0  0  0  0  # atno 14371 bound_to 67  
  131.9268  128.6961  152.1195 LP  0  0  0  0  0  0  0  0  0  0  0  0  # atno 14376 bound_to 1802
  131.1634  127.3659  152.6802 LP  0  0  0  0  0  0  0  0  0  0  0  0  # atno 14377 bound_to 1802
  143.8266  134.9112  150.1366 LP  0  0  0  0  0  0  0  0  0  0  0  0  # atno 14384 bound_to 204 
  144.8098  134.0275  151.0953 LP  0  0  0  0  0  0  0  0  0  0  0  0  # atno 14385 bound_to 204 
  137.9858  119.2118  149.1722 LP  0  0  0  0  0  0  0  0  0  0  0  0  # atno 14407 bound_to 1834
  138.6456  119.5403  150.6294 LP  0  0  0  0  0  0  0  0  0  0  0  0  # atno 14408 bound_to 1834
  138.7953  130.9997  135.4103 LP  0  0  0  0  0  0  0  0  0  0  0  0  # atno 14411 bound_to 3259
  139.3474  130.5175  133.9511 LP  0  0  0  0  0  0  0  0  0  0  0  0  # atno 14412 bound_to 3259
  148.5408  134.0538  155.4701 LP  0  0  0  0  0  0  0  0  0  0  0  0  # atno 14415 bound_to 4679
  148.8923  135.6328  155.2472 LP  0  0  0  0  0  0  0  0  0  0  0  0  # atno 14416 bound_to 4679
  128.9717  116.5651  144.8544 LP  0  0  0  0  0  0  0  0  0  0  0  0  # atno 14432 bound_to 2733
  129.9043  115.8364  143.7293 LP  0  0  0  0  0  0  0  0  0  0  0  0  # atno 14433 bound_to 2733
  114.3195  117.2936  167.2386 LP  0  0  0  0  0  0  0  0  0  0  0  0  # atno 14440 bound_to 3927
  116.0936  112.9299  165.5171 LP  0  0  0  0  0  0  0  0  0  0  0  0  # atno 14441 bound_to 3930
  116.5175  113.1006  167.1877 LP  0  0  0  0  0  0  0  0  0  0  0  0  # atno 14442 bound_to 3930
  137.5915  116.4618  145.3595 LP  0  0  0  0  0  0  0  0  0  0  0  0  # atno 14465 bound_to 2765
  136.3570  115.3942  145.3057 LP  0  0  0  0  0  0  0  0  0  0  0  0  # atno 14466 bound_to 2765
  118.4433  112.8680  166.8416 LP  0  0  0  0  0  0  0  0  0  0  0  0  # atno 14472 bound_to 3972
  120.6834  110.0522  167.7749 LP  0  0  0  0  0  0  0  0  0  0  0  0  # atno 14473 bound_to 3975
  119.7522  111.1369  166.7970 LP  0  0  0  0  0  0  0  0  0  0  0  0  # atno 14474 bound_to 3975
  144.1812  144.4584  168.3965 LP  0  0  0  0  0  0  0  0  0  0  0  0  # atno 14479 bound_to 4748
  142.9500  144.6227  167.3365 LP  0  0  0  0  0  0  0  0  0  0  0  0  # atno 14480 bound_to 4748
  131.2698  156.5202  179.8608 LP  0  0  0  0  0  0  0  0  0  0  0  0  # atno 14485 bound_to 1170
  127.8026  154.2194  181.9014 LP  0  0  0  0  0  0  0  0  0  0  0  0  # atno 14486 bound_to 1173
  127.5135  155.8821  182.2912 LP  0  0  0  0  0  0  0  0  0  0  0  0  # atno 14487 bound_to 1173
  130.2037  143.0861  185.5655 LP  0  0  0  0  0  0  0  0  0  0  0  0  # atno 14496 bound_to 862 
  130.0374  140.9747  182.4353 LP  0  0  0  0  0  0  0  0  0  0  0  0  # atno 14497 bound_to 865 
  128.9089  141.6639  181.3167 LP  0  0  0  0  0  0  0  0  0  0  0  0  # atno 14498 bound_to 865 
  138.1024  136.0483  163.9470 LP  0  0  0  0  0  0  0  0  0  0  0  0  # atno 14501 bound_to 4013
  136.9568  137.2120  163.9426 LP  0  0  0  0  0  0  0  0  0  0  0  0  # atno 14502 bound_to 4013
  144.6233  126.2626  149.2255 LP  0  0  0  0  0  0  0  0  0  0  0  0  # atno 14519 bound_to 1222
  143.1144  126.6319  148.7220 LP  0  0  0  0  0  0  0  0  0  0  0  0  # atno 14520 bound_to 1222
  129.6124  113.3388  180.1101 LP  0  0  0  0  0  0  0  0  0  0  0  0  # atno 14523 bound_to 225 
  133.0582  113.5000  180.1884 LP  0  0  0  0  0  0  0  0  0  0  0  0  # atno 14524 bound_to 228 
  134.0536  112.2904  180.9273 LP  0  0  0  0  0  0  0  0  0  0  0  0  # atno 14525 bound_to 228 

> <Gold.Score>
     Fitness  S(hb_ext) S(vdw_ext)  S(hb_int)    S(int)      intcor
     30.80       6.48      20.05       0.00      -3.24      -0.76

> <Gold.Goldscore.Fitness>
30.8020

> <Gold.Goldscore.Internal.Vdw>
-3.1930

> <Gold.Goldscore.Internal.Torsion>
-0.8014

> <Gold.Goldscore.External.Vdw>
20.0453

> <Gold.Goldscore.Internal.HBond>
0.0000

> <Gold.Goldscore.External.HBond>
6.4754

> <Gold.Goldscore.Internal.Correction>
-0.7585

> <Gold.Goldscore.Hbonds>
donor molecule, donor type, donor heavy atom, donor atom, acceptor molecule, acceptor atom, score
      P1  H   332   340       L1    11  1.00
      P1  H   204   208       L1    11  0.24

> <Gold.Goldscore.Internal.Vdw.Weighted>
-3.1930

> <Gold.Goldscore.Internal.Torsion.Weighted>
-0.8014

> <Gold.Goldscore.External.Vdw.Weighted>
27.5623

> <Gold.Goldscore.Internal.HBond.Weighted>
0.0000

> <Gold.Goldscore.External.HBond.Weighted>
6.4754

> <Gold.Goldscore.Internal.Correction.Weighted>
-0.7585

> <Gold.Rescore>
     Score     S(PLP)   S(hbond)     S(cho)   S(metal)  DE(clash)   DE(tors)     intcor
     30.14     -25.61       2.17       0.00       0.00       1.26       0.36       ----

> <Gold.PLP.Fitness>
30.1411

> <Gold.PLP.PLP>
-25.6097

> <Gold.PLP.part.hbond>
-2.9600

> <Gold.PLP.part.metal>
0.0000

> <Gold.PLP.part.buried>
-4.1461

> <Gold.PLP.part.nonpolar>
-18.8927

> <Gold.PLP.part.repulsive>
0.2338

> <Gold.PLP.ligand.clash>
1.2577

> <Gold.PLP.ligand.torsion>
0.3612

> <Gold.PLP.Chemscore.Hbond>
2.1706

> <Gold.PLP.Chemscore.CHOScore>
0.0000

> <Gold.PLP.Chemscore.Metal>
0.0000

> <Gold.Chemscore.Hbonds>
donor molecule, donor type, donor heavy atom, donor atom, acceptor molecule, acceptor atom, score
      P1  H   332   340       L1    11  1.00
      P1  H   204   208       L1    11  1.00

> <Gold.PLP.Chemscore.Internal.Correction>
   9.000000E+99

