#       Name:                CT1002167954
#       Creating user name   hitesit
#       Creation time:       Sun Apr 16 22:50:32 2023


#       File generated by GOLD software.
#

@<TRIPOS>MOLECULE
CT1002167954|ligand_prepared|mol2|1|dock8
    29    30     1
SMALL
NO_CHARGES


@<TRIPOS>ATOM
      1 C1         127.1612 143.3581  98.9044 C.3            1 RES1               0.0000
      2 C2         127.5408 144.1173 100.1921 C.ar           1 RES1               0.0000
      3 C3         125.6567 143.1146  98.9784 C.2            1 RES1               0.0000
      4 C4         127.5912 144.2469  97.7426 C.2            1 RES1               0.0000
      5 C5         127.8726 141.9936  98.7508 C.3            1 RES1               0.0000
      6 C6         126.6645 145.0404 100.7549 C.ar           1 RES1               0.0000
      7 C7         128.7604 143.9038 100.8289 C.ar           1 RES1               0.0000
      8 N8         124.8546 143.8660  98.1709 N.am           1 RES1               0.0000
      9 O9         125.1784 142.3035  99.7617 O.2            1 RES1               0.0000
     10 N10        126.6131 144.7672  96.9360 N.am           1 RES1               0.0000
     11 O11        128.7670 144.5148  97.5283 O.2            1 RES1               0.0000
     12 C12        127.3310 141.1445  97.6115 C.3            1 RES1               0.0000
     13 C13        126.9941 145.7231 101.9140 C.ar           1 RES1               0.0000
     14 C14        129.0882 144.5878 101.9879 C.ar           1 RES1               0.0000
     15 C15        125.2625 144.6420  97.1159 C.2            1 RES1               0.0000
     16 C16        128.2058 145.4970 102.5315 C.ar           1 RES1               0.0000
     17 O17        124.4444 145.1850  96.3790 O.2            1 RES1               0.0000
     18 H18        128.9421 142.1700  98.5822 H              1 RES1               0.0000
     19 H19        127.7689 141.4338  99.6885 H              1 RES1               0.0000
     20 H20        125.7074 145.2332 100.2818 H              1 RES1               0.0000
     21 H21        129.4706 143.1940 100.4186 H              1 RES1               0.0000
     22 H22        123.8594 143.8494  98.3700 H              1 RES1               0.0000
     23 H23        126.9204 145.2969  96.1265 H              1 RES1               0.0000
     24 H24        127.8647 140.1986  97.5480 H              1 RES1               0.0000
     25 H25        126.2750 140.9285  97.7597 H              1 RES1               0.0000
     26 H26        127.4412 141.6604  96.6599 H              1 RES1               0.0000
     27 H27        126.2968 146.4386 102.3371 H              1 RES1               0.0000
     28 H28        130.0432 144.4072 102.4701 H              1 RES1               0.0000
     29 H29        128.4637 146.0317 103.4397 H              1 RES1               0.0000
@<TRIPOS>BOND
    1    1    2 1     
    2    1    3 1     
    3    1    4 1     
    4    1    5 1     
    5    2    6 ar    
    6    2    7 ar    
    7    3    8 1     
    8    3    9 2     
    9    4   10 1     
   10    4   11 2     
   11    5   12 1     
   12    5   18 1     
   13    5   19 1     
   14    6   13 ar    
   15    6   20 1     
   16    7   14 ar    
   17    7   21 1     
   18    8   15 1     
   19    8   22 1     
   20   10   15 1     
   21   10   23 1     
   22   12   24 1     
   23   12   25 1     
   24   12   26 1     
   25   13   16 ar    
   26   13   27 1     
   27   14   16 ar    
   28   14   28 1     
   29   15   17 2     
   30   16   29 1     
@<TRIPOS>SUBSTRUCTURE
      1 RES1           1
@<TRIPOS>SET
DONOR_HYDROGENS      STATIC     ATOMS    <user>   **** ""
2 22 23
ATOM$RED        STATIC     ATOMS    COLORGROUP SYSTEM
2 22 23
@<TRIPOS>COMMENT
> <Gold.Version>
2022.3.0

> <Gold.Id.Protein>
unknown|7rmh_clean|pdb

> <Gold.Protein.RotatedTorsions>
[ 6069 6060 6061 6062 ] final   -6.08 input   58.43 | X-H torsion
[ 6095 6088 6089 6090 ] final  107.00 input   80.40 | X-H torsion
[ 12696 12688 12689 12690 ] final   53.18 input   27.23 | X-H torsion
[ 12955 12944 12943 12942 ] final   16.93 input   60.02 | X-H torsion
[  140  121  122  123 ] final  -68.55 input   59.99 | X-H torsion
[ 10534 10525 10526 10527 ] final   57.91 input   86.97 | X-H torsion
[ 12729 12724 12723 12720 ] final -178.38 input   60.00 | X-H torsion
[ 7603 7585 7586 7587 ] final  104.70 input   21.72 | X-H torsion
[ 14135 14126 14127 14128 ] final -176.48 input  100.92 | X-H torsion
[ 11478 11469 11468 11466 ] final   91.09 input   60.02 | X-H torsion
[ 14106 14097 14096 14094 ] final   82.66 input   60.00 | X-H torsion
[ 14257 14248 14247 14245 ] final  170.50 input   60.01 | X-H torsion
[ 12659 12654 12653 12650 ] final  -97.11 input   60.00 | X-H torsion
[ 11470 11458 11459 11460 ] final -165.49 input   94.06 | X-H torsion
[ 4828 4821 4822 4823 ] final -174.93 input   91.76 | X-H torsion
[ 4831 4826 4825 4822 ] final -151.11 input   59.99 | X-H torsion
[ 13071 13062 13061 13059 ] final  161.11 input   60.03 | X-H torsion
[ 6490 6474 6475 6476 ] final  109.01 input  103.68 | X-H torsion
[ 13126 13119 13120 13121 ] final -112.54 input  114.72 | X-H torsion
[ 13129 13124 13123 13120 ] final  173.93 input   59.98 | X-H torsion
[ 14703 6063 6062 6061 ] final   89.64 input    0.00 | X-H torsion
[ 14710 6091 6090 6089 ] final  -96.32 input   -0.00 | X-H torsion
[ 14727  124  123  122 ] final   86.19 input   -0.00 | X-H torsion
[ 14734 7588 7587 7586 ] final -113.45 input    0.00 | X-H torsion
[ 14820 6477 6476 6475 ] final  -84.51 input   -0.00 | X-H torsion

> <Gold.Protein.ActiveResidues>
 ASN23   THR86   GLU172  THR173  VAL200  LYS280  GLN24   PHE25   GLN27   MET81  
 PHE84   ASN85   VAL88   ASN89   TYR92   ALA93   VAL94   HIS95   ASN96   GLU97  
 TRP98   TYR100  CYS105  HIS108  ASN109  PRO112  ILE113  VAL116  PHE117  LEU161 
 ALA162  GLN165  SER169  THR170  MET174  PRO175  SER176  ARG177  VAL178  VAL179 
 CYS180  MET181  ILE182  GLU183  TRP184  LYS190  TYR196  HIS197  THR201  ILE204 
 TRP261  PHE264  HIS265  PHE267  PHE268  LEU269  PRO271  PRO275  LEU277  TYR278 
 LEU279  LYS281  PHE282  ILE283  GLN284  GLN285  VAL286  TYR287  LEU288  ILE290 
 MET291  ALA294  MET295 

> <Gold.Protein.RotatedAtoms>
  120.0546  148.8171   87.0202 H   0  0  0  0  0  0  0  0  0  0  0  0  # atno 140  bound_to 121 
  118.7072  149.6268   87.5447 H   0  0  0  0  0  0  0  0  0  0  0  0  # atno 141  bound_to 121 
  127.8524  145.6517  112.9976 H   0  0  0  0  0  0  0  0  0  0  0  0  # atno 4828 bound_to 4821
  125.8791  142.8112  114.1492 H   0  0  0  0  0  0  0  0  0  0  0  0  # atno 4831 bound_to 4826
  131.3583  156.8684   96.0919 H   0  0  0  0  0  0  0  0  0  0  0  0  # atno 6069 bound_to 6060
  130.8765  158.9310   92.7036 H   0  0  0  0  0  0  0  0  0  0  0  0  # atno 6095 bound_to 6088
  145.2100  139.2764  105.6794 H   0  0  0  0  0  0  0  0  0  0  0  0  # atno 6490 bound_to 6474
  125.6129  138.7814   90.7766 H   0  0  0  0  0  0  0  0  0  0  0  0  # atno 7603 bound_to 7585
  120.9516  147.0627   90.0287 H   0  0  0  0  0  0  0  0  0  0  0  0  # atno 10534 bound_to 10525
  123.3082  150.3534  105.1887 H   0  0  0  0  0  0  0  0  0  0  0  0  # atno 11470 bound_to 11458
  129.2801  150.6177   98.8701 H   0  0  0  0  0  0  0  0  0  0  0  0  # atno 11478 bound_to 11469
  136.1461  155.2323  102.8520 H   0  0  0  0  0  0  0  0  0  0  0  0  # atno 12659 bound_to 12654
  126.9657  157.0059   91.4387 H   0  0  0  0  0  0  0  0  0  0  0  0  # atno 12696 bound_to 12688
  119.5161  153.7722   89.4312 H   0  0  0  0  0  0  0  0  0  0  0  0  # atno 12729 bound_to 12724
  140.4775  141.7210   91.6415 H   0  0  0  0  0  0  0  0  0  0  0  0  # atno 12955 bound_to 12944
  139.8449  143.2521   91.6060 H   0  0  0  0  0  0  0  0  0  0  0  0  # atno 12956 bound_to 12944
  139.9266  142.3570   90.2134 H   0  0  0  0  0  0  0  0  0  0  0  0  # atno 12957 bound_to 12944
  141.9255  145.4811  106.1821 H   0  0  0  0  0  0  0  0  0  0  0  0  # atno 13071 bound_to 13062
  142.9007  137.8484  107.2803 H   0  0  0  0  0  0  0  0  0  0  0  0  # atno 13126 bound_to 13119
  141.5218  135.3502  104.1231 H   0  0  0  0  0  0  0  0  0  0  0  0  # atno 13129 bound_to 13124
  133.6958  138.3430   97.4600 H   0  0  0  0  0  0  0  0  0  0  0  0  # atno 14106 bound_to 14097
  121.5693  139.6604   91.7883 H   0  0  0  0  0  0  0  0  0  0  0  0  # atno 14135 bound_to 14126
  127.9871  144.4131  104.6135 H   0  0  0  0  0  0  0  0  0  0  0  0  # atno 14257 bound_to 14248
  133.0939  156.7349   95.9039 LP  0  0  0  0  0  0  0  0  0  0  0  0  # atno 14702 bound_to 6060
  129.2783  156.8911   95.1187 LP  0  0  0  0  0  0  0  0  0  0  0  0  # atno 14703 bound_to 6063
  129.5161  155.6552   93.9287 LP  0  0  0  0  0  0  0  0  0  0  0  0  # atno 14704 bound_to 6063
  130.5605  157.2696   93.1589 LP  0  0  0  0  0  0  0  0  0  0  0  0  # atno 14709 bound_to 6088
  129.9633  157.8569   89.4119 LP  0  0  0  0  0  0  0  0  0  0  0  0  # atno 14710 bound_to 6091
  130.3277  156.4634   90.3738 LP  0  0  0  0  0  0  0  0  0  0  0  0  # atno 14711 bound_to 6091
  120.1307  150.4275   87.3468 LP  0  0  0  0  0  0  0  0  0  0  0  0  # atno 14720 bound_to 121 
  117.4410  147.9862   89.0716 LP  0  0  0  0  0  0  0  0  0  0  0  0  # atno 14727 bound_to 124 
  117.8055  148.3761   90.7194 LP  0  0  0  0  0  0  0  0  0  0  0  0  # atno 14728 bound_to 124 
  120.7023  153.7121   90.5435 LP  0  0  0  0  0  0  0  0  0  0  0  0  # atno 14729 bound_to 12724
  121.0204  154.2492   89.0345 LP  0  0  0  0  0  0  0  0  0  0  0  0  # atno 14730 bound_to 12724
  124.9604  140.3986   90.6359 LP  0  0  0  0  0  0  0  0  0  0  0  0  # atno 14733 bound_to 7585
  123.8918  139.0418   93.9618 LP  0  0  0  0  0  0  0  0  0  0  0  0  # atno 14734 bound_to 7588
  124.0754  140.5183   93.0752 LP  0  0  0  0  0  0  0  0  0  0  0  0  # atno 14735 bound_to 7588
  127.9212  150.3747   98.0086 LP  0  0  0  0  0  0  0  0  0  0  0  0  # atno 14738 bound_to 11469
  128.8331  149.1034   98.4765 LP  0  0  0  0  0  0  0  0  0  0  0  0  # atno 14739 bound_to 11469
  132.2078  138.3670   98.1192 LP  0  0  0  0  0  0  0  0  0  0  0  0  # atno 14744 bound_to 14097
  133.0958  139.7358   98.0513 LP  0  0  0  0  0  0  0  0  0  0  0  0  # atno 14745 bound_to 14097
  129.4920  144.0263  104.1300 LP  0  0  0  0  0  0  0  0  0  0  0  0  # atno 14762 bound_to 14248
  128.8514  143.3223  105.4569 LP  0  0  0  0  0  0  0  0  0  0  0  0  # atno 14763 bound_to 14248
  135.5301  153.7384  103.0433 LP  0  0  0  0  0  0  0  0  0  0  0  0  # atno 14798 bound_to 12654
  135.8999  154.2873  101.5504 LP  0  0  0  0  0  0  0  0  0  0  0  0  # atno 14799 bound_to 12654
  127.0013  147.1233  112.6125 LP  0  0  0  0  0  0  0  0  0  0  0  0  # atno 14808 bound_to 4821
  126.8315  144.0806  114.5099 LP  0  0  0  0  0  0  0  0  0  0  0  0  # atno 14809 bound_to 4826
  126.9255  143.3778  113.0389 LP  0  0  0  0  0  0  0  0  0  0  0  0  # atno 14810 bound_to 4826
  143.2624  145.8602  107.0288 LP  0  0  0  0  0  0  0  0  0  0  0  0  # atno 14815 bound_to 13062
  142.5804  144.3854  107.1912 LP  0  0  0  0  0  0  0  0  0  0  0  0  # atno 14816 bound_to 13062
  143.6121  137.2311  109.7424 LP  0  0  0  0  0  0  0  0  0  0  0  0  # atno 14820 bound_to 6477
  142.1087  137.9562  109.2799 LP  0  0  0  0  0  0  0  0  0  0  0  0  # atno 14821 bound_to 6477
  146.0851  138.2751  106.8017 LP  0  0  0  0  0  0  0  0  0  0  0  0  # atno 14822 bound_to 6474
  141.9872  136.6900  104.9209 LP  0  0  0  0  0  0  0  0  0  0  0  0  # atno 14827 bound_to 13124
  140.6910  135.8396  105.4339 LP  0  0  0  0  0  0  0  0  0  0  0  0  # atno 14828 bound_to 13124

> <Gold.Score>
     Fitness  S(hb_ext) S(vdw_ext)  S(hb_int)    S(int)      intcor
     40.37       0.04      29.62       0.00      -0.41      -0.76

> <Gold.Goldscore.Fitness>
40.3651

> <Gold.Goldscore.Internal.Vdw>
-0.6455

> <Gold.Goldscore.Internal.Torsion>
-0.5181

> <Gold.Goldscore.External.Vdw>
29.6221

> <Gold.Goldscore.Internal.HBond>
0.0000

> <Gold.Goldscore.External.HBond>
0.0397

> <Gold.Goldscore.Internal.Correction>
-0.7585

> <Gold.Goldscore.Hbonds>
donor molecule, donor type, donor heavy atom, donor atom, acceptor molecule, acceptor atom, score
      L1  H     8    22       P1 14194  0.02

> <Gold.Goldscore.Internal.Vdw.Weighted>
-0.6455

> <Gold.Goldscore.Internal.Torsion.Weighted>
-0.5181

> <Gold.Goldscore.External.Vdw.Weighted>
40.7304

> <Gold.Goldscore.Internal.HBond.Weighted>
0.0000

> <Gold.Goldscore.External.HBond.Weighted>
0.0397

> <Gold.Goldscore.Internal.Correction.Weighted>
-0.7585

> <Gold.Rescore>
     Score     S(PLP)   S(hbond)     S(cho)   S(metal)  DE(clash)   DE(tors)     intcor
     21.77     -21.12       0.92       0.00       0.00       0.00       1.06       ----

> <Gold.PLP.Fitness>
21.7690

> <Gold.PLP.PLP>
-21.1185

> <Gold.PLP.part.hbond>
-1.0000

> <Gold.PLP.part.metal>
0.0000

> <Gold.PLP.part.buried>
-1.2415

> <Gold.PLP.part.nonpolar>
-19.6393

> <Gold.PLP.part.repulsive>
0.2632

> <Gold.PLP.ligand.clash>
0.0000

> <Gold.PLP.ligand.torsion>
1.0553

> <Gold.PLP.Chemscore.Hbond>
0.9204

> <Gold.PLP.Chemscore.CHOScore>
0.0000

> <Gold.PLP.Chemscore.Metal>
0.0000

> <Gold.PLP.Chemscore.Internal.Correction>
   9.000000E+99

#       Name:                CT1002167954
#       Creating user name   hitesit
#       Creation time:       Sun Apr 16 22:50:33 2023


#       File generated by GOLD software.
#

@<TRIPOS>MOLECULE
CT1002167954|ligand_prepared|mol2|1|dock9
    29    30     1
SMALL
NO_CHARGES


@<TRIPOS>ATOM
      1 C1         127.7444 142.7246  97.6401 C.3            1 RES1               0.0000
      2 C2         126.3592 143.3565  97.8865 C.ar           1 RES1               0.0000
      3 C3         128.7677 143.8333  97.8680 C.2            1 RES1               0.0000
      4 C4         127.8616 141.5595  98.6165 C.2            1 RES1               0.0000
      5 C5         127.9322 142.1695  96.2090 C.3            1 RES1               0.0000
      6 C6         125.7721 143.3073  99.1473 C.ar           1 RES1               0.0000
      7 C7         125.6587 143.9931  96.8655 C.ar           1 RES1               0.0000
      8 N8         129.5077 143.7846  99.0125 N.am           1 RES1               0.0000
      9 O9         128.8956 144.7578  97.0747 O.2            1 RES1               0.0000
     10 N10        128.8078 141.6423  99.6043 N.am           1 RES1               0.0000
     11 O11        127.1321 140.5779  98.5494 O.2            1 RES1               0.0000
     12 C12        129.1218 141.2332  96.0658 C.3            1 RES1               0.0000
     13 C13        124.5310 143.8766  99.3798 C.ar           1 RES1               0.0000
     14 C14        124.4176 144.5615  97.1000 C.ar           1 RES1               0.0000
     15 C15        129.6153 142.7156  99.8653 C.2            1 RES1               0.0000
     16 C16        123.8532 144.5044  98.3566 C.ar           1 RES1               0.0000
     17 O17        130.4037 142.7362 100.8061 O.2            1 RES1               0.0000
     18 H18        127.0221 141.6313  95.9167 H              1 RES1               0.0000
     19 H19        128.0605 143.0115  95.5176 H              1 RES1               0.0000
     20 H20        126.2895 142.8154  99.9643 H              1 RES1               0.0000
     21 H21        126.0828 144.0492  95.8687 H              1 RES1               0.0000
     22 H22        130.0292 144.6204  99.2571 H              1 RES1               0.0000
     23 H23        128.9206 140.8283 100.2002 H              1 RES1               0.0000
     24 H24        129.2079 140.8726  95.0429 H              1 RES1               0.0000
     25 H25        130.0474 141.7432  96.3243 H              1 RES1               0.0000
     26 H26        129.0153 140.3712  96.7211 H              1 RES1               0.0000
     27 H27        124.0906 143.8277 100.3702 H              1 RES1               0.0000
     28 H28        123.8874 145.0541  96.2916 H              1 RES1               0.0000
     29 H29        122.8812 144.9505  98.5390 H              1 RES1               0.0000
@<TRIPOS>BOND
    1    1    2 1     
    2    1    3 1     
    3    1    4 1     
    4    1    5 1     
    5    2    6 ar    
    6    2    7 ar    
    7    3    8 1     
    8    3    9 2     
    9    4   10 1     
   10    4   11 2     
   11    5   12 1     
   12    5   18 1     
   13    5   19 1     
   14    6   13 ar    
   15    6   20 1     
   16    7   14 ar    
   17    7   21 1     
   18    8   15 1     
   19    8   22 1     
   20   10   15 1     
   21   10   23 1     
   22   12   24 1     
   23   12   25 1     
   24   12   26 1     
   25   13   16 ar    
   26   13   27 1     
   27   14   16 ar    
   28   14   28 1     
   29   15   17 2     
   30   16   29 1     
@<TRIPOS>SUBSTRUCTURE
      1 RES1           1
@<TRIPOS>SET
DONOR_HYDROGENS      STATIC     ATOMS    <user>   **** ""
2 22 23
ATOM$RED        STATIC     ATOMS    COLORGROUP SYSTEM
2 22 23
@<TRIPOS>COMMENT
> <Gold.Version>
2022.3.0

> <Gold.Id.Protein>
unknown|7rmh_clean|pdb

> <Gold.Protein.RotatedTorsions>
[ 6069 6060 6061 6062 ] final  -35.49 input   58.43 | X-H torsion
[ 6095 6088 6089 6090 ] final  174.83 input   80.40 | X-H torsion
[ 12696 12688 12689 12690 ] final  155.70 input   27.23 | X-H torsion
[ 12955 12944 12943 12942 ] final   45.97 input   60.02 | X-H torsion
[  140  121  122  123 ] final -130.97 input   59.99 | X-H torsion
[ 10534 10525 10526 10527 ] final   74.84 input   86.97 | X-H torsion
[ 12729 12724 12723 12720 ] final  -93.68 input   60.00 | X-H torsion
[ 7603 7585 7586 7587 ] final   10.61 input   21.72 | X-H torsion
[ 14135 14126 14127 14128 ] final  118.48 input  100.92 | X-H torsion
[ 11478 11469 11468 11466 ] final  155.49 input   60.02 | X-H torsion
[ 14106 14097 14096 14094 ] final -115.93 input   60.00 | X-H torsion
[ 14257 14248 14247 14245 ] final   84.86 input   60.01 | X-H torsion
[ 12659 12654 12653 12650 ] final -133.55 input   60.00 | X-H torsion
[ 11470 11458 11459 11460 ] final  143.75 input   94.06 | X-H torsion
[ 4828 4821 4822 4823 ] final  143.29 input   91.76 | X-H torsion
[ 4831 4826 4825 4822 ] final  178.08 input   59.99 | X-H torsion
[ 13071 13062 13061 13059 ] final  -10.28 input   60.03 | X-H torsion
[ 6490 6474 6475 6476 ] final   81.85 input  103.68 | X-H torsion
[ 13126 13119 13120 13121 ] final   14.34 input  114.72 | X-H torsion
[ 13129 13124 13123 13120 ] final   61.80 input   59.98 | X-H torsion
[ 14703 6063 6062 6061 ] final   -4.15 input    0.00 | X-H torsion
[ 14710 6091 6090 6089 ] final   -8.87 input   -0.00 | X-H torsion
[ 14727  124  123  122 ] final    7.21 input   -0.00 | X-H torsion
[ 14734 7588 7587 7586 ] final -117.15 input    0.00 | X-H torsion
[ 14820 6477 6476 6475 ] final  -47.21 input   -0.00 | X-H torsion

> <Gold.Protein.ActiveResidues>
 ASN23   THR86   GLU172  THR173  VAL200  LYS280  GLN24   PHE25   GLN27   MET81  
 PHE84   ASN85   VAL88   ASN89   TYR92   ALA93   VAL94   HIS95   ASN96   GLU97  
 TRP98   TYR100  CYS105  HIS108  ASN109  PRO112  ILE113  VAL116  PHE117  LEU161 
 ALA162  GLN165  SER169  THR170  MET174  PRO175  SER176  ARG177  VAL178  VAL179 
 CYS180  MET181  ILE182  GLU183  TRP184  LYS190  TYR196  HIS197  THR201  ILE204 
 TRP261  PHE264  HIS265  PHE267  PHE268  LEU269  PRO271  PRO275  LEU277  TYR278 
 LEU279  LYS281  PHE282  ILE283  GLN284  GLN285  VAL286  TYR287  LEU288  ILE290 
 MET291  ALA294  MET295 

> <Gold.Protein.RotatedAtoms>
  120.5596  149.6687   87.0685 H   0  0  0  0  0  0  0  0  0  0  0  0  # atno 140  bound_to 121 
  119.1621  148.7966   87.2493 H   0  0  0  0  0  0  0  0  0  0  0  0  # atno 141  bound_to 121 
  127.5159  145.8480  113.4848 H   0  0  0  0  0  0  0  0  0  0  0  0  # atno 4828 bound_to 4821
  125.9451  143.1040  114.5460 H   0  0  0  0  0  0  0  0  0  0  0  0  # atno 4831 bound_to 4826
  131.5140  157.2864   96.1646 H   0  0  0  0  0  0  0  0  0  0  0  0  # atno 6069 bound_to 6060
  130.4981  158.6586   93.5826 H   0  0  0  0  0  0  0  0  0  0  0  0  # atno 6095 bound_to 6088
  145.0483  138.9057  105.6234 H   0  0  0  0  0  0  0  0  0  0  0  0  # atno 6490 bound_to 6474
  125.2954  139.7528   91.5807 H   0  0  0  0  0  0  0  0  0  0  0  0  # atno 7603 bound_to 7585
  121.0066  146.9684   89.7932 H   0  0  0  0  0  0  0  0  0  0  0  0  # atno 10534 bound_to 10525
  123.8308  149.8667  105.4485 H   0  0  0  0  0  0  0  0  0  0  0  0  # atno 11470 bound_to 11458
  129.4100  149.6285   98.8758 H   0  0  0  0  0  0  0  0  0  0  0  0  # atno 11478 bound_to 11469
  135.9644  154.8866  103.2883 H   0  0  0  0  0  0  0  0  0  0  0  0  # atno 12659 bound_to 12654
  128.3194  156.7241   91.1462 H   0  0  0  0  0  0  0  0  0  0  0  0  # atno 12696 bound_to 12688
  120.5095  154.2056   88.7862 H   0  0  0  0  0  0  0  0  0  0  0  0  # atno 12729 bound_to 12724
  140.4050  142.0628   91.9704 H   0  0  0  0  0  0  0  0  0  0  0  0  # atno 12955 bound_to 12944
  139.7205  143.3288   91.1490 H   0  0  0  0  0  0  0  0  0  0  0  0  # atno 12956 bound_to 12944
  140.1234  141.9384   90.3416 H   0  0  0  0  0  0  0  0  0  0  0  0  # atno 12957 bound_to 12944
  143.3031  145.1324  107.3930 H   0  0  0  0  0  0  0  0  0  0  0  0  # atno 13071 bound_to 13062
  144.3039  137.1328  107.1824 H   0  0  0  0  0  0  0  0  0  0  0  0  # atno 13126 bound_to 13119
  142.0437  136.6383  104.8169 H   0  0  0  0  0  0  0  0  0  0  0  0  # atno 13129 bound_to 13124
  132.5041  139.5118   98.2549 H   0  0  0  0  0  0  0  0  0  0  0  0  # atno 14106 bound_to 14097
  121.0570  138.8716   91.6522 H   0  0  0  0  0  0  0  0  0  0  0  0  # atno 14135 bound_to 14126
  129.0807  144.3603  103.9645 H   0  0  0  0  0  0  0  0  0  0  0  0  # atno 14257 bound_to 14248
  132.9434  156.3311   95.8336 LP  0  0  0  0  0  0  0  0  0  0  0  0  # atno 14702 bound_to 6060
  130.0326  155.8873   94.9680 LP  0  0  0  0  0  0  0  0  0  0  0  0  # atno 14703 bound_to 6063
  128.7618  156.6589   94.0794 LP  0  0  0  0  0  0  0  0  0  0  0  0  # atno 14704 bound_to 6063
  130.9253  157.5322   92.3114 LP  0  0  0  0  0  0  0  0  0  0  0  0  # atno 14709 bound_to 6088
  130.6344  157.6768   90.3868 LP  0  0  0  0  0  0  0  0  0  0  0  0  # atno 14710 bound_to 6091
  129.6566  156.6435   89.3989 LP  0  0  0  0  0  0  0  0  0  0  0  0  # atno 14711 bound_to 6091
  119.1847  150.4060   87.5902 LP  0  0  0  0  0  0  0  0  0  0  0  0  # atno 14720 bound_to 121 
  117.6019  148.9703   89.5395 LP  0  0  0  0  0  0  0  0  0  0  0  0  # atno 14727 bound_to 124 
  117.6446  147.3920   90.2516 LP  0  0  0  0  0  0  0  0  0  0  0  0  # atno 14728 bound_to 124 
  119.5695  153.6162   89.9765 LP  0  0  0  0  0  0  0  0  0  0  0  0  # atno 14729 bound_to 12724
  121.1525  153.9085   90.2512 LP  0  0  0  0  0  0  0  0  0  0  0  0  # atno 14730 bound_to 12724
  125.2681  139.4571   89.8565 LP  0  0  0  0  0  0  0  0  0  0  0  0  # atno 14733 bound_to 7585
  123.8476  139.0647   93.9874 LP  0  0  0  0  0  0  0  0  0  0  0  0  # atno 14734 bound_to 7588
  124.1196  140.4954   93.0497 LP  0  0  0  0  0  0  0  0  0  0  0  0  # atno 14735 bound_to 7588
  128.5877  150.9715   98.4658 LP  0  0  0  0  0  0  0  0  0  0  0  0  # atno 14738 bound_to 11469
  128.0357  149.5027   98.0136 LP  0  0  0  0  0  0  0  0  0  0  0  0  # atno 14739 bound_to 11469
  133.8655  138.9809   97.5379 LP  0  0  0  0  0  0  0  0  0  0  0  0  # atno 14744 bound_to 14097
  132.6375  137.9455   97.8325 LP  0  0  0  0  0  0  0  0  0  0  0  0  # atno 14745 bound_to 14097
  129.3300  143.2992  105.1728 LP  0  0  0  0  0  0  0  0  0  0  0  0  # atno 14762 bound_to 14248
  127.9122  144.1025  105.0675 LP  0  0  0  0  0  0  0  0  0  0  0  0  # atno 14763 bound_to 14248
  135.5101  153.5455  102.4864 LP  0  0  0  0  0  0  0  0  0  0  0  0  # atno 14798 bound_to 12654
  136.1028  154.8283  101.6680 LP  0  0  0  0  0  0  0  0  0  0  0  0  # atno 14799 bound_to 12654
  127.3353  146.9285  112.1291 LP  0  0  0  0  0  0  0  0  0  0  0  0  # atno 14808 bound_to 4821
  127.1012  144.1569  114.0948 LP  0  0  0  0  0  0  0  0  0  0  0  0  # atno 14809 bound_to 4826
  126.5893  143.0069  113.0546 LP  0  0  0  0  0  0  0  0  0  0  0  0  # atno 14810 bound_to 4826
  141.9771  144.5381  106.6609 LP  0  0  0  0  0  0  0  0  0  0  0  0  # atno 14815 bound_to 13062
  142.4783  146.0587  106.3396 LP  0  0  0  0  0  0  0  0  0  0  0  0  # atno 14816 bound_to 13062
  143.6360  137.7736  109.8518 LP  0  0  0  0  0  0  0  0  0  0  0  0  # atno 14820 bound_to 6477
  142.0847  137.4137  109.1705 LP  0  0  0  0  0  0  0  0  0  0  0  0  # atno 14821 bound_to 6477
  146.2470  138.6463  106.8577 LP  0  0  0  0  0  0  0  0  0  0  0  0  # atno 14822 bound_to 6474
  140.7343  135.9467  105.4916 LP  0  0  0  0  0  0  0  0  0  0  0  0  # atno 14827 bound_to 13124
  141.4181  135.2853  104.1643 LP  0  0  0  0  0  0  0  0  0  0  0  0  # atno 14828 bound_to 13124

> <Gold.Score>
     Fitness  S(hb_ext) S(vdw_ext)  S(hb_int)    S(int)      intcor
     38.95       0.00      28.86       0.00      -0.73      -0.76

> <Gold.Goldscore.Fitness>
38.9529

> <Gold.Goldscore.Internal.Vdw>
-0.7589

> <Gold.Goldscore.Internal.Torsion>
-0.7257

> <Gold.Goldscore.External.Vdw>
28.8575

> <Gold.Goldscore.Internal.HBond>
0.0000

> <Gold.Goldscore.External.HBond>
0.0000

> <Gold.Goldscore.Internal.Correction>
-0.7585

> <Gold.Goldscore.Internal.Vdw.Weighted>
-0.7589

> <Gold.Goldscore.Internal.Torsion.Weighted>
-0.7257

> <Gold.Goldscore.External.Vdw.Weighted>
39.6791

> <Gold.Goldscore.Internal.HBond.Weighted>
0.0000

> <Gold.Goldscore.External.HBond.Weighted>
0.0000

> <Gold.Goldscore.Internal.Correction.Weighted>
-0.7585

> <Gold.Rescore>
     Score     S(PLP)   S(hbond)     S(cho)   S(metal)  DE(clash)   DE(tors)     intcor
     36.66     -38.94       0.00       0.00       0.00       0.00       1.14       ----

> <Gold.PLP.Fitness>
36.6575

> <Gold.PLP.PLP>
-38.9355

> <Gold.PLP.part.hbond>
0.0000

> <Gold.PLP.part.metal>
0.0000

> <Gold.PLP.part.buried>
-0.1162

> <Gold.PLP.part.nonpolar>
-39.4624

> <Gold.PLP.part.repulsive>
0.8144

> <Gold.PLP.ligand.clash>
0.0000

> <Gold.PLP.ligand.torsion>
1.1390

> <Gold.PLP.Chemscore.Hbond>
0.0000

> <Gold.PLP.Chemscore.CHOScore>
0.0000

> <Gold.PLP.Chemscore.Metal>
0.0000

> <Gold.PLP.Chemscore.Internal.Correction>
   9.000000E+99

#       Name:                CT1002167954
#       Creating user name   hitesit
#       Creation time:       Sun Apr 16 22:50:35 2023


#       File generated by GOLD software.
#

@<TRIPOS>MOLECULE
CT1002167954|ligand_prepared|mol2|1|dock10
    29    30     1
SMALL
NO_CHARGES


@<TRIPOS>ATOM
      1 C1         127.3303 143.2793  98.7481 C.3            1 RES1               0.0000
      2 C2         128.1961 143.6881  99.9573 C.ar           1 RES1               0.0000
      3 C3         128.2179 143.4279  97.5159 C.2            1 RES1               0.0000
      4 C4         126.8716 141.8501  99.0157 C.2            1 RES1               0.0000
      5 C5         126.0717 144.1569  98.5557 C.3            1 RES1               0.0000
      6 C6         129.3452 142.9725 100.2804 C.ar           1 RES1               0.0000
      7 C7         127.8606 144.7781 100.7560 C.ar           1 RES1               0.0000
      8 N8         128.6814 142.2871  96.9298 N.am           1 RES1               0.0000
      9 O9         128.5385 144.5301  97.0885 O.2            1 RES1               0.0000
     10 N10        127.3287 140.8624  98.1830 N.am           1 RES1               0.0000
     11 O11        126.1316 141.5679  99.9501 O.2            1 RES1               0.0000
     12 C12        125.2180 143.7517  97.3644 C.3            1 RES1               0.0000
     13 C13        130.1320 143.3352 101.3609 C.ar           1 RES1               0.0000
     14 C14        128.6488 145.1390 101.8363 C.ar           1 RES1               0.0000
     15 C15        128.2373 141.0118  97.1708 C.2            1 RES1               0.0000
     16 C16        129.7847 144.4188 102.1393 C.ar           1 RES1               0.0000
     17 O17        128.6415 140.0660  96.5006 O.2            1 RES1               0.0000
     18 H18        125.4595 144.1005  99.4642 H              1 RES1               0.0000
     19 H19        126.3850 145.2003  98.4268 H              1 RES1               0.0000
     20 H20        129.6330 142.1154  99.6808 H              1 RES1               0.0000
     21 H21        126.9709 145.3586 100.5371 H              1 RES1               0.0000
     22 H22        129.4274 142.3918  96.2494 H              1 RES1               0.0000
     23 H23        126.9573 139.9295  98.3313 H              1 RES1               0.0000
     24 H24        124.3483 144.3993  97.2750 H              1 RES1               0.0000
     25 H25        125.7880 143.8203  96.4402 H              1 RES1               0.0000
     26 H26        124.8680 142.7271  97.4714 H              1 RES1               0.0000
     27 H27        131.0242 142.7643 101.5960 H              1 RES1               0.0000
     28 H28        128.3713 145.9921 102.4465 H              1 RES1               0.0000
     29 H29        130.4015 144.7029 102.9855 H              1 RES1               0.0000
@<TRIPOS>BOND
    1    1    2 1     
    2    1    3 1     
    3    1    4 1     
    4    1    5 1     
    5    2    6 ar    
    6    2    7 ar    
    7    3    8 1     
    8    3    9 2     
    9    4   10 1     
   10    4   11 2     
   11    5   12 1     
   12    5   18 1     
   13    5   19 1     
   14    6   13 ar    
   15    6   20 1     
   16    7   14 ar    
   17    7   21 1     
   18    8   15 1     
   19    8   22 1     
   20   10   15 1     
   21   10   23 1     
   22   12   24 1     
   23   12   25 1     
   24   12   26 1     
   25   13   16 ar    
   26   13   27 1     
   27   14   16 ar    
   28   14   28 1     
   29   15   17 2     
   30   16   29 1     
@<TRIPOS>SUBSTRUCTURE
      1 RES1           1
@<TRIPOS>SET
DONOR_HYDROGENS      STATIC     ATOMS    <user>   **** ""
2 22 23
ATOM$RED        STATIC     ATOMS    COLORGROUP SYSTEM
2 22 23
@<TRIPOS>COMMENT
> <Gold.Version>
2022.3.0

> <Gold.Id.Protein>
unknown|7rmh_clean|pdb

> <Gold.Protein.RotatedTorsions>
[ 6069 6060 6061 6062 ] final   73.61 input   58.43 | X-H torsion
[ 6095 6088 6089 6090 ] final  -12.66 input   80.40 | X-H torsion
[ 12696 12688 12689 12690 ] final -149.74 input   27.23 | X-H torsion
[ 12955 12944 12943 12942 ] final  -45.46 input   60.02 | X-H torsion
[  140  121  122  123 ] final  166.94 input   59.99 | X-H torsion
[ 10534 10525 10526 10527 ] final  -78.86 input   86.97 | X-H torsion
[ 12729 12724 12723 12720 ] final -108.91 input   60.00 | X-H torsion
[ 7603 7585 7586 7587 ] final    3.21 input   21.72 | X-H torsion
[ 14135 14126 14127 14128 ] final  124.45 input  100.92 | X-H torsion
[ 11478 11469 11468 11466 ] final  -15.38 input   60.02 | X-H torsion
[ 14106 14097 14096 14094 ] final -101.75 input   60.00 | X-H torsion
[ 14257 14248 14247 14245 ] final -162.97 input   60.01 | X-H torsion
[ 12659 12654 12653 12650 ] final  -22.61 input   60.00 | X-H torsion
[ 11470 11458 11459 11460 ] final   28.53 input   94.06 | X-H torsion
[ 4828 4821 4822 4823 ] final -146.54 input   91.76 | X-H torsion
[ 4831 4826 4825 4822 ] final  -14.53 input   59.99 | X-H torsion
[ 13071 13062 13061 13059 ] final -123.90 input   60.03 | X-H torsion
[ 6490 6474 6475 6476 ] final  -29.83 input  103.68 | X-H torsion
[ 13126 13119 13120 13121 ] final  177.33 input  114.72 | X-H torsion
[ 13129 13124 13123 13120 ] final -126.50 input   59.98 | X-H torsion
[ 14703 6063 6062 6061 ] final  -45.45 input    0.00 | X-H torsion
[ 14710 6091 6090 6089 ] final -107.39 input   -0.00 | X-H torsion
[ 14727  124  123  122 ] final   23.38 input   -0.00 | X-H torsion
[ 14734 7588 7587 7586 ] final  117.25 input    0.00 | X-H torsion
[ 14820 6477 6476 6475 ] final -113.59 input   -0.00 | X-H torsion

> <Gold.Protein.ActiveResidues>
 ASN23   THR86   GLU172  THR173  VAL200  LYS280  GLN24   PHE25   GLN27   MET81  
 PHE84   ASN85   VAL88   ASN89   TYR92   ALA93   VAL94   HIS95   ASN96   GLU97  
 TRP98   TYR100  CYS105  HIS108  ASN109  PRO112  ILE113  VAL116  PHE117  LEU161 
 ALA162  GLN165  SER169  THR170  MET174  PRO175  SER176  ARG177  VAL178  VAL179 
 CYS180  MET181  ILE182  GLU183  TRP184  LYS190  TYR196  HIS197  THR201  ILE204 
 TRP261  PHE264  HIS265  PHE267  PHE268  LEU269  PRO271  PRO275  LEU277  TYR278 
 LEU279  LYS281  PHE282  ILE283  GLN284  GLN285  VAL286  TYR287  LEU288  ILE290 
 MET291  ALA294  MET295 

> <Gold.Protein.RotatedAtoms>
  120.0743  150.4743   87.3666 H   0  0  0  0  0  0  0  0  0  0  0  0  # atno 140  bound_to 121 
  120.1182  148.8562   87.0113 H   0  0  0  0  0  0  0  0  0  0  0  0  # atno 141  bound_to 121 
  127.9659  145.7359  112.5925 H   0  0  0  0  0  0  0  0  0  0  0  0  # atno 4828 bound_to 4821
  127.0616  143.5902  113.1379 H   0  0  0  0  0  0  0  0  0  0  0  0  # atno 4831 bound_to 4826
  131.9977  155.9600   95.8309 H   0  0  0  0  0  0  0  0  0  0  0  0  # atno 6069 bound_to 6060
  130.8716  157.4304   92.3505 H   0  0  0  0  0  0  0  0  0  0  0  0  # atno 6095 bound_to 6088
  145.6903  137.9400  106.4748 H   0  0  0  0  0  0  0  0  0  0  0  0  # atno 6490 bound_to 6474
  125.2511  139.8556   91.5563 H   0  0  0  0  0  0  0  0  0  0  0  0  # atno 7603 bound_to 7585
  119.5130  147.8155   89.8026 H   0  0  0  0  0  0  0  0  0  0  0  0  # atno 10534 bound_to 10525
  123.1219  148.6089  105.0529 H   0  0  0  0  0  0  0  0  0  0  0  0  # atno 11470 bound_to 11458
  128.0068  150.5663   98.0789 H   0  0  0  0  0  0  0  0  0  0  0  0  # atno 11478 bound_to 11469
  136.1415  154.9407  101.7568 H   0  0  0  0  0  0  0  0  0  0  0  0  # atno 12659 bound_to 12654
  128.5213  157.3685   90.6625 H   0  0  0  0  0  0  0  0  0  0  0  0  # atno 12696 bound_to 12688
  120.2676  154.1513   88.7759 H   0  0  0  0  0  0  0  0  0  0  0  0  # atno 12729 bound_to 12724
  140.3080  141.6506   90.6675 H   0  0  0  0  0  0  0  0  0  0  0  0  # atno 12955 bound_to 12944
  140.2539  142.4925   92.0938 H   0  0  0  0  0  0  0  0  0  0  0  0  # atno 12956 bound_to 12944
  139.6870  143.1872   90.6996 H   0  0  0  0  0  0  0  0  0  0  0  0  # atno 12957 bound_to 12944
  142.0393  144.4875  106.7283 H   0  0  0  0  0  0  0  0  0  0  0  0  # atno 13071 bound_to 13062
  142.9018  137.6559  106.2851 H   0  0  0  0  0  0  0  0  0  0  0  0  # atno 13126 bound_to 13119
  140.8215  135.2298  104.7231 H   0  0  0  0  0  0  0  0  0  0  0  0  # atno 13129 bound_to 13124
  132.3467  139.3450   98.2847 H   0  0  0  0  0  0  0  0  0  0  0  0  # atno 14106 bound_to 14097
  121.0670  138.9628   91.6451 H   0  0  0  0  0  0  0  0  0  0  0  0  # atno 14135 bound_to 14126
  127.9059  144.1810  104.9658 H   0  0  0  0  0  0  0  0  0  0  0  0  # atno 14257 bound_to 14248
  132.4762  157.6125   96.1561 LP  0  0  0  0  0  0  0  0  0  0  0  0  # atno 14702 bound_to 6060
  129.9254  155.5914   94.4444 LP  0  0  0  0  0  0  0  0  0  0  0  0  # atno 14703 bound_to 6063
  128.8690  156.9548   94.6030 LP  0  0  0  0  0  0  0  0  0  0  0  0  # atno 14704 bound_to 6063
  130.5653  158.7164   93.4993 LP  0  0  0  0  0  0  0  0  0  0  0  0  # atno 14709 bound_to 6088
  129.8712  157.7506   89.3218 LP  0  0  0  0  0  0  0  0  0  0  0  0  # atno 14710 bound_to 6091
  130.4198  156.5697   90.4639 LP  0  0  0  0  0  0  0  0  0  0  0  0  # atno 14711 bound_to 6091
  118.7213  149.5532   87.5308 LP  0  0  0  0  0  0  0  0  0  0  0  0  # atno 14720 bound_to 121 
  117.5522  148.8410   89.3391 LP  0  0  0  0  0  0  0  0  0  0  0  0  # atno 14727 bound_to 124 
  117.6943  147.5213   90.4519 LP  0  0  0  0  0  0  0  0  0  0  0  0  # atno 14728 bound_to 124 
  119.6965  153.5814   90.1890 LP  0  0  0  0  0  0  0  0  0  0  0  0  # atno 14729 bound_to 12724
  121.2692  153.9980   90.0491 LP  0  0  0  0  0  0  0  0  0  0  0  0  # atno 14730 bound_to 12724
  125.3110  139.3574   89.8802 LP  0  0  0  0  0  0  0  0  0  0  0  0  # atno 14733 bound_to 7585
  123.5099  140.5041   93.5547 LP  0  0  0  0  0  0  0  0  0  0  0  0  # atno 14734 bound_to 7588
  124.4573  139.0559   93.4823 LP  0  0  0  0  0  0  0  0  0  0  0  0  # atno 14735 bound_to 7588
  128.6446  149.0958   98.3594 LP  0  0  0  0  0  0  0  0  0  0  0  0  # atno 14738 bound_to 11469
  129.3920  150.4340   98.9226 LP  0  0  0  0  0  0  0  0  0  0  0  0  # atno 14739 bound_to 11469
  133.8200  139.1979   97.6086 LP  0  0  0  0  0  0  0  0  0  0  0  0  # atno 14744 bound_to 14097
  132.8415  137.8963   97.7318 LP  0  0  0  0  0  0  0  0  0  0  0  0  # atno 14745 bound_to 14097
  129.1925  144.2980  103.9763 LP  0  0  0  0  0  0  0  0  0  0  0  0  # atno 14762 bound_to 14248
  129.2326  143.2843  105.2559 LP  0  0  0  0  0  0  0  0  0  0  0  0  # atno 14763 bound_to 14248
  135.9074  154.7686  103.3579 LP  0  0  0  0  0  0  0  0  0  0  0  0  # atno 14798 bound_to 12654
  135.5272  153.5507  102.3386 LP  0  0  0  0  0  0  0  0  0  0  0  0  # atno 14799 bound_to 12654
  126.8888  147.0397  113.0145 LP  0  0  0  0  0  0  0  0  0  0  0  0  # atno 14808 bound_to 4821
  125.9197  142.7153  113.8990 LP  0  0  0  0  0  0  0  0  0  0  0  0  # atno 14809 bound_to 4826
  126.6468  143.9590  114.6679 LP  0  0  0  0  0  0  0  0  0  0  0  0  # atno 14810 bound_to 4826
  142.3936  146.0154  106.2951 LP  0  0  0  0  0  0  0  0  0  0  0  0  # atno 14815 bound_to 13062
  143.3345  145.2308  107.3748 LP  0  0  0  0  0  0  0  0  0  0  0  0  # atno 14816 bound_to 13062
  143.3748  136.9012  109.5876 LP  0  0  0  0  0  0  0  0  0  0  0  0  # atno 14820 bound_to 6477
  142.3460  138.2862  109.4347 LP  0  0  0  0  0  0  0  0  0  0  0  0  # atno 14821 bound_to 6477
  145.6041  139.6133  106.0052 LP  0  0  0  0  0  0  0  0  0  0  0  0  # atno 14822 bound_to 6474
  142.1110  136.0839  104.2175 LP  0  0  0  0  0  0  0  0  0  0  0  0  # atno 14827 bound_to 13124
  141.2727  136.5671  105.5329 LP  0  0  0  0  0  0  0  0  0  0  0  0  # atno 14828 bound_to 13124

> <Gold.Score>
     Fitness  S(hb_ext) S(vdw_ext)  S(hb_int)    S(int)      intcor
     36.42       0.23      26.35       0.00      -0.04      -0.76

> <Gold.Goldscore.Fitness>
36.4221

> <Gold.Goldscore.Internal.Vdw>
-0.4306

> <Gold.Goldscore.Internal.Torsion>
-0.3672

> <Gold.Goldscore.External.Vdw>
26.3519

> <Gold.Goldscore.Internal.HBond>
0.0000

> <Gold.Goldscore.External.HBond>
0.2275

> <Gold.Goldscore.Internal.Correction>
-0.7585

> <Gold.Goldscore.Hbonds>
donor molecule, donor type, donor heavy atom, donor atom, acceptor molecule, acceptor atom, score
      L1  H    10    23       P1 14171  0.11

> <Gold.Goldscore.Internal.Vdw.Weighted>
-0.4306

> <Gold.Goldscore.Internal.Torsion.Weighted>
-0.3672

> <Gold.Goldscore.External.Vdw.Weighted>
36.2339

> <Gold.Goldscore.Internal.HBond.Weighted>
0.0000

> <Gold.Goldscore.External.HBond.Weighted>
0.2275

> <Gold.Goldscore.Internal.Correction.Weighted>
-0.7585

> <Gold.Rescore>
     Score     S(PLP)   S(hbond)     S(cho)   S(metal)  DE(clash)   DE(tors)     intcor
     35.20     -34.30       0.67       0.00       0.00       0.00       0.55       ----

> <Gold.PLP.Fitness>
35.2022

> <Gold.PLP.PLP>
-34.2953

> <Gold.PLP.part.hbond>
-1.0000

> <Gold.PLP.part.metal>
0.0000

> <Gold.PLP.part.buried>
-0.7741

> <Gold.PLP.part.nonpolar>
-32.4999

> <Gold.PLP.part.repulsive>
0.3249

> <Gold.PLP.ligand.clash>
0.0000

> <Gold.PLP.ligand.torsion>
0.5545

> <Gold.PLP.Chemscore.Hbond>
0.6720

> <Gold.PLP.Chemscore.CHOScore>
0.0000

> <Gold.PLP.Chemscore.Metal>
0.0000

> <Gold.Chemscore.Hbonds>
donor molecule, donor type, donor heavy atom, donor atom, acceptor molecule, acceptor atom, score
      L1  H    10    23       P1 14171  0.47

> <Gold.PLP.Chemscore.Internal.Correction>
   9.000000E+99

#       Name:                CT1002167954
#       Creating user name   hitesit
#       Creation time:       Sun Apr 16 22:50:24 2023


#       File generated by GOLD software.
#

@<TRIPOS>MOLECULE
CT1002167954|ligand_prepared|mol2|1|dock2
    29    30     1
SMALL
NO_CHARGES


@<TRIPOS>ATOM
      1 C1         128.5581 142.7807  97.7196 C.3            1 RES1               0.0000
      2 C2         127.1103 143.2234  98.0142 C.ar           1 RES1               0.0000
      3 C3         128.4570 141.5811  96.7822 C.2            1 RES1               0.0000
      4 C4         129.2581 143.9900  97.1093 C.2            1 RES1               0.0000
      5 C5         129.3497 142.3553  98.9782 C.3            1 RES1               0.0000
      6 C6         126.3041 143.7306  96.9996 C.ar           1 RES1               0.0000
      7 C7         126.5671 143.1282  99.2927 C.ar           1 RES1               0.0000
      8 N8         128.7837 141.7736  95.4722 N.am           1 RES1               0.0000
      9 O9         128.0588 140.4925  97.1781 O.2            1 RES1               0.0000
     10 N10        129.6672 143.9040  95.8043 N.am           1 RES1               0.0000
     11 O11        129.4441 145.0224  97.7416 O.2            1 RES1               0.0000
     12 C12        130.7827 141.9369  98.6888 C.3            1 RES1               0.0000
     13 C13        125.0010 144.1256  97.2532 C.ar           1 RES1               0.0000
     14 C14        125.2638 143.5240  99.5441 C.ar           1 RES1               0.0000
     15 C15        129.4344 142.8619  94.9488 C.2            1 RES1               0.0000
     16 C16        124.4799 144.0222  98.5253 C.ar           1 RES1               0.0000
     17 O17        129.7861 142.8809  93.7727 O.2            1 RES1               0.0000
     18 H18        129.3627 143.1925  99.6869 H              1 RES1               0.0000
     19 H19        128.8275 141.5182  99.4576 H              1 RES1               0.0000
     20 H20        126.6977 143.8217  95.9927 H              1 RES1               0.0000
     21 H21        127.1657 142.7402 100.1098 H              1 RES1               0.0000
     22 H22        128.5198 141.0406  94.8215 H              1 RES1               0.0000
     23 H23        130.1943 144.6897  95.4366 H              1 RES1               0.0000
     24 H24        131.2928 141.6482  99.6054 H              1 RES1               0.0000
     25 H25        130.8068 141.0898  98.0064 H              1 RES1               0.0000
     26 H26        131.3389 142.7542  98.2343 H              1 RES1               0.0000
     27 H27        124.3886 144.5183  96.4482 H              1 RES1               0.0000
     28 H28        124.8580 143.4414 100.5470 H              1 RES1               0.0000
     29 H29        123.4589 144.3313  98.7236 H              1 RES1               0.0000
@<TRIPOS>BOND
    1    1    2 1     
    2    1    3 1     
    3    1    4 1     
    4    1    5 1     
    5    2    6 ar    
    6    2    7 ar    
    7    3    8 1     
    8    3    9 2     
    9    4   10 1     
   10    4   11 2     
   11    5   12 1     
   12    5   18 1     
   13    5   19 1     
   14    6   13 ar    
   15    6   20 1     
   16    7   14 ar    
   17    7   21 1     
   18    8   15 1     
   19    8   22 1     
   20   10   15 1     
   21   10   23 1     
   22   12   24 1     
   23   12   25 1     
   24   12   26 1     
   25   13   16 ar    
   26   13   27 1     
   27   14   16 ar    
   28   14   28 1     
   29   15   17 2     
   30   16   29 1     
@<TRIPOS>SUBSTRUCTURE
      1 RES1           1
@<TRIPOS>SET
DONOR_HYDROGENS      STATIC     ATOMS    <user>   **** ""
2 22 23
ATOM$RED        STATIC     ATOMS    COLORGROUP SYSTEM
2 22 23
@<TRIPOS>COMMENT
> <Gold.Version>
2022.3.0

> <Gold.Id.Protein>
unknown|7rmh_clean|pdb

> <Gold.Protein.RotatedTorsions>
[ 6069 6060 6061 6062 ] final  122.27 input   58.43 | X-H torsion
[ 6095 6088 6089 6090 ] final  -74.16 input   80.40 | X-H torsion
[ 12696 12688 12689 12690 ] final   56.37 input   27.23 | X-H torsion
[ 12955 12944 12943 12942 ] final  -26.24 input   60.02 | X-H torsion
[  140  121  122  123 ] final -156.14 input   59.99 | X-H torsion
[ 10534 10525 10526 10527 ] final   18.63 input   86.97 | X-H torsion
[ 12729 12724 12723 12720 ] final  141.05 input   60.00 | X-H torsion
[ 7603 7585 7586 7587 ] final   61.49 input   21.72 | X-H torsion
[ 14135 14126 14127 14128 ] final -145.00 input  100.92 | X-H torsion
[ 11478 11469 11468 11466 ] final -133.35 input   60.02 | X-H torsion
[ 14106 14097 14096 14094 ] final   34.88 input   60.00 | X-H torsion
[ 14257 14248 14247 14245 ] final   35.11 input   60.01 | X-H torsion
[ 12659 12654 12653 12650 ] final  100.13 input   60.00 | X-H torsion
[ 11470 11458 11459 11460 ] final   18.15 input   94.06 | X-H torsion
[ 4828 4821 4822 4823 ] final  135.71 input   91.76 | X-H torsion
[ 4831 4826 4825 4822 ] final  -74.83 input   59.99 | X-H torsion
[ 13071 13062 13061 13059 ] final  176.40 input   60.03 | X-H torsion
[ 6490 6474 6475 6476 ] final  -45.33 input  103.68 | X-H torsion
[ 13126 13119 13120 13121 ] final -177.89 input  114.72 | X-H torsion
[ 13129 13124 13123 13120 ] final  -44.36 input   59.98 | X-H torsion
[ 14703 6063 6062 6061 ] final  117.79 input    0.00 | X-H torsion
[ 14710 6091 6090 6089 ] final   15.41 input   -0.00 | X-H torsion
[ 14727  124  123  122 ] final   54.53 input   -0.00 | X-H torsion
[ 14734 7588 7587 7586 ] final  -94.54 input    0.00 | X-H torsion
[ 14820 6477 6476 6475 ] final  -91.80 input   -0.00 | X-H torsion

> <Gold.Protein.ActiveResidues>
 ASN23   THR86   GLU172  THR173  VAL200  LYS280  GLN24   PHE25   GLN27   MET81  
 PHE84   ASN85   VAL88   ASN89   TYR92   ALA93   VAL94   HIS95   ASN96   GLU97  
 TRP98   TYR100  CYS105  HIS108  ASN109  PRO112  ILE113  VAL116  PHE117  LEU161 
 ALA162  GLN165  SER169  THR170  MET174  PRO175  SER176  ARG177  VAL178  VAL179 
 CYS180  MET181  ILE182  GLU183  TRP184  LYS190  TYR196  HIS197  THR201  ILE204 
 TRP261  PHE264  HIS265  PHE267  PHE268  LEU269  PRO271  PRO275  LEU277  TYR278 
 LEU279  LYS281  PHE282  ILE283  GLN284  GLN285  VAL286  TYR287  LEU288  ILE290 
 MET291  ALA294  MET295 

> <Gold.Protein.RotatedAtoms>
  120.4752  150.0630   87.1742 H   0  0  0  0  0  0  0  0  0  0  0  0  # atno 140  bound_to 121 
  119.5465  148.6914   87.1262 H   0  0  0  0  0  0  0  0  0  0  0  0  # atno 141  bound_to 121 
  127.4443  145.9193  113.5413 H   0  0  0  0  0  0  0  0  0  0  0  0  # atno 4828 bound_to 4821
  126.4376  142.8863  113.1390 H   0  0  0  0  0  0  0  0  0  0  0  0  # atno 4831 bound_to 4826
  132.7195  156.0810   95.7807 H   0  0  0  0  0  0  0  0  0  0  0  0  # atno 6069 bound_to 6060
  130.5244  157.2473   93.1734 H   0  0  0  0  0  0  0  0  0  0  0  0  # atno 6095 bound_to 6088
  145.8609  138.0207  106.6139 H   0  0  0  0  0  0  0  0  0  0  0  0  # atno 6490 bound_to 6474
  125.5528  139.0686   91.3613 H   0  0  0  0  0  0  0  0  0  0  0  0  # atno 7603 bound_to 7585
  120.6031  147.3604   90.4043 H   0  0  0  0  0  0  0  0  0  0  0  0  # atno 10534 bound_to 10525
  122.9800  148.6246  104.9797 H   0  0  0  0  0  0  0  0  0  0  0  0  # atno 11470 bound_to 11458
  128.6153  149.1056   98.3449 H   0  0  0  0  0  0  0  0  0  0  0  0  # atno 11478 bound_to 11469
  135.5261  153.5519  102.3841 H   0  0  0  0  0  0  0  0  0  0  0  0  # atno 12659 bound_to 12654
  126.9949  156.9674   91.4532 H   0  0  0  0  0  0  0  0  0  0  0  0  # atno 12696 bound_to 12688
  119.6125  153.6056   90.0510 H   0  0  0  0  0  0  0  0  0  0  0  0  # atno 12729 bound_to 12724
  140.4032  141.5629   90.9596 H   0  0  0  0  0  0  0  0  0  0  0  0  # atno 12955 bound_to 12944
  140.1265  142.7818   92.0475 H   0  0  0  0  0  0  0  0  0  0  0  0  # atno 12956 bound_to 12944
  139.7192  142.9855   90.4538 H   0  0  0  0  0  0  0  0  0  0  0  0  # atno 12957 bound_to 12944
  141.8459  145.2498  106.2284 H   0  0  0  0  0  0  0  0  0  0  0  0  # atno 13071 bound_to 13062
  142.8660  137.6848  106.3425 H   0  0  0  0  0  0  0  0  0  0  0  0  # atno 13126 bound_to 13119
  140.8456  136.1326  105.5579 H   0  0  0  0  0  0  0  0  0  0  0  0  # atno 13129 bound_to 13124
  133.0907  137.9163   97.6248 H   0  0  0  0  0  0  0  0  0  0  0  0  # atno 14106 bound_to 14097
  122.0032  139.7302   91.9803 H   0  0  0  0  0  0  0  0  0  0  0  0  # atno 14135 bound_to 14126
  129.5928  143.8530  104.2823 H   0  0  0  0  0  0  0  0  0  0  0  0  # atno 14257 bound_to 14248
  131.7788  157.4956   96.2045 LP  0  0  0  0  0  0  0  0  0  0  0  0  # atno 14702 bound_to 6060
  128.9957  156.9811   94.8197 LP  0  0  0  0  0  0  0  0  0  0  0  0  # atno 14703 bound_to 6063
  129.7987  155.5652   94.2277 LP  0  0  0  0  0  0  0  0  0  0  0  0  # atno 14704 bound_to 6063
  130.9000  158.8928   92.7059 LP  0  0  0  0  0  0  0  0  0  0  0  0  # atno 14709 bound_to 6088
  130.6751  157.3537   90.5502 LP  0  0  0  0  0  0  0  0  0  0  0  0  # atno 14710 bound_to 6091
  129.6159  156.9666   89.2355 LP  0  0  0  0  0  0  0  0  0  0  0  0  # atno 14711 bound_to 6091
  118.8893  150.1209   87.6072 LP  0  0  0  0  0  0  0  0  0  0  0  0  # atno 14720 bound_to 121 
  117.4753  148.4570   89.0880 LP  0  0  0  0  0  0  0  0  0  0  0  0  # atno 14727 bound_to 124 
  117.7712  147.9052   90.7030 LP  0  0  0  0  0  0  0  0  0  0  0  0  # atno 14728 bound_to 124 
  121.1993  153.9398   90.1851 LP  0  0  0  0  0  0  0  0  0  0  0  0  # atno 14729 bound_to 12724
  120.4262  154.1893   88.7685 LP  0  0  0  0  0  0  0  0  0  0  0  0  # atno 14730 bound_to 12724
  125.0187  140.1203   90.0692 LP  0  0  0  0  0  0  0  0  0  0  0  0  # atno 14733 bound_to 7585
  124.1195  138.9742   93.8051 LP  0  0  0  0  0  0  0  0  0  0  0  0  # atno 14734 bound_to 7588
  123.8477  140.5859   93.2319 LP  0  0  0  0  0  0  0  0  0  0  0  0  # atno 14735 bound_to 7588
  129.4047  150.4035   98.9281 LP  0  0  0  0  0  0  0  0  0  0  0  0  # atno 14738 bound_to 11469
  128.0191  150.5974   98.0860 LP  0  0  0  0  0  0  0  0  0  0  0  0  # atno 14739 bound_to 11469
  132.2092  139.1105   98.2927 LP  0  0  0  0  0  0  0  0  0  0  0  0  # atno 14744 bound_to 14097
  133.7034  139.4217   97.7120 LP  0  0  0  0  0  0  0  0  0  0  0  0  # atno 14745 bound_to 14097
  128.6174  143.4039  105.5051 LP  0  0  0  0  0  0  0  0  0  0  0  0  # atno 14762 bound_to 14248
  128.1093  144.5086  104.4152 LP  0  0  0  0  0  0  0  0  0  0  0  0  # atno 14763 bound_to 14248
  136.1301  154.9112  101.7241 LP  0  0  0  0  0  0  0  0  0  0  0  0  # atno 14798 bound_to 12654
  135.9243  154.8066  103.3407 LP  0  0  0  0  0  0  0  0  0  0  0  0  # atno 14799 bound_to 12654
  127.4063  146.8578  112.0730 LP  0  0  0  0  0  0  0  0  0  0  0  0  # atno 14808 bound_to 4821
  126.0242  143.2566  114.6690 LP  0  0  0  0  0  0  0  0  0  0  0  0  # atno 14809 bound_to 4826
  127.1705  144.1262  113.8968 LP  0  0  0  0  0  0  0  0  0  0  0  0  # atno 14810 bound_to 4826
  143.1379  146.0055  106.8667 LP  0  0  0  0  0  0  0  0  0  0  0  0  # atno 14815 bound_to 13062
  142.7850  144.4730  107.3066 LP  0  0  0  0  0  0  0  0  0  0  0  0  # atno 14816 bound_to 13062
  143.5688  137.1359  109.7077 LP  0  0  0  0  0  0  0  0  0  0  0  0  # atno 14820 bound_to 6477
  142.1520  138.0514  109.3145 LP  0  0  0  0  0  0  0  0  0  0  0  0  # atno 14821 bound_to 6477
  145.4333  139.5325  105.8658 LP  0  0  0  0  0  0  0  0  0  0  0  0  # atno 14822 bound_to 6474
  141.2363  135.2086  104.2767 LP  0  0  0  0  0  0  0  0  0  0  0  0  # atno 14827 bound_to 13124
  142.1230  136.5329  104.6327 LP  0  0  0  0  0  0  0  0  0  0  0  0  # atno 14828 bound_to 13124

> <Gold.Score>
     Fitness  S(hb_ext) S(vdw_ext)  S(hb_int)    S(int)      intcor
     34.59       0.00      25.23       0.00      -0.09      -0.77

> <Gold.Goldscore.Fitness>
34.5929

> <Gold.Goldscore.Internal.Vdw>
-0.4982

> <Gold.Goldscore.Internal.Torsion>
-0.3681

> <Gold.Goldscore.External.Vdw>
25.2262

> <Gold.Goldscore.Internal.HBond>
0.0000

> <Gold.Goldscore.External.HBond>
0.0000

> <Gold.Goldscore.Internal.Correction>
-0.7731

> <Gold.Goldscore.Internal.Vdw.Weighted>
-0.4982

> <Gold.Goldscore.Internal.Torsion.Weighted>
-0.3681

> <Gold.Goldscore.External.Vdw.Weighted>
34.6860

> <Gold.Goldscore.Internal.HBond.Weighted>
0.0000

> <Gold.Goldscore.External.HBond.Weighted>
0.0000

> <Gold.Goldscore.Internal.Correction.Weighted>
-0.7731

> <Gold.Rescore>
     Score     S(PLP)   S(hbond)     S(cho)   S(metal)  DE(clash)   DE(tors)     intcor
     40.00     -40.06       0.00       0.00       0.00       0.00       0.03       ----

> <Gold.PLP.Fitness>
39.9952

> <Gold.PLP.PLP>
-40.0563

> <Gold.PLP.part.hbond>
0.0000

> <Gold.PLP.part.metal>
0.0000

> <Gold.PLP.part.buried>
-3.9111

> <Gold.PLP.part.nonpolar>
-35.6381

> <Gold.PLP.part.repulsive>
0.6065

> <Gold.PLP.ligand.clash>
0.0000

> <Gold.PLP.ligand.torsion>
0.0306

> <Gold.PLP.Chemscore.Hbond>
0.0000

> <Gold.PLP.Chemscore.CHOScore>
0.0000

> <Gold.PLP.Chemscore.Metal>
0.0000

> <Gold.PLP.Chemscore.Internal.Correction>
   9.000000E+99

#       Name:                CT1002167954
#       Creating user name   hitesit
#       Creation time:       Sun Apr 16 22:50:31 2023


#       File generated by GOLD software.
#

@<TRIPOS>MOLECULE
CT1002167954|ligand_prepared|mol2|1|dock7
    29    30     1
SMALL
NO_CHARGES


@<TRIPOS>ATOM
      1 C1         126.2312 143.4405  97.8546 C.3            1 RES1               0.0000
      2 C2         127.3926 144.1640  98.5662 C.ar           1 RES1               0.0000
      3 C3         125.1364 143.2552  98.9011 C.2            1 RES1               0.0000
      4 C4         125.8283 144.3298  96.6834 C.2            1 RES1               0.0000
      5 C5         126.6120 142.0517  97.2909 C.3            1 RES1               0.0000
      6 C6         128.6700 144.1673  98.0139 C.ar           1 RES1               0.0000
      7 C7         127.2018 144.8334  99.7721 C.ar           1 RES1               0.0000
      8 N8         124.0321 144.0501  98.8078 N.am           1 RES1               0.0000
      9 O9         125.2576 142.4515  99.8173 O.2            1 RES1               0.0000
     10 N10        124.5829 144.9007  96.7095 N.am           1 RES1               0.0000
     11 O11        126.5844 144.5546  95.7464 O.2            1 RES1               0.0000
     12 C12        127.4158 141.1969  98.2580 C.3            1 RES1               0.0000
     13 C13        129.7181 144.8188  98.6427 C.ar           1 RES1               0.0000
     14 C14        128.2514 145.4841 100.3993 C.ar           1 RES1               0.0000
     15 C15        123.6782 144.8259  97.7333 C.2            1 RES1               0.0000
     16 C16        129.5095 145.4779  99.8355 C.ar           1 RES1               0.0000
     17 O17        122.5999 145.4122  97.7067 O.2            1 RES1               0.0000
     18 H18        125.6933 141.5146  97.0247 H              1 RES1               0.0000
     19 H19        127.1967 142.1912  96.3733 H              1 RES1               0.0000
     20 H20        128.8538 143.6519  97.0771 H              1 RES1               0.0000
     21 H21        126.2209 144.8506 100.2346 H              1 RES1               0.0000
     22 H22        123.4122 144.0696  99.6113 H              1 RES1               0.0000
     23 H23        124.3044 145.4305  95.8897 H              1 RES1               0.0000
     24 H24        127.6565 140.2336  97.8131 H              1 RES1               0.0000
     25 H25        128.3486 141.6895  98.5247 H              1 RES1               0.0000
     26 H26        126.8541 141.0169  99.1723 H              1 RES1               0.0000
     27 H27        130.7066 144.8098  98.1955 H              1 RES1               0.0000
     28 H28        128.0828 146.0011 101.3383 H              1 RES1               0.0000
     29 H29        130.3306 145.9885 100.3276 H              1 RES1               0.0000
@<TRIPOS>BOND
    1    1    2 1     
    2    1    3 1     
    3    1    4 1     
    4    1    5 1     
    5    2    6 ar    
    6    2    7 ar    
    7    3    8 1     
    8    3    9 2     
    9    4   10 1     
   10    4   11 2     
   11    5   12 1     
   12    5   18 1     
   13    5   19 1     
   14    6   13 ar    
   15    6   20 1     
   16    7   14 ar    
   17    7   21 1     
   18    8   15 1     
   19    8   22 1     
   20   10   15 1     
   21   10   23 1     
   22   12   24 1     
   23   12   25 1     
   24   12   26 1     
   25   13   16 ar    
   26   13   27 1     
   27   14   16 ar    
   28   14   28 1     
   29   15   17 2     
   30   16   29 1     
@<TRIPOS>SUBSTRUCTURE
      1 RES1           1
@<TRIPOS>SET
DONOR_HYDROGENS      STATIC     ATOMS    <user>   **** ""
2 22 23
ATOM$RED        STATIC     ATOMS    COLORGROUP SYSTEM
2 22 23
@<TRIPOS>COMMENT
> <Gold.Version>
2022.3.0

> <Gold.Id.Protein>
unknown|7rmh_clean|pdb

> <Gold.Protein.RotatedTorsions>
[ 6069 6060 6061 6062 ] final   53.31 input   58.43 | X-H torsion
[ 6095 6088 6089 6090 ] final   99.04 input   80.40 | X-H torsion
[ 12696 12688 12689 12690 ] final   63.48 input   27.23 | X-H torsion
[ 12955 12944 12943 12942 ] final -179.82 input   60.02 | X-H torsion
[  140  121  122  123 ] final -155.87 input   59.99 | X-H torsion
[ 10534 10525 10526 10527 ] final -111.33 input   86.97 | X-H torsion
[ 12729 12724 12723 12720 ] final  -49.77 input   60.00 | X-H torsion
[ 7603 7585 7586 7587 ] final  -18.35 input   21.72 | X-H torsion
[ 14135 14126 14127 14128 ] final -152.33 input  100.92 | X-H torsion
[ 11478 11469 11468 11466 ] final -113.74 input   60.02 | X-H torsion
[ 14106 14097 14096 14094 ] final   98.93 input   60.00 | X-H torsion
[ 14257 14248 14247 14245 ] final   96.99 input   60.01 | X-H torsion
[ 12659 12654 12653 12650 ] final -109.78 input   60.00 | X-H torsion
[ 11470 11458 11459 11460 ] final   77.55 input   94.06 | X-H torsion
[ 4828 4821 4822 4823 ] final  151.78 input   91.76 | X-H torsion
[ 4831 4826 4825 4822 ] final   33.49 input   59.99 | X-H torsion
[ 13071 13062 13061 13059 ] final -105.43 input   60.03 | X-H torsion
[ 6490 6474 6475 6476 ] final   -5.31 input  103.68 | X-H torsion
[ 13126 13119 13120 13121 ] final  -44.35 input  114.72 | X-H torsion
[ 13129 13124 13123 13120 ] final   -0.24 input   59.98 | X-H torsion
[ 14703 6063 6062 6061 ] final  179.82 input    0.00 | X-H torsion
[ 14710 6091 6090 6089 ] final -101.52 input   -0.00 | X-H torsion
[ 14727  124  123  122 ] final  -27.01 input   -0.00 | X-H torsion
[ 14734 7588 7587 7586 ] final -160.58 input    0.00 | X-H torsion
[ 14820 6477 6476 6475 ] final   33.03 input   -0.00 | X-H torsion

> <Gold.Protein.ActiveResidues>
 ASN23   THR86   GLU172  THR173  VAL200  LYS280  GLN24   PHE25   GLN27   MET81  
 PHE84   ASN85   VAL88   ASN89   TYR92   ALA93   VAL94   HIS95   ASN96   GLU97  
 TRP98   TYR100  CYS105  HIS108  ASN109  PRO112  ILE113  VAL116  PHE117  LEU161 
 ALA162  GLN165  SER169  THR170  MET174  PRO175  SER176  ARG177  VAL178  VAL179 
 CYS180  MET181  ILE182  GLU183  TRP184  LYS190  TYR196  HIS197  THR201  ILE204 
 TRP261  PHE264  HIS265  PHE267  PHE268  LEU269  PRO271  PRO275  LEU277  TYR278 
 LEU279  LYS281  PHE282  ILE283  GLN284  GLN285  VAL286  TYR287  LEU288  ILE290 
 MET291  ALA294  MET295 

> <Gold.Protein.RotatedAtoms>
  120.4771  150.0590   87.1729 H   0  0  0  0  0  0  0  0  0  0  0  0  # atno 140  bound_to 121 
  119.5421  148.6916   87.1274 H   0  0  0  0  0  0  0  0  0  0  0  0  # atno 141  bound_to 121 
  127.5942  145.7797  113.4077 H   0  0  0  0  0  0  0  0  0  0  0  0  # atno 4828 bound_to 4821
  127.1997  144.0651  113.7178 H   0  0  0  0  0  0  0  0  0  0  0  0  # atno 4831 bound_to 4826
  131.7172  156.0886   95.8878 H   0  0  0  0  0  0  0  0  0  0  0  0  # atno 6069 bound_to 6060
  130.9153  158.8849   92.5955 H   0  0  0  0  0  0  0  0  0  0  0  0  # atno 6095 bound_to 6088
  145.4207  137.9369  106.2227 H   0  0  0  0  0  0  0  0  0  0  0  0  # atno 6490 bound_to 6474
  125.1267  140.1252   91.4068 H   0  0  0  0  0  0  0  0  0  0  0  0  # atno 7603 bound_to 7585
  119.4785  147.7064   89.3231 H   0  0  0  0  0  0  0  0  0  0  0  0  # atno 10534 bound_to 10525
  123.7153  148.9089  105.3672 H   0  0  0  0  0  0  0  0  0  0  0  0  # atno 11470 bound_to 11458
  128.3524  149.1967   98.1892 H   0  0  0  0  0  0  0  0  0  0  0  0  # atno 11478 bound_to 11469
  136.0927  155.1435  103.0308 H   0  0  0  0  0  0  0  0  0  0  0  0  # atno 12659 bound_to 12654
  127.0673  156.8859   91.4801 H   0  0  0  0  0  0  0  0  0  0  0  0  # atno 12696 bound_to 12688
  121.1110  154.2397   89.1423 H   0  0  0  0  0  0  0  0  0  0  0  0  # atno 12729 bound_to 12724
  139.6926  143.2845   90.9180 H   0  0  0  0  0  0  0  0  0  0  0  0  # atno 12955 bound_to 12944
  140.2188  141.7746   90.4832 H   0  0  0  0  0  0  0  0  0  0  0  0  # atno 12956 bound_to 12944
  140.3375  142.2710   92.0601 H   0  0  0  0  0  0  0  0  0  0  0  0  # atno 12957 bound_to 12944
  142.2386  144.3839  106.9280 H   0  0  0  0  0  0  0  0  0  0  0  0  # atno 13071 bound_to 13062
  143.7312  137.5177  107.7035 H   0  0  0  0  0  0  0  0  0  0  0  0  # atno 13126 bound_to 13119
  141.3562  136.6118  105.4932 H   0  0  0  0  0  0  0  0  0  0  0  0  # atno 13129 bound_to 13124
  133.8107  138.5819   97.4657 H   0  0  0  0  0  0  0  0  0  0  0  0  # atno 14106 bound_to 14097
  121.9013  139.7373   91.9322 H   0  0  0  0  0  0  0  0  0  0  0  0  # atno 14135 bound_to 14126
  128.9031  144.4473  103.9690 H   0  0  0  0  0  0  0  0  0  0  0  0  # atno 14257 bound_to 14248
  132.7472  157.4883   96.1010 LP  0  0  0  0  0  0  0  0  0  0  0  0  # atno 14702 bound_to 6060
  128.7686  156.6169   94.0371 LP  0  0  0  0  0  0  0  0  0  0  0  0  # atno 14703 bound_to 6063
  130.0257  155.9293   95.0102 LP  0  0  0  0  0  0  0  0  0  0  0  0  # atno 14704 bound_to 6063
  130.5231  157.3140   93.2631 LP  0  0  0  0  0  0  0  0  0  0  0  0  # atno 14709 bound_to 6088
  129.9190  157.8100   89.3672 LP  0  0  0  0  0  0  0  0  0  0  0  0  # atno 14710 bound_to 6091
  130.3720  156.5103   90.4185 LP  0  0  0  0  0  0  0  0  0  0  0  0  # atno 14711 bound_to 6091
  118.8918  150.1247   87.6073 LP  0  0  0  0  0  0  0  0  0  0  0  0  # atno 14720 bound_to 121 
  117.7077  149.0318   90.0341 LP  0  0  0  0  0  0  0  0  0  0  0  0  # atno 14727 bound_to 124 
  117.5388  147.3305   89.7570 LP  0  0  0  0  0  0  0  0  0  0  0  0  # atno 14728 bound_to 124 
  119.5476  153.8175   89.3013 LP  0  0  0  0  0  0  0  0  0  0  0  0  # atno 14729 bound_to 12724
  120.5684  153.6728   90.5677 LP  0  0  0  0  0  0  0  0  0  0  0  0  # atno 14730 bound_to 12724
  125.4316  139.0962   90.0251 LP  0  0  0  0  0  0  0  0  0  0  0  0  # atno 14733 bound_to 7585
  123.4175  139.5207   94.1204 LP  0  0  0  0  0  0  0  0  0  0  0  0  # atno 14734 bound_to 7588
  124.5497  140.0394   92.9167 LP  0  0  0  0  0  0  0  0  0  0  0  0  # atno 14735 bound_to 7588
  129.4783  150.0918   98.9501 LP  0  0  0  0  0  0  0  0  0  0  0  0  # atno 14738 bound_to 11469
  128.2102  150.8174   98.2207 LP  0  0  0  0  0  0  0  0  0  0  0  0  # atno 14739 bound_to 11469
  132.3376  138.1590   98.0137 LP  0  0  0  0  0  0  0  0  0  0  0  0  # atno 14744 bound_to 14097
  132.8504  139.7033   98.1510 LP  0  0  0  0  0  0  0  0  0  0  0  0  # atno 14745 bound_to 14097
  129.4598  143.3450  105.0288 LP  0  0  0  0  0  0  0  0  0  0  0  0  # atno 14762 bound_to 14248
  127.9614  143.9692  105.2070 LP  0  0  0  0  0  0  0  0  0  0  0  0  # atno 14763 bound_to 14248
  135.5070  153.6344  102.8644 LP  0  0  0  0  0  0  0  0  0  0  0  0  # atno 14798 bound_to 12654
  135.9768  154.4807  101.5492 LP  0  0  0  0  0  0  0  0  0  0  0  0  # atno 14799 bound_to 12654
  127.2575  146.9963  112.2057 LP  0  0  0  0  0  0  0  0  0  0  0  0  # atno 14808 bound_to 4821
  126.3069  142.7906  113.2410 LP  0  0  0  0  0  0  0  0  0  0  0  0  # atno 14809 bound_to 4826
  126.1206  143.4057  114.7422 LP  0  0  0  0  0  0  0  0  0  0  0  0  # atno 14810 bound_to 4826
  142.1657  145.8388  106.2031 LP  0  0  0  0  0  0  0  0  0  0  0  0  # atno 14815 bound_to 13062
  143.3618  145.5118  107.2657 LP  0  0  0  0  0  0  0  0  0  0  0  0  # atno 14816 bound_to 13062
  142.7728  138.4465  109.6334 LP  0  0  0  0  0  0  0  0  0  0  0  0  # atno 14820 bound_to 6477
  142.9479  136.7408  109.3889 LP  0  0  0  0  0  0  0  0  0  0  0  0  # atno 14821 bound_to 6477
  145.8742  139.6165  106.2576 LP  0  0  0  0  0  0  0  0  0  0  0  0  # atno 14822 bound_to 6474
  140.7671  135.2602  104.8046 LP  0  0  0  0  0  0  0  0  0  0  0  0  # atno 14827 bound_to 13124
  142.0780  135.9986  104.1700 LP  0  0  0  0  0  0  0  0  0  0  0  0  # atno 14828 bound_to 13124

> <Gold.Score>
     Fitness  S(hb_ext) S(vdw_ext)  S(hb_int)    S(int)      intcor
     33.99       0.09      26.90       0.00      -3.08      -0.76

> <Gold.Goldscore.Fitness>
33.9882

> <Gold.Goldscore.Internal.Vdw>
-3.1261

> <Gold.Goldscore.Internal.Torsion>
-0.7144

> <Gold.Goldscore.External.Vdw>
26.8957

> <Gold.Goldscore.Internal.HBond>
0.0000

> <Gold.Goldscore.External.HBond>
0.0888

> <Gold.Goldscore.Internal.Correction>
-0.7585

> <Gold.Goldscore.Hbonds>
donor molecule, donor type, donor heavy atom, donor atom, acceptor molecule, acceptor atom, score
      L1  H     8    22       P1 11482  0.04

> <Gold.Goldscore.Internal.Vdw.Weighted>
-3.1261

> <Gold.Goldscore.Internal.Torsion.Weighted>
-0.7144

> <Gold.Goldscore.External.Vdw.Weighted>
36.9815

> <Gold.Goldscore.Internal.HBond.Weighted>
0.0000

> <Gold.Goldscore.External.HBond.Weighted>
0.0888

> <Gold.Goldscore.Internal.Correction.Weighted>
-0.7585

> <Gold.Rescore>
     Score     S(PLP)   S(hbond)     S(cho)   S(metal)  DE(clash)   DE(tors)     intcor
     22.77     -21.83       1.00       0.00       0.00       0.00       1.03       ----

> <Gold.PLP.Fitness>
22.7722

> <Gold.PLP.PLP>
-21.8325

> <Gold.PLP.part.hbond>
-4.0690

> <Gold.PLP.part.metal>
0.0000

> <Gold.PLP.part.buried>
10.0691

> <Gold.PLP.part.nonpolar>
-38.4941

> <Gold.PLP.part.repulsive>
8.9514

> <Gold.PLP.ligand.clash>
0.0000

> <Gold.PLP.ligand.torsion>
1.0301

> <Gold.PLP.Chemscore.Hbond>
1.0000

> <Gold.PLP.Chemscore.CHOScore>
0.0000

> <Gold.PLP.Chemscore.Metal>
0.0000

> <Gold.PLP.Chemscore.Internal.Correction>
   9.000000E+99

#       Name:                CT1002167954
#       Creating user name   hitesit
#       Creation time:       Sun Apr 16 22:50:29 2023


#       File generated by GOLD software.
#

@<TRIPOS>MOLECULE
CT1002167954|ligand_prepared|mol2|1|dock6
    29    30     1
SMALL
NO_CHARGES


@<TRIPOS>ATOM
      1 C1         128.3786 142.7494  98.4843 C.3            1 RES1               0.0000
      2 C2         126.9137 143.2129  98.6185 C.ar           1 RES1               0.0000
      3 C3         128.3295 141.3311  97.9237 C.2            1 RES1               0.0000
      4 C4         129.0627 143.7574  97.5674 C.2            1 RES1               0.0000
      5 C5         129.1504 142.7216  99.8241 C.3            1 RES1               0.0000
      6 C6         126.0691 143.2217  97.5125 C.ar           1 RES1               0.0000
      7 C7         126.3928 143.6313  99.8401 C.ar           1 RES1               0.0000
      8 N8         128.6824 141.1551  96.6182 N.am           1 RES1               0.0000
      9 O9         127.9490 140.3873  98.6055 O.2            1 RES1               0.0000
     10 N10        129.5048 143.3184  96.3469 N.am           1 RES1               0.0000
     11 O11        129.2081 144.9316  97.8841 O.2            1 RES1               0.0000
     12 C12        130.5939 142.2627  99.6907 C.3            1 RES1               0.0000
     13 C13        124.7507 143.6311  97.6241 C.ar           1 RES1               0.0000
     14 C14        125.0741 144.0405  99.9495 C.ar           1 RES1               0.0000
     15 C15        129.3182 142.0703  95.8182 C.2            1 RES1               0.0000
     16 C16        124.2521 144.0403  98.8426 C.ar           1 RES1               0.0000
     17 O17        129.6971 141.7666  94.6907 O.2            1 RES1               0.0000
     18 H18        129.1387 143.7285 100.2593 H              1 RES1               0.0000
     19 H19        128.6293 142.0504 100.5179 H              1 RES1               0.0000
     20 H20        126.4444 142.9055  96.5449 H              1 RES1               0.0000
     21 H21        127.0213 143.6408 100.7241 H              1 RES1               0.0000
     22 H22        128.4523 140.2603  96.1978 H              1 RES1               0.0000
     23 H23        130.0208 143.9837  95.7800 H              1 RES1               0.0000
     24 H24        131.0893 142.2616 100.6594 H              1 RES1               0.0000
     25 H25        130.6422 141.2546  99.2842 H              1 RES1               0.0000
     26 H26        131.1487 142.9228  99.0271 H              1 RES1               0.0000
     27 H27        124.1083 143.6304  96.7497 H              1 RES1               0.0000
     28 H28        124.6861 144.3623 100.9103 H              1 RES1               0.0000
     29 H29        123.2192 144.3605  98.9298 H              1 RES1               0.0000
@<TRIPOS>BOND
    1    1    2 1     
    2    1    3 1     
    3    1    4 1     
    4    1    5 1     
    5    2    6 ar    
    6    2    7 ar    
    7    3    8 1     
    8    3    9 2     
    9    4   10 1     
   10    4   11 2     
   11    5   12 1     
   12    5   18 1     
   13    5   19 1     
   14    6   13 ar    
   15    6   20 1     
   16    7   14 ar    
   17    7   21 1     
   18    8   15 1     
   19    8   22 1     
   20   10   15 1     
   21   10   23 1     
   22   12   24 1     
   23   12   25 1     
   24   12   26 1     
   25   13   16 ar    
   26   13   27 1     
   27   14   16 ar    
   28   14   28 1     
   29   15   17 2     
   30   16   29 1     
@<TRIPOS>SUBSTRUCTURE
      1 RES1           1
@<TRIPOS>SET
DONOR_HYDROGENS      STATIC     ATOMS    <user>   **** ""
2 22 23
ATOM$RED        STATIC     ATOMS    COLORGROUP SYSTEM
2 22 23
@<TRIPOS>COMMENT
> <Gold.Version>
2022.3.0

> <Gold.Id.Protein>
unknown|7rmh_clean|pdb

> <Gold.Protein.RotatedTorsions>
[ 6069 6060 6061 6062 ] final  -92.69 input   58.43 | X-H torsion
[ 6095 6088 6089 6090 ] final -173.09 input   80.40 | X-H torsion
[ 12696 12688 12689 12690 ] final  120.73 input   27.23 | X-H torsion
[ 12955 12944 12943 12942 ] final  135.43 input   60.02 | X-H torsion
[  140  121  122  123 ] final -113.16 input   59.99 | X-H torsion
[ 10534 10525 10526 10527 ] final  122.59 input   86.97 | X-H torsion
[ 12729 12724 12723 12720 ] final -167.10 input   60.00 | X-H torsion
[ 7603 7585 7586 7587 ] final   25.82 input   21.72 | X-H torsion
[ 14135 14126 14127 14128 ] final  132.60 input  100.92 | X-H torsion
[ 11478 11469 11468 11466 ] final -142.50 input   60.02 | X-H torsion
[ 14106 14097 14096 14094 ] final -108.48 input   60.00 | X-H torsion
[ 14257 14248 14247 14245 ] final   68.01 input   60.01 | X-H torsion
[ 12659 12654 12653 12650 ] final   64.65 input   60.00 | X-H torsion
[ 11470 11458 11459 11460 ] final -146.68 input   94.06 | X-H torsion
[ 4828 4821 4822 4823 ] final   15.41 input   91.76 | X-H torsion
[ 4831 4826 4825 4822 ] final   86.25 input   59.99 | X-H torsion
[ 13071 13062 13061 13059 ] final   17.38 input   60.03 | X-H torsion
[ 6490 6474 6475 6476 ] final -118.83 input  103.68 | X-H torsion
[ 13126 13119 13120 13121 ] final -105.35 input  114.72 | X-H torsion
[ 13129 13124 13123 13120 ] final  -12.51 input   59.98 | X-H torsion
[ 14703 6063 6062 6061 ] final   81.69 input    0.00 | X-H torsion
[ 14710 6091 6090 6089 ] final  126.79 input   -0.00 | X-H torsion
[ 14727  124  123  122 ] final  -52.96 input   -0.00 | X-H torsion
[ 14734 7588 7587 7586 ] final  -74.71 input    0.00 | X-H torsion
[ 14820 6477 6476 6475 ] final   85.31 input   -0.00 | X-H torsion

> <Gold.Protein.ActiveResidues>
 ASN23   THR86   GLU172  THR173  VAL200  LYS280  GLN24   PHE25   GLN27   MET81  
 PHE84   ASN85   VAL88   ASN89   TYR92   ALA93   VAL94   HIS95   ASN96   GLU97  
 TRP98   TYR100  CYS105  HIS108  ASN109  PRO112  ILE113  VAL116  PHE117  LEU161 
 ALA162  GLN165  SER169  THR170  MET174  PRO175  SER176  ARG177  VAL178  VAL179 
 CYS180  MET181  ILE182  GLU183  TRP184  LYS190  TYR196  HIS197  THR201  ILE204 
 TRP261  PHE264  HIS265  PHE267  PHE268  LEU269  PRO271  PRO275  LEU277  TYR278 
 LEU279  LYS281  PHE282  ILE283  GLN284  GLN285  VAL286  TYR287  LEU288  ILE290 
 MET291  ALA294  MET295 

> <Gold.Protein.RotatedAtoms>
  120.5126  149.3805   87.0196 H   0  0  0  0  0  0  0  0  0  0  0  0  # atno 140  bound_to 121 
  118.9405  148.9688   87.3439 H   0  0  0  0  0  0  0  0  0  0  0  0  # atno 141  bound_to 121 
  126.9574  147.1286  112.7646 H   0  0  0  0  0  0  0  0  0  0  0  0  # atno 4828 bound_to 4821
  126.8552  144.0924  114.4749 H   0  0  0  0  0  0  0  0  0  0  0  0  # atno 4831 bound_to 4826
  132.2735  157.6738   96.1673 H   0  0  0  0  0  0  0  0  0  0  0  0  # atno 6069 bound_to 6060
  130.4460  158.5038   93.6750 H   0  0  0  0  0  0  0  0  0  0  0  0  # atno 6095 bound_to 6088
  146.3008  138.9472  106.7873 H   0  0  0  0  0  0  0  0  0  0  0  0  # atno 6490 bound_to 6474
  125.3845  139.5352   91.5850 H   0  0  0  0  0  0  0  0  0  0  0  0  # atno 7603 bound_to 7585
  120.8092  146.8971   89.1110 H   0  0  0  0  0  0  0  0  0  0  0  0  # atno 10534 bound_to 10525
  123.0517  150.3789  105.0563 H   0  0  0  0  0  0  0  0  0  0  0  0  # atno 11470 bound_to 11458
  128.7425  149.0997   98.4231 H   0  0  0  0  0  0  0  0  0  0  0  0  # atno 11478 bound_to 11469
  135.6568  153.7480  101.8645 H   0  0  0  0  0  0  0  0  0  0  0  0  # atno 12659 bound_to 12654
  127.8697  156.5626   91.4070 H   0  0  0  0  0  0  0  0  0  0  0  0  # atno 12696 bound_to 12688
  119.5690  153.8352   89.2666 H   0  0  0  0  0  0  0  0  0  0  0  0  # atno 12729 bound_to 12724
  139.8540  143.2427   91.6271 H   0  0  0  0  0  0  0  0  0  0  0  0  # atno 12955 bound_to 12944
  139.9170  142.3803   90.2136 H   0  0  0  0  0  0  0  0  0  0  0  0  # atno 12956 bound_to 12944
  140.4780  141.7071   91.6205 H   0  0  0  0  0  0  0  0  0  0  0  0  # atno 12957 bound_to 12944
  143.3549  145.5498  107.2394 H   0  0  0  0  0  0  0  0  0  0  0  0  # atno 13071 bound_to 13062
  142.9627  137.8351  107.3709 H   0  0  0  0  0  0  0  0  0  0  0  0  # atno 13126 bound_to 13119
  141.1974  136.5068  105.5553 H   0  0  0  0  0  0  0  0  0  0  0  0  # atno 13129 bound_to 13124
  132.4170  139.4288   98.2736 H   0  0  0  0  0  0  0  0  0  0  0  0  # atno 14106 bound_to 14097
  121.0944  139.0853   91.6421 H   0  0  0  0  0  0  0  0  0  0  0  0  # atno 14135 bound_to 14126
  129.3032  144.2079  104.0150 H   0  0  0  0  0  0  0  0  0  0  0  0  # atno 14257 bound_to 14248
  132.2097  155.9568   95.8310 LP  0  0  0  0  0  0  0  0  0  0  0  0  # atno 14702 bound_to 6060
  129.3665  156.8373   95.1800 LP  0  0  0  0  0  0  0  0  0  0  0  0  # atno 14703 bound_to 6063
  129.4279  155.7090   93.8673 LP  0  0  0  0  0  0  0  0  0  0  0  0  # atno 14704 bound_to 6063
  130.9756  157.6814   92.2223 LP  0  0  0  0  0  0  0  0  0  0  0  0  # atno 14709 bound_to 6088
  129.9385  156.3192   89.8913 LP  0  0  0  0  0  0  0  0  0  0  0  0  # atno 14710 bound_to 6091
  130.3526  158.0011   89.8944 LP  0  0  0  0  0  0  0  0  0  0  0  0  # atno 14711 bound_to 6091
  119.4494  150.5204   87.5451 LP  0  0  0  0  0  0  0  0  0  0  0  0  # atno 14720 bound_to 121 
  117.7701  148.8794   90.3863 LP  0  0  0  0  0  0  0  0  0  0  0  0  # atno 14727 bound_to 124 
  117.4764  147.4829   89.4047 LP  0  0  0  0  0  0  0  0  0  0  0  0  # atno 14728 bound_to 124 
  120.5261  153.6617   90.5711 LP  0  0  0  0  0  0  0  0  0  0  0  0  # atno 14729 bound_to 12724
  121.1433  154.2361   89.1727 LP  0  0  0  0  0  0  0  0  0  0  0  0  # atno 14730 bound_to 12724
  125.1818  139.6680   89.8523 LP  0  0  0  0  0  0  0  0  0  0  0  0  # atno 14733 bound_to 7585
  124.3420  138.9968   93.6080 LP  0  0  0  0  0  0  0  0  0  0  0  0  # atno 14734 bound_to 7588
  123.6251  140.5633   93.4291 LP  0  0  0  0  0  0  0  0  0  0  0  0  # atno 14735 bound_to 7588
  129.3406  150.5364   98.8985 LP  0  0  0  0  0  0  0  0  0  0  0  0  # atno 14738 bound_to 11469
  127.9551  150.4704   98.0368 LP  0  0  0  0  0  0  0  0  0  0  0  0  # atno 14739 bound_to 11469
  133.8480  139.0971   97.5727 LP  0  0  0  0  0  0  0  0  0  0  0  0  # atno 14744 bound_to 14097
  132.7428  137.9128   97.7789 LP  0  0  0  0  0  0  0  0  0  0  0  0  # atno 14745 bound_to 14097
  129.1101  143.2819  105.3392 LP  0  0  0  0  0  0  0  0  0  0  0  0  # atno 14762 bound_to 14248
  127.9081  144.2733  104.8502 LP  0  0  0  0  0  0  0  0  0  0  0  0  # atno 14763 bound_to 14248
  136.2147  155.2424  102.1858 LP  0  0  0  0  0  0  0  0  0  0  0  0  # atno 14798 bound_to 12654
  135.7080  154.2779  103.4022 LP  0  0  0  0  0  0  0  0  0  0  0  0  # atno 14799 bound_to 12654
  127.8894  145.6578  112.8437 LP  0  0  0  0  0  0  0  0  0  0  0  0  # atno 14808 bound_to 4821
  126.8997  143.3440  113.0303 LP  0  0  0  0  0  0  0  0  0  0  0  0  # atno 14809 bound_to 4826
  125.8747  142.8248  114.1907 LP  0  0  0  0  0  0  0  0  0  0  0  0  # atno 14810 bound_to 4826
  142.2690  144.3704  106.9608 LP  0  0  0  0  0  0  0  0  0  0  0  0  # atno 14815 bound_to 13062
  142.1343  145.8060  106.1943 LP  0  0  0  0  0  0  0  0  0  0  0  0  # atno 14816 bound_to 13062
  142.1723  138.0871  109.3292 LP  0  0  0  0  0  0  0  0  0  0  0  0  # atno 14820 bound_to 6477
  143.5484  137.1002  109.6931 LP  0  0  0  0  0  0  0  0  0  0  0  0  # atno 14821 bound_to 6477
  144.9928  138.6047  105.6921 LP  0  0  0  0  0  0  0  0  0  0  0  0  # atno 14822 bound_to 6474
  140.8703  135.2002  104.6422 LP  0  0  0  0  0  0  0  0  0  0  0  0  # atno 14827 bound_to 13124
  142.1347  136.1643  104.2699 LP  0  0  0  0  0  0  0  0  0  0  0  0  # atno 14828 bound_to 13124

> <Gold.Score>
     Fitness  S(hb_ext) S(vdw_ext)  S(hb_int)    S(int)      intcor
     33.74       0.00      24.64       0.00      -0.14      -0.76

> <Gold.Goldscore.Fitness>
33.7423

> <Gold.Goldscore.Internal.Vdw>
-0.5278

> <Gold.Goldscore.Internal.Torsion>
-0.3670

> <Gold.Goldscore.External.Vdw>
24.6390

> <Gold.Goldscore.Internal.HBond>
0.0000

> <Gold.Goldscore.External.HBond>
0.0000

> <Gold.Goldscore.Internal.Correction>
-0.7585

> <Gold.Goldscore.Internal.Vdw.Weighted>
-0.5278

> <Gold.Goldscore.Internal.Torsion.Weighted>
-0.3670

> <Gold.Goldscore.External.Vdw.Weighted>
33.8786

> <Gold.Goldscore.Internal.HBond.Weighted>
0.0000

> <Gold.Goldscore.External.HBond.Weighted>
0.0000

> <Gold.Goldscore.Internal.Correction.Weighted>
-0.7585

> <Gold.Rescore>
     Score     S(PLP)   S(hbond)     S(cho)   S(metal)  DE(clash)   DE(tors)     intcor
     40.21     -40.58       0.00       0.00       0.00       0.00       0.18       ----

> <Gold.PLP.Fitness>
40.2128

> <Gold.PLP.PLP>
-40.5805

> <Gold.PLP.part.hbond>
0.0000

> <Gold.PLP.part.metal>
0.0000

> <Gold.PLP.part.buried>
-5.5117

> <Gold.PLP.part.nonpolar>
-37.1234

> <Gold.PLP.part.repulsive>
0.7963

> <Gold.PLP.ligand.clash>
0.0000

> <Gold.PLP.ligand.torsion>
0.1839

> <Gold.PLP.Chemscore.Hbond>
0.0000

> <Gold.PLP.Chemscore.CHOScore>
0.0000

> <Gold.PLP.Chemscore.Metal>
0.0000

> <Gold.PLP.Chemscore.Internal.Correction>
   9.000000E+99

#       Name:                CT1002167954
#       Creating user name   hitesit
#       Creation time:       Sun Apr 16 22:50:23 2023


#       File generated by GOLD software.
#

@<TRIPOS>MOLECULE
CT1002167954|ligand_prepared|mol2|1|dock1
    29    30     1
SMALL
NO_CHARGES


@<TRIPOS>ATOM
      1 C1         128.4351 142.7657  97.6726 C.3            1 RES1               0.0000
      2 C2         129.5316 142.5623  98.7380 C.ar           1 RES1               0.0000
      3 C3         128.7595 144.0805  96.9694 C.2            1 RES1               0.0000
      4 C4         128.4918 141.5433  96.7632 C.2            1 RES1               0.0000
      5 C5         127.0063 142.8607  98.2567 C.3            1 RES1               0.0000
      6 C6         129.3593 143.0424 100.0328 C.ar           1 RES1               0.0000
      7 C7         130.7175 141.8955  98.4422 C.ar           1 RES1               0.0000
      8 N8         129.2687 144.0124  95.7061 N.am           1 RES1               0.0000
      9 O9         128.6081 145.1591  97.5296 O.2            1 RES1               0.0000
     10 N10        128.8683 141.7302  95.4589 N.am           1 RES1               0.0000
     11 O11        128.2301 140.4175  97.1686 O.2            1 RES1               0.0000
     12 C12        125.9096 142.8194  97.2042 C.3            1 RES1               0.0000
     13 C13        130.3358 142.8599 100.9979 C.ar           1 RES1               0.0000
     14 C14        131.6929 141.7142  99.4088 C.ar           1 RES1               0.0000
     15 C15        129.2889 142.9048  94.8971 C.2            1 RES1               0.0000
     16 C16        131.5030 142.1954 100.6867 C.ar           1 RES1               0.0000
     17 O17        129.6640 142.9825  93.7307 O.2            1 RES1               0.0000
     18 H18        126.8552 142.0299  98.9570 H              1 RES1               0.0000
     19 H19        126.9176 143.7964  98.8225 H              1 RES1               0.0000
     20 H20        128.4484 143.5700 100.2956 H              1 RES1               0.0000
     21 H21        130.8891 141.5093  97.4432 H              1 RES1               0.0000
     22 H22        129.6719 144.8637  95.3279 H              1 RES1               0.0000
     23 H23        128.8313 140.9186  94.8505 H              1 RES1               0.0000
     24 H24        124.9277 142.8894  97.6674 H              1 RES1               0.0000
     25 H25        126.0144 143.6466  96.5053 H              1 RES1               0.0000
     26 H26        125.9523 141.8907  96.6390 H              1 RES1               0.0000
     27 H27        130.1821 143.2417 102.0018 H              1 RES1               0.0000
     28 H28        132.6102 141.1912  99.1593 H              1 RES1               0.0000
     29 H29        132.2677 142.0522 101.4430 H              1 RES1               0.0000
@<TRIPOS>BOND
    1    1    2 1     
    2    1    3 1     
    3    1    4 1     
    4    1    5 1     
    5    2    6 ar    
    6    2    7 ar    
    7    3    8 1     
    8    3    9 2     
    9    4   10 1     
   10    4   11 2     
   11    5   12 1     
   12    5   18 1     
   13    5   19 1     
   14    6   13 ar    
   15    6   20 1     
   16    7   14 ar    
   17    7   21 1     
   18    8   15 1     
   19    8   22 1     
   20   10   15 1     
   21   10   23 1     
   22   12   24 1     
   23   12   25 1     
   24   12   26 1     
   25   13   16 ar    
   26   13   27 1     
   27   14   16 ar    
   28   14   28 1     
   29   15   17 2     
   30   16   29 1     
@<TRIPOS>SUBSTRUCTURE
      1 RES1           1
@<TRIPOS>SET
DONOR_HYDROGENS      STATIC     ATOMS    <user>   **** ""
2 22 23
ATOM$RED        STATIC     ATOMS    COLORGROUP SYSTEM
2 22 23
@<TRIPOS>COMMENT
> <Gold.Version>
2022.3.0

> <Gold.Id.Protein>
unknown|7rmh_clean|pdb

> <Gold.Protein.RotatedTorsions>
[ 6069 6060 6061 6062 ] final   42.01 input   58.43 | X-H torsion
[ 6095 6088 6089 6090 ] final  117.74 input   80.40 | X-H torsion
[ 12696 12688 12689 12690 ] final   -7.82 input   27.23 | X-H torsion
[ 12955 12944 12943 12942 ] final   88.38 input   60.02 | X-H torsion
[  140  121  122  123 ] final   82.95 input   59.99 | X-H torsion
[ 10534 10525 10526 10527 ] final   37.78 input   86.97 | X-H torsion
[ 12729 12724 12723 12720 ] final    6.07 input   60.00 | X-H torsion
[ 7603 7585 7586 7587 ] final  -31.85 input   21.72 | X-H torsion
[ 14135 14126 14127 14128 ] final   52.94 input  100.92 | X-H torsion
[ 11478 11469 11468 11466 ] final  156.42 input   60.02 | X-H torsion
[ 14106 14097 14096 14094 ] final  -67.80 input   60.00 | X-H torsion
[ 14257 14248 14247 14245 ] final  105.89 input   60.01 | X-H torsion
[ 12659 12654 12653 12650 ] final -115.27 input   60.00 | X-H torsion
[ 11470 11458 11459 11460 ] final   -5.06 input   94.06 | X-H torsion
[ 4828 4821 4822 4823 ] final  -80.47 input   91.76 | X-H torsion
[ 4831 4826 4825 4822 ] final  108.11 input   59.99 | X-H torsion
[ 13071 13062 13061 13059 ] final  100.93 input   60.03 | X-H torsion
[ 6490 6474 6475 6476 ] final  129.12 input  103.68 | X-H torsion
[ 13126 13119 13120 13121 ] final -109.57 input  114.72 | X-H torsion
[ 13129 13124 13123 13120 ] final  -70.92 input   59.98 | X-H torsion
[ 14703 6063 6062 6061 ] final  123.41 input    0.00 | X-H torsion
[ 14710 6091 6090 6089 ] final   29.96 input   -0.00 | X-H torsion
[ 14727  124  123  122 ] final  115.38 input   -0.00 | X-H torsion
[ 14734 7588 7587 7586 ] final -103.87 input    0.00 | X-H torsion
[ 14820 6477 6476 6475 ] final  169.13 input   -0.00 | X-H torsion

> <Gold.Protein.ActiveResidues>
 ASN23   THR86   GLU172  THR173  VAL200  LYS280  GLN24   PHE25   GLN27   MET81  
 PHE84   ASN85   VAL88   ASN89   TYR92   ALA93   VAL94   HIS95   ASN96   GLU97  
 TRP98   TYR100  CYS105  HIS108  ASN109  PRO112  ILE113  VAL116  PHE117  LEU161 
 ALA162  GLN165  SER169  THR170  MET174  PRO175  SER176  ARG177  VAL178  VAL179 
 CYS180  MET181  ILE182  GLU183  TRP184  LYS190  TYR196  HIS197  THR201  ILE204 
 TRP261  PHE264  HIS265  PHE267  PHE268  LEU269  PRO271  PRO275  LEU277  TYR278 
 LEU279  LYS281  PHE282  ILE283  GLN284  GLN285  VAL286  TYR287  LEU288  ILE290 
 MET291  ALA294  MET295 

> <Gold.Protein.RotatedAtoms>
  118.8689  150.1166   87.6067 H   0  0  0  0  0  0  0  0  0  0  0  0  # atno 140  bound_to 121 
  120.4692  150.0764   87.1781 H   0  0  0  0  0  0  0  0  0  0  0  0  # atno 141  bound_to 121 
  127.7436  146.4421  111.9911 H   0  0  0  0  0  0  0  0  0  0  0  0  # atno 4828 bound_to 4821
  126.6139  143.9334  114.6812 H   0  0  0  0  0  0  0  0  0  0  0  0  # atno 4831 bound_to 4826
  131.5871  156.2002   95.9253 H   0  0  0  0  0  0  0  0  0  0  0  0  # atno 6069 bound_to 6060
  130.8190  158.9672   92.8561 H   0  0  0  0  0  0  0  0  0  0  0  0  # atno 6095 bound_to 6088
  145.3963  139.4830  105.8007 H   0  0  0  0  0  0  0  0  0  0  0  0  # atno 6490 bound_to 6474
  125.0583  140.2585   91.2614 H   0  0  0  0  0  0  0  0  0  0  0  0  # atno 7603 bound_to 7585
  120.8063  147.2066   90.2592 H   0  0  0  0  0  0  0  0  0  0  0  0  # atno 10534 bound_to 10525
  122.6860  148.7606  104.8305 H   0  0  0  0  0  0  0  0  0  0  0  0  # atno 11470 bound_to 11458
  129.4048  149.6149   98.8715 H   0  0  0  0  0  0  0  0  0  0  0  0  # atno 11478 bound_to 11469
  136.0659  155.0938  103.1004 H   0  0  0  0  0  0  0  0  0  0  0  0  # atno 12659 bound_to 12654
  126.8884  157.7895   90.9634 H   0  0  0  0  0  0  0  0  0  0  0  0  # atno 12696 bound_to 12688
  121.2880  154.0274   89.9742 H   0  0  0  0  0  0  0  0  0  0  0  0  # atno 12729 bound_to 12724
  140.1641  142.7039   92.0708 H   0  0  0  0  0  0  0  0  0  0  0  0  # atno 12955 bound_to 12944
  139.7059  143.0489   90.5162 H   0  0  0  0  0  0  0  0  0  0  0  0  # atno 12956 bound_to 12944
  140.3791  141.5772   90.8741 H   0  0  0  0  0  0  0  0  0  0  0  0  # atno 12957 bound_to 12944
  142.5983  146.0946  106.4110 H   0  0  0  0  0  0  0  0  0  0  0  0  # atno 13071 bound_to 13062
  142.9252  137.8436  107.3187 H   0  0  0  0  0  0  0  0  0  0  0  0  # atno 13126 bound_to 13119
  140.6770  135.7747  105.3893 H   0  0  0  0  0  0  0  0  0  0  0  0  # atno 13129 bound_to 13124
  132.1448  138.8376   98.2543 H   0  0  0  0  0  0  0  0  0  0  0  0  # atno 14106 bound_to 14097
  121.4773  138.0651   91.9503 H   0  0  0  0  0  0  0  0  0  0  0  0  # atno 14135 bound_to 14126
  128.7686  144.4963  103.9940 H   0  0  0  0  0  0  0  0  0  0  0  0  # atno 14257 bound_to 14248
  132.8728  157.3804   96.0648 LP  0  0  0  0  0  0  0  0  0  0  0  0  # atno 14702 bound_to 6060
  128.9488  156.9790   94.7489 LP  0  0  0  0  0  0  0  0  0  0  0  0  # atno 14703 bound_to 6063
  129.8456  155.5673   94.2985 LP  0  0  0  0  0  0  0  0  0  0  0  0  # atno 14704 bound_to 6063
  130.6160  157.2346   93.0119 LP  0  0  0  0  0  0  0  0  0  0  0  0  # atno 14709 bound_to 6088
  130.6544  157.1397   90.5933 LP  0  0  0  0  0  0  0  0  0  0  0  0  # atno 14710 bound_to 6091
  129.6367  157.1806   89.1924 LP  0  0  0  0  0  0  0  0  0  0  0  0  # atno 14711 bound_to 6091
  119.5635  148.7037   87.1298 LP  0  0  0  0  0  0  0  0  0  0  0  0  # atno 14720 bound_to 121 
  117.4574  147.6002   89.2750 LP  0  0  0  0  0  0  0  0  0  0  0  0  # atno 14727 bound_to 124 
  117.7891  148.7621   90.5160 LP  0  0  0  0  0  0  0  0  0  0  0  0  # atno 14728 bound_to 124 
  120.1880  154.1293   88.7794 LP  0  0  0  0  0  0  0  0  0  0  0  0  # atno 14729 bound_to 12724
  119.7497  153.5749   90.2516 LP  0  0  0  0  0  0  0  0  0  0  0  0  # atno 14730 bound_to 12724
  125.4980  138.9670   90.1660 LP  0  0  0  0  0  0  0  0  0  0  0  0  # atno 14733 bound_to 7585
  124.0074  138.9969   93.8875 LP  0  0  0  0  0  0  0  0  0  0  0  0  # atno 14734 bound_to 7588
  123.9598  140.5632   93.1495 LP  0  0  0  0  0  0  0  0  0  0  0  0  # atno 14735 bound_to 7588
  128.6007  150.9726   98.4739 LP  0  0  0  0  0  0  0  0  0  0  0  0  # atno 14738 bound_to 11469
  128.0280  149.5154   98.0098 LP  0  0  0  0  0  0  0  0  0  0  0  0  # atno 14739 bound_to 11469
  133.5198  139.6006   97.8342 LP  0  0  0  0  0  0  0  0  0  0  0  0  # atno 14744 bound_to 14097
  133.3450  138.0044   97.5369 LP  0  0  0  0  0  0  0  0  0  0  0  0  # atno 14745 bound_to 14097
  129.5358  143.3951  104.9143 LP  0  0  0  0  0  0  0  0  0  0  0  0  # atno 14762 bound_to 14248
  128.0207  143.8697  105.2963 LP  0  0  0  0  0  0  0  0  0  0  0  0  # atno 14763 bound_to 14248
  135.5023  153.6011  102.7807 LP  0  0  0  0  0  0  0  0  0  0  0  0  # atno 14798 bound_to 12654
  136.0085  154.5640  101.5629 LP  0  0  0  0  0  0  0  0  0  0  0  0  # atno 14799 bound_to 12654
  127.1093  146.3390  113.6113 LP  0  0  0  0  0  0  0  0  0  0  0  0  # atno 14808 bound_to 4821
  127.0857  143.6226  113.1550 LP  0  0  0  0  0  0  0  0  0  0  0  0  # atno 14809 bound_to 4826
  125.9315  142.7062  113.8583 LP  0  0  0  0  0  0  0  0  0  0  0  0  # atno 14810 bound_to 4826
  143.2541  144.9997  107.4204 LP  0  0  0  0  0  0  0  0  0  0  0  0  # atno 14815 bound_to 13062
  141.9111  144.6281  106.5690 LP  0  0  0  0  0  0  0  0  0  0  0  0  # atno 14816 bound_to 13062
  142.3673  136.9543  109.1980 LP  0  0  0  0  0  0  0  0  0  0  0  0  # atno 14820 bound_to 6477
  143.3535  138.2330  109.8243 LP  0  0  0  0  0  0  0  0  0  0  0  0  # atno 14821 bound_to 6477
  145.8986  138.0681  106.6802 LP  0  0  0  0  0  0  0  0  0  0  0  0  # atno 14822 bound_to 6474
  141.5847  135.3906  104.0945 LP  0  0  0  0  0  0  0  0  0  0  0  0  # atno 14827 bound_to 13124
  141.9446  136.7114  104.9847 LP  0  0  0  0  0  0  0  0  0  0  0  0  # atno 14828 bound_to 13124

> <Gold.Score>
     Fitness  S(hb_ext) S(vdw_ext)  S(hb_int)    S(int)      intcor
     32.06       0.00      23.80       0.00      -0.66      -0.78

> <Gold.Goldscore.Fitness>
32.0557

> <Gold.Goldscore.Internal.Vdw>
-0.9283

> <Gold.Goldscore.Internal.Torsion>
-0.5195

> <Gold.Goldscore.External.Vdw>
23.7962

> <Gold.Goldscore.Internal.HBond>
0.0000

> <Gold.Goldscore.External.HBond>
0.0000

> <Gold.Goldscore.Internal.Correction>
-0.7838

> <Gold.Goldscore.Internal.Vdw.Weighted>
-0.9283

> <Gold.Goldscore.Internal.Torsion.Weighted>
-0.5195

> <Gold.Goldscore.External.Vdw.Weighted>
32.7198

> <Gold.Goldscore.Internal.HBond.Weighted>
0.0000

> <Gold.Goldscore.External.HBond.Weighted>
0.0000

> <Gold.Goldscore.Internal.Correction.Weighted>
-0.7838

> <Gold.Rescore>
     Score     S(PLP)   S(hbond)     S(cho)   S(metal)  DE(clash)   DE(tors)     intcor
     37.16     -38.65       0.09       0.00       0.00       0.11       0.82       ----

> <Gold.PLP.Fitness>
37.1637

> <Gold.PLP.PLP>
-38.6510

> <Gold.PLP.part.hbond>
-0.6685

> <Gold.PLP.part.metal>
0.0000

> <Gold.PLP.part.buried>
-4.1836

> <Gold.PLP.part.nonpolar>
-34.7424

> <Gold.PLP.part.repulsive>
0.2084

> <Gold.PLP.ligand.clash>
0.1119

> <Gold.PLP.ligand.torsion>
0.8246

> <Gold.PLP.Chemscore.Hbond>
0.0913

> <Gold.PLP.Chemscore.CHOScore>
0.0000

> <Gold.PLP.Chemscore.Metal>
0.0000

> <Gold.PLP.Chemscore.Internal.Correction>
   9.000000E+99

#       Name:                CT1002167954
#       Creating user name   hitesit
#       Creation time:       Sun Apr 16 22:50:26 2023


#       File generated by GOLD software.
#

@<TRIPOS>MOLECULE
CT1002167954|ligand_prepared|mol2|1|dock3
    29    30     1
SMALL
NO_CHARGES


@<TRIPOS>ATOM
      1 C1         128.4963 144.3096  99.3444 C.3            1 RES1               0.0000
      2 C2         128.5745 143.1005  98.3901 C.ar           1 RES1               0.0000
      3 C3         129.6428 144.1460 100.3380 C.2            1 RES1               0.0000
      4 C4         128.6052 145.5525  98.4680 C.2            1 RES1               0.0000
      5 C5         127.1700 144.3970 100.1348 C.3            1 RES1               0.0000
      6 C6         127.9195 141.9117  98.6974 C.ar           1 RES1               0.0000
      7 C7         129.2942 143.1595  97.1996 C.ar           1 RES1               0.0000
      8 N8         130.7228 144.9668 100.1972 N.am           1 RES1               0.0000
      9 O9         129.6169 143.2835 101.2072 O.2            1 RES1               0.0000
     10 N10        129.7118 146.3471  98.6153 N.am           1 RES1               0.0000
     11 O11        127.7506 145.8419  97.6396 O.2            1 RES1               0.0000
     12 C12        126.9673 145.7248 100.8475 C.3            1 RES1               0.0000
     13 C13        127.9793 140.8223  97.8442 C.ar           1 RES1               0.0000
     14 C14        129.3529 142.0688  96.3479 C.ar           1 RES1               0.0000
     15 C15        130.7903 146.0941  99.4185 C.2            1 RES1               0.0000
     16 C16        128.6956 140.9002  96.6688 C.ar           1 RES1               0.0000
     17 O17        131.7732 146.8286  99.4561 O.2            1 RES1               0.0000
     18 H18        126.3348 144.2371  99.4418 H              1 RES1               0.0000
     19 H19        127.1481 143.5905 100.8781 H              1 RES1               0.0000
     20 H20        127.3529 141.8309  99.6191 H              1 RES1               0.0000
     21 H21        129.8201 144.0682  96.9272 H              1 RES1               0.0000
     22 H22        131.5574 144.7196 100.7193 H              1 RES1               0.0000
     23 H23        129.7336 147.2070  98.0763 H              1 RES1               0.0000
     24 H24        126.0222 145.7330 101.3864 H              1 RES1               0.0000
     25 H25        127.7670 145.9046 101.5631 H              1 RES1               0.0000
     26 H26        126.9585 146.5474 100.1353 H              1 RES1               0.0000
     27 H27        127.4613 139.9044  98.1020 H              1 RES1               0.0000
     28 H28        129.9184 142.1344  95.4242 H              1 RES1               0.0000
     29 H29        128.7419 140.0468  96.0004 H              1 RES1               0.0000
@<TRIPOS>BOND
    1    1    2 1     
    2    1    3 1     
    3    1    4 1     
    4    1    5 1     
    5    2    6 ar    
    6    2    7 ar    
    7    3    8 1     
    8    3    9 2     
    9    4   10 1     
   10    4   11 2     
   11    5   12 1     
   12    5   18 1     
   13    5   19 1     
   14    6   13 ar    
   15    6   20 1     
   16    7   14 ar    
   17    7   21 1     
   18    8   15 1     
   19    8   22 1     
   20   10   15 1     
   21   10   23 1     
   22   12   24 1     
   23   12   25 1     
   24   12   26 1     
   25   13   16 ar    
   26   13   27 1     
   27   14   16 ar    
   28   14   28 1     
   29   15   17 2     
   30   16   29 1     
@<TRIPOS>SUBSTRUCTURE
      1 RES1           1
@<TRIPOS>SET
DONOR_HYDROGENS      STATIC     ATOMS    <user>   **** ""
2 22 23
ATOM$RED        STATIC     ATOMS    COLORGROUP SYSTEM
2 22 23
@<TRIPOS>COMMENT
> <Gold.Version>
2022.3.0

> <Gold.Id.Protein>
unknown|7rmh_clean|pdb

> <Gold.Protein.RotatedTorsions>
[ 6069 6060 6061 6062 ] final  168.69 input   58.43 | X-H torsion
[ 6095 6088 6089 6090 ] final  136.74 input   80.40 | X-H torsion
[ 12696 12688 12689 12690 ] final   -5.06 input   27.23 | X-H torsion
[ 12955 12944 12943 12942 ] final   76.02 input   60.02 | X-H torsion
[  140  121  122  123 ] final  -29.94 input   59.99 | X-H torsion
[ 10534 10525 10526 10527 ] final  -47.95 input   86.97 | X-H torsion
[ 12729 12724 12723 12720 ] final    5.39 input   60.00 | X-H torsion
[ 7603 7585 7586 7587 ] final   71.86 input   21.72 | X-H torsion
[ 14135 14126 14127 14128 ] final  137.05 input  100.92 | X-H torsion
[ 11478 11469 11468 11466 ] final    1.96 input   60.02 | X-H torsion
[ 14106 14097 14096 14094 ] final  -72.07 input   60.00 | X-H torsion
[ 14257 14248 14247 14245 ] final   86.88 input   60.01 | X-H torsion
[ 12659 12654 12653 12650 ] final   31.87 input   60.00 | X-H torsion
[ 11470 11458 11459 11460 ] final    5.68 input   94.06 | X-H torsion
[ 4828 4821 4822 4823 ] final  168.61 input   91.76 | X-H torsion
[ 4831 4826 4825 4822 ] final   30.08 input   59.99 | X-H torsion
[ 13071 13062 13061 13059 ] final -103.19 input   60.03 | X-H torsion
[ 6490 6474 6475 6476 ] final  -29.00 input  103.68 | X-H torsion
[ 13126 13119 13120 13121 ] final    2.95 input  114.72 | X-H torsion
[ 13129 13124 13123 13120 ] final  -10.41 input   59.98 | X-H torsion
[ 14703 6063 6062 6061 ] final  122.92 input    0.00 | X-H torsion
[ 14710 6091 6090 6089 ] final   52.60 input   -0.00 | X-H torsion
[ 14727  124  123  122 ] final  -68.93 input   -0.00 | X-H torsion
[ 14734 7588 7587 7586 ] final   -7.54 input    0.00 | X-H torsion
[ 14820 6477 6476 6475 ] final  123.44 input   -0.00 | X-H torsion

> <Gold.Protein.ActiveResidues>
 ASN23   THR86   GLU172  THR173  VAL200  LYS280  GLN24   PHE25   GLN27   MET81  
 PHE84   ASN85   VAL88   ASN89   TYR92   ALA93   VAL94   HIS95   ASN96   GLU97  
 TRP98   TYR100  CYS105  HIS108  ASN109  PRO112  ILE113  VAL116  PHE117  LEU161 
 ALA162  GLN165  SER169  THR170  MET174  PRO175  SER176  ARG177  VAL178  VAL179 
 CYS180  MET181  ILE182  GLU183  TRP184  LYS190  TYR196  HIS197  THR201  ILE204 
 TRP261  PHE264  HIS265  PHE267  PHE268  LEU269  PRO271  PRO275  LEU277  TYR278 
 LEU279  LYS281  PHE282  ILE283  GLN284  GLN285  VAL286  TYR287  LEU288  ILE290 
 MET291  ALA294  MET295 

> <Gold.Protein.RotatedAtoms>
  119.4475  148.7013   87.1547 H   0  0  0  0  0  0  0  0  0  0  0  0  # atno 140  bound_to 121 
  118.9392  150.2121   87.6080 H   0  0  0  0  0  0  0  0  0  0  0  0  # atno 141  bound_to 121 
  127.7375  145.6853  113.2175 H   0  0  0  0  0  0  0  0  0  0  0  0  # atno 4828 bound_to 4821
  127.2049  144.0430  113.6669 H   0  0  0  0  0  0  0  0  0  0  0  0  # atno 4831 bound_to 4826
  133.1100  156.6586   95.8628 H   0  0  0  0  0  0  0  0  0  0  0  0  # atno 6069 bound_to 6060
  130.7088  158.9556   93.1287 H   0  0  0  0  0  0  0  0  0  0  0  0  # atno 6095 bound_to 6088
  145.6811  137.9374  106.4667 H   0  0  0  0  0  0  0  0  0  0  0  0  # atno 6490 bound_to 6474
  125.5840  138.9639   91.2435 H   0  0  0  0  0  0  0  0  0  0  0  0  # atno 7603 bound_to 7585
  119.7568  147.7850   90.2031 H   0  0  0  0  0  0  0  0  0  0  0  0  # atno 10534 bound_to 10525
  122.8160  148.6811  104.8960 H   0  0  0  0  0  0  0  0  0  0  0  0  # atno 11470 bound_to 11458
  128.1650  150.7707   98.1922 H   0  0  0  0  0  0  0  0  0  0  0  0  # atno 11478 bound_to 11469
  135.8467  154.1546  101.5854 H   0  0  0  0  0  0  0  0  0  0  0  0  # atno 12659 bound_to 12654
  126.8713  157.7586   90.9891 H   0  0  0  0  0  0  0  0  0  0  0  0  # atno 12696 bound_to 12688
  121.2909  154.0311   89.9642 H   0  0  0  0  0  0  0  0  0  0  0  0  # atno 12729 bound_to 12724
  140.2454  142.5159   92.0939 H   0  0  0  0  0  0  0  0  0  0  0  0  # atno 12955 bound_to 12944
  139.6880  143.1741   90.6789 H   0  0  0  0  0  0  0  0  0  0  0  0  # atno 12956 bound_to 12944
  140.3156  141.6400   90.6883 H   0  0  0  0  0  0  0  0  0  0  0  0  # atno 12957 bound_to 12944
  142.2656  144.3772  106.9517 H   0  0  0  0  0  0  0  0  0  0  0  0  # atno 13071 bound_to 13062
  144.2403  137.1936  107.3339 H   0  0  0  0  0  0  0  0  0  0  0  0  # atno 13126 bound_to 13119
  141.2242  136.5268  105.5470 H   0  0  0  0  0  0  0  0  0  0  0  0  # atno 13129 bound_to 13124
  132.1546  138.9058   98.2659 H   0  0  0  0  0  0  0  0  0  0  0  0  # atno 14106 bound_to 14097
  121.1159  139.1504   91.6437 H   0  0  0  0  0  0  0  0  0  0  0  0  # atno 14135 bound_to 14126
  129.0519  144.3763  103.9629 H   0  0  0  0  0  0  0  0  0  0  0  0  # atno 14257 bound_to 14248
  131.4016  156.9376   96.1252 LP  0  0  0  0  0  0  0  0  0  0  0  0  # atno 14702 bound_to 6060
  128.9527  156.9794   94.7552 LP  0  0  0  0  0  0  0  0  0  0  0  0  # atno 14703 bound_to 6063
  129.8416  155.5668   94.2922 LP  0  0  0  0  0  0  0  0  0  0  0  0  # atno 14704 bound_to 6063
  130.7223  157.2459   92.7490 LP  0  0  0  0  0  0  0  0  0  0  0  0  # atno 14709 bound_to 6088
  130.5584  156.8144   90.5711 LP  0  0  0  0  0  0  0  0  0  0  0  0  # atno 14710 bound_to 6091
  129.7326  157.5059   89.2146 LP  0  0  0  0  0  0  0  0  0  0  0  0  # atno 14711 bound_to 6091
  120.5005  149.9650   87.1518 LP  0  0  0  0  0  0  0  0  0  0  0  0  # atno 14720 bound_to 121 
  117.7944  148.7123   90.5578 LP  0  0  0  0  0  0  0  0  0  0  0  0  # atno 14727 bound_to 124 
  117.4521  147.6500   89.2332 LP  0  0  0  0  0  0  0  0  0  0  0  0  # atno 14728 bound_to 124 
  120.1775  154.1262   88.7814 LP  0  0  0  0  0  0  0  0  0  0  0  0  # atno 14729 bound_to 12724
  119.7573  153.5743   90.2597 LP  0  0  0  0  0  0  0  0  0  0  0  0  # atno 14730 bound_to 12724
  124.9884  140.2218   90.1833 LP  0  0  0  0  0  0  0  0  0  0  0  0  # atno 14733 bound_to 7585
  124.6697  139.6637   93.0030 LP  0  0  0  0  0  0  0  0  0  0  0  0  # atno 14734 bound_to 7588
  123.2975  139.8964   94.0340 LP  0  0  0  0  0  0  0  0  0  0  0  0  # atno 14735 bound_to 7588
  128.4073  149.1618   98.2176 LP  0  0  0  0  0  0  0  0  0  0  0  0  # atno 14738 bound_to 11469
  129.4699  150.1621   98.9503 LP  0  0  0  0  0  0  0  0  0  0  0  0  # atno 14739 bound_to 11469
  133.5702  139.5626   97.8032 LP  0  0  0  0  0  0  0  0  0  0  0  0  # atno 14744 bound_to 14097
  133.2847  137.9738   97.5561 LP  0  0  0  0  0  0  0  0  0  0  0  0  # atno 14745 bound_to 14097
  129.3535  143.3049  105.1501 LP  0  0  0  0  0  0  0  0  0  0  0  0  # atno 14762 bound_to 14248
  127.9178  144.0808  105.0919 LP  0  0  0  0  0  0  0  0  0  0  0  0  # atno 14763 bound_to 14248
  136.1753  155.2785  102.7153 LP  0  0  0  0  0  0  0  0  0  0  0  0  # atno 14798 bound_to 12654
  135.5563  153.8324  103.1537 LP  0  0  0  0  0  0  0  0  0  0  0  0  # atno 14799 bound_to 12654
  127.1153  147.0900  112.3943 LP  0  0  0  0  0  0  0  0  0  0  0  0  # atno 14808 bound_to 4821
  126.2701  142.7690  113.2773 LP  0  0  0  0  0  0  0  0  0  0  0  0  # atno 14809 bound_to 4826
  126.1522  143.4495  114.7570 LP  0  0  0  0  0  0  0  0  0  0  0  0  # atno 14810 bound_to 4826
  142.1406  145.8128  106.1960 LP  0  0  0  0  0  0  0  0  0  0  0  0  # atno 14815 bound_to 13062
  143.3596  145.5445  107.2489 LP  0  0  0  0  0  0  0  0  0  0  0  0  # atno 14816 bound_to 13062
  142.0589  137.5517  109.1857 LP  0  0  0  0  0  0  0  0  0  0  0  0  # atno 14820 bound_to 6477
  143.6618  137.6357  109.8366 LP  0  0  0  0  0  0  0  0  0  0  0  0  # atno 14821 bound_to 6477
  145.6134  139.6160  106.0132 LP  0  0  0  0  0  0  0  0  0  0  0  0  # atno 14822 bound_to 6474
  140.8507  135.2081  104.6696 LP  0  0  0  0  0  0  0  0  0  0  0  0  # atno 14827 bound_to 13124
  142.1273  136.1364  104.2508 LP  0  0  0  0  0  0  0  0  0  0  0  0  # atno 14828 bound_to 13124

> <Gold.Score>
     Fitness  S(hb_ext) S(vdw_ext)  S(hb_int)    S(int)      intcor
     31.65       0.16      23.37       0.00      -0.64      -0.77

> <Gold.Goldscore.Fitness>
31.6543

> <Gold.Goldscore.Internal.Vdw>
-0.8254

> <Gold.Goldscore.Internal.Torsion>
-0.5905

> <Gold.Goldscore.External.Vdw>
23.3706

> <Gold.Goldscore.Internal.HBond>
0.0000

> <Gold.Goldscore.External.HBond>
0.1625

> <Gold.Goldscore.Internal.Correction>
-0.7731

> <Gold.Goldscore.Hbonds>
donor molecule, donor type, donor heavy atom, donor atom, acceptor molecule, acceptor atom, score
      P1  H 11529 11534       L1    11  0.08

> <Gold.Goldscore.Internal.Vdw.Weighted>
-0.8254

> <Gold.Goldscore.Internal.Torsion.Weighted>
-0.5905

> <Gold.Goldscore.External.Vdw.Weighted>
32.1346

> <Gold.Goldscore.Internal.HBond.Weighted>
0.0000

> <Gold.Goldscore.External.HBond.Weighted>
0.1625

> <Gold.Goldscore.Internal.Correction.Weighted>
-0.7731

> <Gold.Rescore>
     Score     S(PLP)   S(hbond)     S(cho)   S(metal)  DE(clash)   DE(tors)     intcor
     36.67     -36.77       0.58       0.00       0.00       0.00       0.92       ----

> <Gold.PLP.Fitness>
36.6657

> <Gold.PLP.PLP>
-36.7749

> <Gold.PLP.part.hbond>
-0.4813

> <Gold.PLP.part.metal>
0.0000

> <Gold.PLP.part.buried>
-2.6873

> <Gold.PLP.part.nonpolar>
-34.7233

> <Gold.PLP.part.repulsive>
0.1716

> <Gold.PLP.ligand.clash>
0.0000

> <Gold.PLP.ligand.torsion>
0.9186

> <Gold.PLP.Chemscore.Hbond>
0.5760

> <Gold.PLP.Chemscore.CHOScore>
0.0000

> <Gold.PLP.Chemscore.Metal>
0.0000

> <Gold.Chemscore.Hbonds>
donor molecule, donor type, donor heavy atom, donor atom, acceptor molecule, acceptor atom, score
      P1  H 11529 11534       L1    11  0.70

> <Gold.PLP.Chemscore.Internal.Correction>
   9.000000E+99

#       Name:                CT1002167954
#       Creating user name   hitesit
#       Creation time:       Sun Apr 16 22:50:27 2023


#       File generated by GOLD software.
#

@<TRIPOS>MOLECULE
CT1002167954|ligand_prepared|mol2|1|dock4
    29    30     1
SMALL
NO_CHARGES


@<TRIPOS>ATOM
      1 C1         133.7802 145.1674 106.0314 C.3            1 RES1               0.0000
      2 C2         134.8103 144.0233 106.1249 C.ar           1 RES1               0.0000
      3 C3         134.2270 146.0524 104.8715 C.2            1 RES1               0.0000
      4 C4         132.4237 144.5040 105.8210 C.2            1 RES1               0.0000
      5 C5         133.6942 146.0366 107.3076 C.3            1 RES1               0.0000
      6 C6         135.3578 143.4669 104.9728 C.ar           1 RES1               0.0000
      7 C7         135.2240 143.5165 107.3539 C.ar           1 RES1               0.0000
      8 N8         133.5087 145.9874 103.7140 N.am           1 RES1               0.0000
      9 O9         135.2181 146.7670 104.9578 O.2            1 RES1               0.0000
     10 N10        131.7829 144.7166 104.6286 N.am           1 RES1               0.0000
     11 O11        131.9115 143.7856 106.6706 O.2            1 RES1               0.0000
     12 C12        132.9391 147.3417 107.1108 C.3            1 RES1               0.0000
     13 C13        136.2875 142.4429 105.0467 C.ar           1 RES1               0.0000
     14 C14        136.1537 142.4923 107.4256 C.ar           1 RES1               0.0000
     15 C15        132.2780 145.4033 103.5536 C.2            1 RES1               0.0000
     16 C16        136.6864 141.9552 106.2729 C.ar           1 RES1               0.0000
     17 O17        131.6648 145.5052 102.4949 O.2            1 RES1               0.0000
     18 H18        133.1988 145.4574 108.0965 H              1 RES1               0.0000
     19 H19        134.7116 146.2653 107.6483 H              1 RES1               0.0000
     20 H20        135.0542 143.8360 103.9988 H              1 RES1               0.0000
     21 H21        134.8176 143.9230 108.2738 H              1 RES1               0.0000
     22 H22        133.9252 146.4124 102.8916 H              1 RES1               0.0000
     23 H23        130.8504 144.3271 104.5335 H              1 RES1               0.0000
     24 H24        132.9084 147.9128 108.0364 H              1 RES1               0.0000
     25 H25        133.4191 147.9542 106.3504 H              1 RES1               0.0000
     26 H26        131.9152 147.1511 106.7960 H              1 RES1               0.0000
     27 H27        136.7027 142.0227 104.1366 H              1 RES1               0.0000
     28 H28        136.4643 142.1111 108.3928 H              1 RES1               0.0000
     29 H29        137.4150 141.1533 106.3306 H              1 RES1               0.0000
@<TRIPOS>BOND
    1    1    2 1     
    2    1    3 1     
    3    1    4 1     
    4    1    5 1     
    5    2    6 ar    
    6    2    7 ar    
    7    3    8 1     
    8    3    9 2     
    9    4   10 1     
   10    4   11 2     
   11    5   12 1     
   12    5   18 1     
   13    5   19 1     
   14    6   13 ar    
   15    6   20 1     
   16    7   14 ar    
   17    7   21 1     
   18    8   15 1     
   19    8   22 1     
   20   10   15 1     
   21   10   23 1     
   22   12   24 1     
   23   12   25 1     
   24   12   26 1     
   25   13   16 ar    
   26   13   27 1     
   27   14   16 ar    
   28   14   28 1     
   29   15   17 2     
   30   16   29 1     
@<TRIPOS>SUBSTRUCTURE
      1 RES1           1
@<TRIPOS>SET
DONOR_HYDROGENS      STATIC     ATOMS    <user>   **** ""
2 22 23
ATOM$RED        STATIC     ATOMS    COLORGROUP SYSTEM
2 22 23
@<TRIPOS>COMMENT
> <Gold.Version>
2022.3.0

> <Gold.Id.Protein>
unknown|7rmh_clean|pdb

> <Gold.Protein.RotatedTorsions>
[ 6069 6060 6061 6062 ] final -128.50 input   58.43 | X-H torsion
[ 6095 6088 6089 6090 ] final -105.26 input   80.40 | X-H torsion
[ 12696 12688 12689 12690 ] final  -92.20 input   27.23 | X-H torsion
[ 12955 12944 12943 12942 ] final   33.82 input   60.02 | X-H torsion
[  140  121  122  123 ] final  120.37 input   59.99 | X-H torsion
[ 10534 10525 10526 10527 ] final  -57.47 input   86.97 | X-H torsion
[ 12729 12724 12723 12720 ] final   70.51 input   60.00 | X-H torsion
[ 7603 7585 7586 7587 ] final  -23.50 input   21.72 | X-H torsion
[ 14135 14126 14127 14128 ] final  -70.38 input  100.92 | X-H torsion
[ 11478 11469 11468 11466 ] final -109.76 input   60.02 | X-H torsion
[ 14106 14097 14096 14094 ] final  -21.74 input   60.00 | X-H torsion
[ 14257 14248 14247 14245 ] final  -63.31 input   60.01 | X-H torsion
[ 12659 12654 12653 12650 ] final -100.77 input   60.00 | X-H torsion
[ 11470 11458 11459 11460 ] final -157.93 input   94.06 | X-H torsion
[ 4828 4821 4822 4823 ] final  116.58 input   91.76 | X-H torsion
[ 4831 4826 4825 4822 ] final   18.96 input   59.99 | X-H torsion
[ 13071 13062 13061 13059 ] final  176.05 input   60.03 | X-H torsion
[ 6490 6474 6475 6476 ] final   53.99 input  103.68 | X-H torsion
[ 13126 13119 13120 13121 ] final  -86.35 input  114.72 | X-H torsion
[ 13129 13124 13123 13120 ] final  -43.83 input   59.98 | X-H torsion
[ 14703 6063 6062 6061 ] final  117.65 input    0.00 | X-H torsion
[ 14710 6091 6090 6089 ] final -120.53 input   -0.00 | X-H torsion
[ 14727  124  123  122 ] final   53.62 input   -0.00 | X-H torsion
[ 14734 7588 7587 7586 ] final  118.09 input    0.00 | X-H torsion
[ 14820 6477 6476 6475 ] final  147.16 input   -0.00 | X-H torsion

> <Gold.Protein.ActiveResidues>
 ASN23   THR86   GLU172  THR173  VAL200  LYS280  GLN24   PHE25   GLN27   MET81  
 PHE84   ASN85   VAL88   ASN89   TYR92   ALA93   VAL94   HIS95   ASN96   GLU97  
 TRP98   TYR100  CYS105  HIS108  ASN109  PRO112  ILE113  VAL116  PHE117  LEU161 
 ALA162  GLN165  SER169  THR170  MET174  PRO175  SER176  ARG177  VAL178  VAL179 
 CYS180  MET181  ILE182  GLU183  TRP184  LYS190  TYR196  HIS197  THR201  ILE204 
 TRP261  PHE264  HIS265  PHE267  PHE268  LEU269  PRO271  PRO275  LEU277  TYR278 
 LEU279  LYS281  PHE282  ILE283  GLN284  GLN285  VAL286  TYR287  LEU288  ILE290 
 MET291  ALA294  MET295 

> <Gold.Protein.RotatedAtoms>
  119.3446  150.5019   87.5637 H   0  0  0  0  0  0  0  0  0  0  0  0  # atno 140  bound_to 121 
  120.5401  149.4839   87.0339 H   0  0  0  0  0  0  0  0  0  0  0  0  # atno 141  bound_to 121 
  127.2657  146.1327  113.6251 H   0  0  0  0  0  0  0  0  0  0  0  0  # atno 4828 bound_to 4821
  127.2055  143.9561  113.5077 H   0  0  0  0  0  0  0  0  0  0  0  0  # atno 4831 bound_to 4826
  132.7850  157.5010   96.0767 H   0  0  0  0  0  0  0  0  0  0  0  0  # atno 6069 bound_to 6060
  130.4010  157.5182   93.5475 H   0  0  0  0  0  0  0  0  0  0  0  0  # atno 6095 bound_to 6088
  145.0222  138.4960  105.7046 H   0  0  0  0  0  0  0  0  0  0  0  0  # atno 6490 bound_to 6474
  125.0994  140.1799   91.3555 H   0  0  0  0  0  0  0  0  0  0  0  0  # atno 7603 bound_to 7585
  119.6630  147.8086   90.0934 H   0  0  0  0  0  0  0  0  0  0  0  0  # atno 10534 bound_to 10525
  123.2061  150.3750  105.1362 H   0  0  0  0  0  0  0  0  0  0  0  0  # atno 11470 bound_to 11458
  128.3027  149.2275   98.1609 H   0  0  0  0  0  0  0  0  0  0  0  0  # atno 11478 bound_to 11469
  136.1320  155.2106  102.9060 H   0  0  0  0  0  0  0  0  0  0  0  0  # atno 12659 bound_to 12654
  127.9684  158.0073   90.4463 H   0  0  0  0  0  0  0  0  0  0  0  0  # atno 12696 bound_to 12688
  120.5624  153.6750   90.5622 H   0  0  0  0  0  0  0  0  0  0  0  0  # atno 12729 bound_to 12724
  140.4468  141.9024   91.8541 H   0  0  0  0  0  0  0  0  0  0  0  0  # atno 12955 bound_to 12944
  139.7628  143.3240   91.3470 H   0  0  0  0  0  0  0  0  0  0  0  0  # atno 12956 bound_to 12944
  140.0394  142.1037   90.2599 H   0  0  0  0  0  0  0  0  0  0  0  0  # atno 12957 bound_to 12944
  141.8472  145.2551  106.2269 H   0  0  0  0  0  0  0  0  0  0  0  0  # atno 13071 bound_to 13062
  143.1681  137.7709  107.5671 H   0  0  0  0  0  0  0  0  0  0  0  0  # atno 13126 bound_to 13119
  140.8503  136.1396  105.5598 H   0  0  0  0  0  0  0  0  0  0  0  0  # atno 13129 bound_to 13124
  132.3345  138.1714   98.0153 H   0  0  0  0  0  0  0  0  0  0  0  0  # atno 14106 bound_to 14097
  122.6587  138.9823   92.3798 H   0  0  0  0  0  0  0  0  0  0  0  0  # atno 14135 bound_to 14126
  128.9428  143.3036  105.4162 H   0  0  0  0  0  0  0  0  0  0  0  0  # atno 14257 bound_to 14248
  131.7155  156.1238   95.9186 LP  0  0  0  0  0  0  0  0  0  0  0  0  # atno 14702 bound_to 6060
  128.9969  156.9810   94.8214 LP  0  0  0  0  0  0  0  0  0  0  0  0  # atno 14703 bound_to 6063
  129.7975  155.5652   94.2260 LP  0  0  0  0  0  0  0  0  0  0  0  0  # atno 14704 bound_to 6063
  131.0190  158.6317   92.3452 LP  0  0  0  0  0  0  0  0  0  0  0  0  # atno 14709 bound_to 6088
  129.7753  157.5963   89.2427 LP  0  0  0  0  0  0  0  0  0  0  0  0  # atno 14710 bound_to 6091
  130.5157  156.7240   90.5430 LP  0  0  0  0  0  0  0  0  0  0  0  0  # atno 14711 bound_to 6091
  119.0248  148.9077   87.3143 LP  0  0  0  0  0  0  0  0  0  0  0  0  # atno 14720 bound_to 121 
  117.4771  148.4701   89.0923 LP  0  0  0  0  0  0  0  0  0  0  0  0  # atno 14727 bound_to 124 
  117.7694  147.8922   90.6987 LP  0  0  0  0  0  0  0  0  0  0  0  0  # atno 14728 bound_to 124 
  121.1194  154.2400   89.1415 LP  0  0  0  0  0  0  0  0  0  0  0  0  # atno 14729 bound_to 12724
  119.5493  153.8192   89.2971 LP  0  0  0  0  0  0  0  0  0  0  0  0  # atno 14730 bound_to 12724
  125.4581  139.0431   90.0748 LP  0  0  0  0  0  0  0  0  0  0  0  0  # atno 14733 bound_to 7585
  123.5026  140.4988   93.5635 LP  0  0  0  0  0  0  0  0  0  0  0  0  # atno 14734 bound_to 7588
  124.4646  139.0613   93.4735 LP  0  0  0  0  0  0  0  0  0  0  0  0  # atno 14735 bound_to 7588
  129.4821  150.0265   98.9475 LP  0  0  0  0  0  0  0  0  0  0  0  0  # atno 14738 bound_to 11469
  128.2565  150.8516   98.2519 LP  0  0  0  0  0  0  0  0  0  0  0  0  # atno 14739 bound_to 11469
  132.8604  139.7061   98.1473 LP  0  0  0  0  0  0  0  0  0  0  0  0  # atno 14744 bound_to 14097
  133.8134  138.5694   97.4643 LP  0  0  0  0  0  0  0  0  0  0  0  0  # atno 14745 bound_to 14097
  127.9474  144.3718  104.6976 LP  0  0  0  0  0  0  0  0  0  0  0  0  # atno 14762 bound_to 14248
  129.4338  144.0939  104.0811 LP  0  0  0  0  0  0  0  0  0  0  0  0  # atno 14763 bound_to 14248
  135.5218  153.7046  102.9940 LP  0  0  0  0  0  0  0  0  0  0  0  0  # atno 14798 bound_to 12654
  135.9225  154.3429  101.5453 LP  0  0  0  0  0  0  0  0  0  0  0  0  # atno 14799 bound_to 12654
  127.5836  146.6460  111.9899 LP  0  0  0  0  0  0  0  0  0  0  0  0  # atno 14808 bound_to 4821
  126.1574  142.7149  113.4104 LP  0  0  0  0  0  0  0  0  0  0  0  0  # atno 14809 bound_to 4826
  126.2643  143.5911  114.7842 LP  0  0  0  0  0  0  0  0  0  0  0  0  # atno 14810 bound_to 4826
  143.1412  146.0028  106.8705 LP  0  0  0  0  0  0  0  0  0  0  0  0  # atno 14815 bound_to 13062
  142.7805  144.4704  107.3043 LP  0  0  0  0  0  0  0  0  0  0  0  0  # atno 14816 bound_to 13062
  142.1642  137.2123  109.1649 LP  0  0  0  0  0  0  0  0  0  0  0  0  # atno 14820 bound_to 6477
  143.5565  137.9751  109.8574 LP  0  0  0  0  0  0  0  0  0  0  0  0  # atno 14821 bound_to 6477
  146.2732  139.0566  106.7764 LP  0  0  0  0  0  0  0  0  0  0  0  0  # atno 14822 bound_to 6474
  141.2295  135.2065  104.2817 LP  0  0  0  0  0  0  0  0  0  0  0  0  # atno 14827 bound_to 13124
  142.1251  136.5279  104.6259 LP  0  0  0  0  0  0  0  0  0  0  0  0  # atno 14828 bound_to 13124

> <Gold.Score>
     Fitness  S(hb_ext) S(vdw_ext)  S(hb_int)    S(int)      intcor
     29.32       1.31      20.66       0.00      -0.40      -0.76

> <Gold.Goldscore.Fitness>
29.3200

> <Gold.Goldscore.Internal.Vdw>
-0.4925

> <Gold.Goldscore.Internal.Torsion>
-0.6619

> <Gold.Goldscore.External.Vdw>
20.6580

> <Gold.Goldscore.Internal.HBond>
0.0000

> <Gold.Goldscore.External.HBond>
1.3112

> <Gold.Goldscore.Internal.Correction>
-0.7585

> <Gold.Goldscore.Hbonds>
donor molecule, donor type, donor heavy atom, donor atom, acceptor molecule, acceptor atom, score
      L1  H    10    23       P1 14248  0.66

> <Gold.Goldscore.Internal.Vdw.Weighted>
-0.4925

> <Gold.Goldscore.Internal.Torsion.Weighted>
-0.6619

> <Gold.Goldscore.External.Vdw.Weighted>
28.4047

> <Gold.Goldscore.Internal.HBond.Weighted>
0.0000

> <Gold.Goldscore.External.HBond.Weighted>
1.3112

> <Gold.Goldscore.Internal.Correction.Weighted>
-0.7585

> <Gold.Rescore>
     Score     S(PLP)   S(hbond)     S(cho)   S(metal)  DE(clash)   DE(tors)     intcor
     33.28     -35.58       0.06       0.00       0.00       0.00       1.24       ----

> <Gold.PLP.Fitness>
33.2799

> <Gold.PLP.PLP>
-35.5836

> <Gold.PLP.part.hbond>
-2.1083

> <Gold.PLP.part.metal>
0.0000

> <Gold.PLP.part.buried>
-4.6126

> <Gold.PLP.part.nonpolar>
-29.5134

> <Gold.PLP.part.repulsive>
0.2946

> <Gold.PLP.ligand.clash>
0.0000

> <Gold.PLP.ligand.torsion>
1.2392

> <Gold.PLP.Chemscore.Hbond>
0.0582

> <Gold.PLP.Chemscore.CHOScore>
0.0000

> <Gold.PLP.Chemscore.Metal>
0.0000

> <Gold.PLP.Chemscore.Internal.Correction>
   9.000000E+99

#       Name:                CT1002167954
#       Creating user name   hitesit
#       Creation time:       Sun Apr 16 22:50:28 2023


#       File generated by GOLD software.
#

@<TRIPOS>MOLECULE
CT1002167954|ligand_prepared|mol2|1|dock5
    29    30     1
SMALL
NO_CHARGES


@<TRIPOS>ATOM
      1 C1         129.1959 142.9059  98.1381 C.3            1 RES1               0.0000
      2 C2         128.3522 143.7287  99.1330 C.ar           1 RES1               0.0000
      3 C3         129.7037 143.8914  97.0896 C.2            1 RES1               0.0000
      4 C4         130.2993 142.2463  98.9578 C.2            1 RES1               0.0000
      5 C5         128.4023 141.7899  97.4196 C.3            1 RES1               0.0000
      6 C6         126.9712 143.5681  99.1933 C.ar           1 RES1               0.0000
      7 C7         128.9400 144.6486  99.9973 C.ar           1 RES1               0.0000
      8 N8         131.0206 144.2426  97.1380 N.am           1 RES1               0.0000
      9 O9         128.9514 144.3831  96.2575 O.2            1 RES1               0.0000
     10 N10        131.5931 142.6289  98.7185 N.am           1 RES1               0.0000
     11 O11        130.0585 141.4107  99.8205 O.2            1 RES1               0.0000
     12 C12        129.2526 140.9279  96.4997 C.3            1 RES1               0.0000
     13 C13        126.2057 144.2984 100.0872 C.ar           1 RES1               0.0000
     14 C14        128.1726 145.3781 100.8903 C.ar           1 RES1               0.0000
     15 C15        132.0012 143.6194  97.8673 C.2            1 RES1               0.0000
     16 C16        126.8058 145.2035 100.9365 C.ar           1 RES1               0.0000
     17 O17        133.1791 143.9435  97.7465 O.2            1 RES1               0.0000
     18 H18        127.9356 141.1460  98.1752 H              1 RES1               0.0000
     19 H19        127.6001 142.2506  96.8300 H              1 RES1               0.0000
     20 H20        126.4810 142.8623  98.5310 H              1 RES1               0.0000
     21 H21        130.0135 144.8033  99.9778 H              1 RES1               0.0000
     22 H22        131.3023 145.0427  96.5805 H              1 RES1               0.0000
     23 H23        132.3194 142.1290  99.2214 H              1 RES1               0.0000
     24 H24        128.6471 140.1611  96.0210 H              1 RES1               0.0000
     25 H25        129.7120 141.5324  95.7203 H              1 RES1               0.0000
     26 H26        130.0456 140.4343  97.0576 H              1 RES1               0.0000
     27 H27        125.1303 144.1583 100.1186 H              1 RES1               0.0000
     28 H28        128.6491 146.0898 101.5564 H              1 RES1               0.0000
     29 H29        126.2060 145.7752 101.6369 H              1 RES1               0.0000
@<TRIPOS>BOND
    1    1    2 1     
    2    1    3 1     
    3    1    4 1     
    4    1    5 1     
    5    2    6 ar    
    6    2    7 ar    
    7    3    8 1     
    8    3    9 2     
    9    4   10 1     
   10    4   11 2     
   11    5   12 1     
   12    5   18 1     
   13    5   19 1     
   14    6   13 ar    
   15    6   20 1     
   16    7   14 ar    
   17    7   21 1     
   18    8   15 1     
   19    8   22 1     
   20   10   15 1     
   21   10   23 1     
   22   12   24 1     
   23   12   25 1     
   24   12   26 1     
   25   13   16 ar    
   26   13   27 1     
   27   14   16 ar    
   28   14   28 1     
   29   15   17 2     
   30   16   29 1     
@<TRIPOS>SUBSTRUCTURE
      1 RES1           1
@<TRIPOS>SET
DONOR_HYDROGENS      STATIC     ATOMS    <user>   **** ""
2 22 23
ATOM$RED        STATIC     ATOMS    COLORGROUP SYSTEM
2 22 23
@<TRIPOS>COMMENT
> <Gold.Version>
2022.3.0

> <Gold.Id.Protein>
unknown|7rmh_clean|pdb

> <Gold.Protein.RotatedTorsions>
[ 6069 6060 6061 6062 ] final   16.56 input   58.43 | X-H torsion
[ 6095 6088 6089 6090 ] final -172.63 input   80.40 | X-H torsion
[ 12696 12688 12689 12690 ] final -178.86 input   27.23 | X-H torsion
[ 12955 12944 12943 12942 ] final  168.46 input   60.02 | X-H torsion
[  140  121  122  123 ] final  -72.07 input   59.99 | X-H torsion
[ 10534 10525 10526 10527 ] final   65.86 input   86.97 | X-H torsion
[ 12729 12724 12723 12720 ] final   64.22 input   60.00 | X-H torsion
[ 7603 7585 7586 7587 ] final -156.92 input   21.72 | X-H torsion
[ 14135 14126 14127 14128 ] final  -41.13 input  100.92 | X-H torsion
[ 11478 11469 11468 11466 ] final -115.26 input   60.02 | X-H torsion
[ 14106 14097 14096 14094 ] final -114.43 input   60.00 | X-H torsion
[ 14257 14248 14247 14245 ] final   40.42 input   60.01 | X-H torsion
[ 12659 12654 12653 12650 ] final  144.21 input   60.00 | X-H torsion
[ 11470 11458 11459 11460 ] final  165.56 input   94.06 | X-H torsion
[ 4828 4821 4822 4823 ] final   98.78 input   91.76 | X-H torsion
[ 4831 4826 4825 4822 ] final  138.46 input   59.99 | X-H torsion
[ 13071 13062 13061 13059 ] final   97.76 input   60.03 | X-H torsion
[ 6490 6474 6475 6476 ] final    4.56 input  103.68 | X-H torsion
[ 13126 13119 13120 13121 ] final  -95.29 input  114.72 | X-H torsion
[ 13129 13124 13123 13120 ] final -116.33 input   59.98 | X-H torsion
[ 14703 6063 6062 6061 ] final  137.28 input    0.00 | X-H torsion
[ 14710 6091 6090 6089 ] final  127.40 input   -0.00 | X-H torsion
[ 14727  124  123  122 ] final  -63.60 input   -0.00 | X-H torsion
[ 14734 7588 7587 7586 ] final    6.50 input    0.00 | X-H torsion
[ 14820 6477 6476 6475 ] final   65.54 input   -0.00 | X-H torsion

> <Gold.Protein.ActiveResidues>
 ASN23   THR86   GLU172  THR173  VAL200  LYS280  GLN24   PHE25   GLN27   MET81  
 PHE84   ASN85   VAL88   ASN89   TYR92   ALA93   VAL94   HIS95   ASN96   GLU97  
 TRP98   TYR100  CYS105  HIS108  ASN109  PRO112  ILE113  VAL116  PHE117  LEU161 
 ALA162  GLN165  SER169  THR170  MET174  PRO175  SER176  ARG177  VAL178  VAL179 
 CYS180  MET181  ILE182  GLU183  TRP184  LYS190  TYR196  HIS197  THR201  ILE204 
 TRP261  PHE264  HIS265  PHE267  PHE268  LEU269  PRO271  PRO275  LEU277  TYR278 
 LEU279  LYS281  PHE282  ILE283  GLN284  GLN285  VAL286  TYR287  LEU288  ILE290 
 MET291  ALA294  MET295 

> <Gold.Protein.RotatedAtoms>
  120.1044  148.8474   87.0135 H   0  0  0  0  0  0  0  0  0  0  0  0  # atno 140  bound_to 121 
  118.7060  149.5692   87.5327 H   0  0  0  0  0  0  0  0  0  0  0  0  # atno 141  bound_to 121 
  127.1155  146.3580  113.6219 H   0  0  0  0  0  0  0  0  0  0  0  0  # atno 4828 bound_to 4821
  126.2696  143.5979  114.7779 H   0  0  0  0  0  0  0  0  0  0  0  0  # atno 4831 bound_to 4826
  131.3932  156.5290   96.0158 H   0  0  0  0  0  0  0  0  0  0  0  0  # atno 6069 bound_to 6060
  130.4443  158.4976   93.6779 H   0  0  0  0  0  0  0  0  0  0  0  0  # atno 6095 bound_to 6088
  145.3216  137.9791  106.1188 H   0  0  0  0  0  0  0  0  0  0  0  0  # atno 6490 bound_to 6474
  125.1768  139.6236   89.8231 H   0  0  0  0  0  0  0  0  0  0  0  0  # atno 7603 bound_to 7585
  120.9856  147.0147   89.9214 H   0  0  0  0  0  0  0  0  0  0  0  0  # atno 10534 bound_to 10525
  123.6546  150.1391  105.3633 H   0  0  0  0  0  0  0  0  0  0  0  0  # atno 11470 bound_to 11458
  128.3719  149.1859   98.2005 H   0  0  0  0  0  0  0  0  0  0  0  0  # atno 11478 bound_to 11469
  135.5384  153.7548  103.0566 H   0  0  0  0  0  0  0  0  0  0  0  0  # atno 12659 bound_to 12654
  128.5065  156.9876   90.9119 H   0  0  0  0  0  0  0  0  0  0  0  0  # atno 12696 bound_to 12688
  120.6601  153.7029   90.5471 H   0  0  0  0  0  0  0  0  0  0  0  0  # atno 12729 bound_to 12724
  139.7146  143.3253   91.1078 H   0  0  0  0  0  0  0  0  0  0  0  0  # atno 12955 bound_to 12944
  140.1403  141.9074   90.3633 H   0  0  0  0  0  0  0  0  0  0  0  0  # atno 12956 bound_to 12944
  140.3941  142.0975   91.9902 H   0  0  0  0  0  0  0  0  0  0  0  0  # atno 12957 bound_to 12944
  142.6408  146.1050  106.4386 H   0  0  0  0  0  0  0  0  0  0  0  0  # atno 13071 bound_to 13062
  143.0649  137.8061  107.4835 H   0  0  0  0  0  0  0  0  0  0  0  0  # atno 13126 bound_to 13119
  140.7457  135.2901  104.8578 H   0  0  0  0  0  0  0  0  0  0  0  0  # atno 13129 bound_to 13124
  132.4858  139.4959   98.2592 H   0  0  0  0  0  0  0  0  0  0  0  0  # atno 14106 bound_to 14097
  122.5908  138.5419   92.4049 H   0  0  0  0  0  0  0  0  0  0  0  0  # atno 14135 bound_to 14126
  129.5623  143.9120  104.2264 H   0  0  0  0  0  0  0  0  0  0  0  0  # atno 14257 bound_to 14248
  133.0602  157.0628   95.9774 LP  0  0  0  0  0  0  0  0  0  0  0  0  # atno 14702 bound_to 6060
  128.8524  156.9449   94.5664 LP  0  0  0  0  0  0  0  0  0  0  0  0  # atno 14703 bound_to 6063
  129.9420  155.6013   94.4809 LP  0  0  0  0  0  0  0  0  0  0  0  0  # atno 14704 bound_to 6063
  130.9773  157.6874   92.2195 LP  0  0  0  0  0  0  0  0  0  0  0  0  # atno 14709 bound_to 6088
  129.9334  156.3206   89.8839 LP  0  0  0  0  0  0  0  0  0  0  0  0  # atno 14710 bound_to 6091
  130.3577  157.9997   89.9018 LP  0  0  0  0  0  0  0  0  0  0  0  0  # atno 14711 bound_to 6091
  120.0827  150.4543   87.3651 LP  0  0  0  0  0  0  0  0  0  0  0  0  # atno 14720 bound_to 121 
  117.7877  148.7733   90.5057 LP  0  0  0  0  0  0  0  0  0  0  0  0  # atno 14727 bound_to 124 
  117.4588  147.5890   89.2854 LP  0  0  0  0  0  0  0  0  0  0  0  0  # atno 14728 bound_to 124 
  121.0510  154.2473   89.0643 LP  0  0  0  0  0  0  0  0  0  0  0  0  # atno 14729 bound_to 12724
  119.5193  153.7838   89.3895 LP  0  0  0  0  0  0  0  0  0  0  0  0  # atno 14730 bound_to 12724
  125.3830  139.5823   91.5600 LP  0  0  0  0  0  0  0  0  0  0  0  0  # atno 14733 bound_to 7585
  124.6249  139.8614   92.9422 LP  0  0  0  0  0  0  0  0  0  0  0  0  # atno 14734 bound_to 7588
  123.3423  139.6987   94.0948 LP  0  0  0  0  0  0  0  0  0  0  0  0  # atno 14735 bound_to 7588
  129.4759  150.1168   98.9505 LP  0  0  0  0  0  0  0  0  0  0  0  0  # atno 14738 bound_to 11469
  128.1930  150.8032   98.2091 LP  0  0  0  0  0  0  0  0  0  0  0  0  # atno 14739 bound_to 11469
  133.8631  139.0046   97.5445 LP  0  0  0  0  0  0  0  0  0  0  0  0  # atno 14744 bound_to 14097
  132.6583  137.9377   97.8216 LP  0  0  0  0  0  0  0  0  0  0  0  0  # atno 14745 bound_to 14097
  128.6978  143.3711  105.4946 LP  0  0  0  0  0  0  0  0  0  0  0  0  # atno 14762 bound_to 14248
  128.0596  144.4820  104.4820 LP  0  0  0  0  0  0  0  0  0  0  0  0  # atno 14763 bound_to 14248
  135.8917  154.2673  101.5532 LP  0  0  0  0  0  0  0  0  0  0  0  0  # atno 14798 bound_to 12654
  136.1503  155.2461  102.8345 LP  0  0  0  0  0  0  0  0  0  0  0  0  # atno 14799 bound_to 12654
  127.7326  146.4224  111.9930 LP  0  0  0  0  0  0  0  0  0  0  0  0  # atno 14808 bound_to 4821
  127.2113  143.9535  113.4990 LP  0  0  0  0  0  0  0  0  0  0  0  0  # atno 14809 bound_to 4826
  126.1525  142.7130  113.4170 LP  0  0  0  0  0  0  0  0  0  0  0  0  # atno 14810 bound_to 4826
  143.2312  144.9531  107.4246 LP  0  0  0  0  0  0  0  0  0  0  0  0  # atno 14815 bound_to 13062
  141.8912  144.6641  106.5371 LP  0  0  0  0  0  0  0  0  0  0  0  0  # atno 14816 bound_to 13062
  142.3555  138.2937  109.4398 LP  0  0  0  0  0  0  0  0  0  0  0  0  # atno 14820 bound_to 6477
  143.3653  136.8937  109.5825 LP  0  0  0  0  0  0  0  0  0  0  0  0  # atno 14821 bound_to 6477
  145.9734  139.5742  106.3616 LP  0  0  0  0  0  0  0  0  0  0  0  0  # atno 14822 bound_to 6474
  142.0533  135.9452  104.1443 LP  0  0  0  0  0  0  0  0  0  0  0  0  # atno 14827 bound_to 13124
  141.4067  136.6450  105.4704 LP  0  0  0  0  0  0  0  0  0  0  0  0  # atno 14828 bound_to 13124

> <Gold.Score>
     Fitness  S(hb_ext) S(vdw_ext)  S(hb_int)    S(int)      intcor
     28.87       0.00      21.58       0.00      -0.80      -0.76

> <Gold.Goldscore.Fitness>
28.8745

> <Gold.Goldscore.Internal.Vdw>
-1.1774

> <Gold.Goldscore.Internal.Torsion>
-0.3834

> <Gold.Goldscore.External.Vdw>
21.5831

> <Gold.Goldscore.Internal.HBond>
0.0000

> <Gold.Goldscore.External.HBond>
0.0000

> <Gold.Goldscore.Internal.Correction>
-0.7585

> <Gold.Goldscore.Internal.Vdw.Weighted>
-1.1774

> <Gold.Goldscore.Internal.Torsion.Weighted>
-0.3834

> <Gold.Goldscore.External.Vdw.Weighted>
29.6767

> <Gold.Goldscore.Internal.HBond.Weighted>
0.0000

> <Gold.Goldscore.External.HBond.Weighted>
0.0000

> <Gold.Goldscore.Internal.Correction.Weighted>
-0.7585

> <Gold.Rescore>
     Score     S(PLP)   S(hbond)     S(cho)   S(metal)  DE(clash)   DE(tors)     intcor
     37.10     -38.29       0.00       0.00       0.00       0.00       0.60       ----

> <Gold.PLP.Fitness>
37.0986

> <Gold.PLP.PLP>
-38.2915

> <Gold.PLP.part.hbond>
0.0000

> <Gold.PLP.part.metal>
0.0000

> <Gold.PLP.part.buried>
-3.7058

> <Gold.PLP.part.nonpolar>
-35.2218

> <Gold.PLP.part.repulsive>
0.0077

> <Gold.PLP.ligand.clash>
0.0000

> <Gold.PLP.ligand.torsion>
0.5965

> <Gold.PLP.Chemscore.Hbond>
0.0000

> <Gold.PLP.Chemscore.CHOScore>
0.0000

> <Gold.PLP.Chemscore.Metal>
0.0000

> <Gold.PLP.Chemscore.Internal.Correction>
   9.000000E+99

