#       Name:                CT1002167954
#       Creating user name   hitesit
#       Creation time:       Sun Apr 16 22:50:29 2023


#       File generated by GOLD software.
#

@<TRIPOS>MOLECULE
CT1002167954|ligand_prepared|mol2|1|dock6
    29    30     1
SMALL
NO_CHARGES


@<TRIPOS>ATOM
      1 C1         128.3786 142.7494  98.4843 C.3            1 RES1               0.0000
      2 C2         126.9137 143.2129  98.6185 C.ar           1 RES1               0.0000
      3 C3         128.3295 141.3311  97.9237 C.2            1 RES1               0.0000
      4 C4         129.0627 143.7574  97.5674 C.2            1 RES1               0.0000
      5 C5         129.1504 142.7216  99.8241 C.3            1 RES1               0.0000
      6 C6         126.0691 143.2217  97.5125 C.ar           1 RES1               0.0000
      7 C7         126.3928 143.6313  99.8401 C.ar           1 RES1               0.0000
      8 N8         128.6824 141.1551  96.6182 N.am           1 RES1               0.0000
      9 O9         127.9490 140.3873  98.6055 O.2            1 RES1               0.0000
     10 N10        129.5048 143.3184  96.3469 N.am           1 RES1               0.0000
     11 O11        129.2081 144.9316  97.8841 O.2            1 RES1               0.0000
     12 C12        130.5939 142.2627  99.6907 C.3            1 RES1               0.0000
     13 C13        124.7507 143.6311  97.6241 C.ar           1 RES1               0.0000
     14 C14        125.0741 144.0405  99.9495 C.ar           1 RES1               0.0000
     15 C15        129.3182 142.0703  95.8182 C.2            1 RES1               0.0000
     16 C16        124.2521 144.0403  98.8426 C.ar           1 RES1               0.0000
     17 O17        129.6971 141.7666  94.6907 O.2            1 RES1               0.0000
     18 H18        129.1387 143.7285 100.2593 H              1 RES1               0.0000
     19 H19        128.6293 142.0504 100.5179 H              1 RES1               0.0000
     20 H20        126.4444 142.9055  96.5449 H              1 RES1               0.0000
     21 H21        127.0213 143.6408 100.7241 H              1 RES1               0.0000
     22 H22        128.4523 140.2603  96.1978 H              1 RES1               0.0000
     23 H23        130.0208 143.9837  95.7800 H              1 RES1               0.0000
     24 H24        131.0893 142.2616 100.6594 H              1 RES1               0.0000
     25 H25        130.6422 141.2546  99.2842 H              1 RES1               0.0000
     26 H26        131.1487 142.9228  99.0271 H              1 RES1               0.0000
     27 H27        124.1083 143.6304  96.7497 H              1 RES1               0.0000
     28 H28        124.6861 144.3623 100.9103 H              1 RES1               0.0000
     29 H29        123.2192 144.3605  98.9298 H              1 RES1               0.0000
@<TRIPOS>BOND
    1    1    2 1     
    2    1    3 1     
    3    1    4 1     
    4    1    5 1     
    5    2    6 ar    
    6    2    7 ar    
    7    3    8 1     
    8    3    9 2     
    9    4   10 1     
   10    4   11 2     
   11    5   12 1     
   12    5   18 1     
   13    5   19 1     
   14    6   13 ar    
   15    6   20 1     
   16    7   14 ar    
   17    7   21 1     
   18    8   15 1     
   19    8   22 1     
   20   10   15 1     
   21   10   23 1     
   22   12   24 1     
   23   12   25 1     
   24   12   26 1     
   25   13   16 ar    
   26   13   27 1     
   27   14   16 ar    
   28   14   28 1     
   29   15   17 2     
   30   16   29 1     
@<TRIPOS>SUBSTRUCTURE
      1 RES1           1
@<TRIPOS>SET
DONOR_HYDROGENS      STATIC     ATOMS    <user>   **** ""
2 22 23
ATOM$RED        STATIC     ATOMS    COLORGROUP SYSTEM
2 22 23
@<TRIPOS>COMMENT
> <Gold.Version>
2022.3.0

> <Gold.Id.Protein>
unknown|7rmh_clean|pdb

> <Gold.Protein.RotatedTorsions>
[ 6069 6060 6061 6062 ] final  -92.69 input   58.43 | X-H torsion
[ 6095 6088 6089 6090 ] final -173.09 input   80.40 | X-H torsion
[ 12696 12688 12689 12690 ] final  120.73 input   27.23 | X-H torsion
[ 12955 12944 12943 12942 ] final  135.43 input   60.02 | X-H torsion
[  140  121  122  123 ] final -113.16 input   59.99 | X-H torsion
[ 10534 10525 10526 10527 ] final  122.59 input   86.97 | X-H torsion
[ 12729 12724 12723 12720 ] final -167.10 input   60.00 | X-H torsion
[ 7603 7585 7586 7587 ] final   25.82 input   21.72 | X-H torsion
[ 14135 14126 14127 14128 ] final  132.60 input  100.92 | X-H torsion
[ 11478 11469 11468 11466 ] final -142.50 input   60.02 | X-H torsion
[ 14106 14097 14096 14094 ] final -108.48 input   60.00 | X-H torsion
[ 14257 14248 14247 14245 ] final   68.01 input   60.01 | X-H torsion
[ 12659 12654 12653 12650 ] final   64.65 input   60.00 | X-H torsion
[ 11470 11458 11459 11460 ] final -146.68 input   94.06 | X-H torsion
[ 4828 4821 4822 4823 ] final   15.41 input   91.76 | X-H torsion
[ 4831 4826 4825 4822 ] final   86.25 input   59.99 | X-H torsion
[ 13071 13062 13061 13059 ] final   17.38 input   60.03 | X-H torsion
[ 6490 6474 6475 6476 ] final -118.83 input  103.68 | X-H torsion
[ 13126 13119 13120 13121 ] final -105.35 input  114.72 | X-H torsion
[ 13129 13124 13123 13120 ] final  -12.51 input   59.98 | X-H torsion
[ 14703 6063 6062 6061 ] final   81.69 input    0.00 | X-H torsion
[ 14710 6091 6090 6089 ] final  126.79 input   -0.00 | X-H torsion
[ 14727  124  123  122 ] final  -52.96 input   -0.00 | X-H torsion
[ 14734 7588 7587 7586 ] final  -74.71 input    0.00 | X-H torsion
[ 14820 6477 6476 6475 ] final   85.31 input   -0.00 | X-H torsion

> <Gold.Protein.ActiveResidues>
 ASN23   THR86   GLU172  THR173  VAL200  LYS280  GLN24   PHE25   GLN27   MET81  
 PHE84   ASN85   VAL88   ASN89   TYR92   ALA93   VAL94   HIS95   ASN96   GLU97  
 TRP98   TYR100  CYS105  HIS108  ASN109  PRO112  ILE113  VAL116  PHE117  LEU161 
 ALA162  GLN165  SER169  THR170  MET174  PRO175  SER176  ARG177  VAL178  VAL179 
 CYS180  MET181  ILE182  GLU183  TRP184  LYS190  TYR196  HIS197  THR201  ILE204 
 TRP261  PHE264  HIS265  PHE267  PHE268  LEU269  PRO271  PRO275  LEU277  TYR278 
 LEU279  LYS281  PHE282  ILE283  GLN284  GLN285  VAL286  TYR287  LEU288  ILE290 
 MET291  ALA294  MET295 

> <Gold.Protein.RotatedAtoms>
  120.5126  149.3805   87.0196 H   0  0  0  0  0  0  0  0  0  0  0  0  # atno 140  bound_to 121 
  118.9405  148.9688   87.3439 H   0  0  0  0  0  0  0  0  0  0  0  0  # atno 141  bound_to 121 
  126.9574  147.1286  112.7646 H   0  0  0  0  0  0  0  0  0  0  0  0  # atno 4828 bound_to 4821
  126.8552  144.0924  114.4749 H   0  0  0  0  0  0  0  0  0  0  0  0  # atno 4831 bound_to 4826
  132.2735  157.6738   96.1673 H   0  0  0  0  0  0  0  0  0  0  0  0  # atno 6069 bound_to 6060
  130.4460  158.5038   93.6750 H   0  0  0  0  0  0  0  0  0  0  0  0  # atno 6095 bound_to 6088
  146.3008  138.9472  106.7873 H   0  0  0  0  0  0  0  0  0  0  0  0  # atno 6490 bound_to 6474
  125.3845  139.5352   91.5850 H   0  0  0  0  0  0  0  0  0  0  0  0  # atno 7603 bound_to 7585
  120.8092  146.8971   89.1110 H   0  0  0  0  0  0  0  0  0  0  0  0  # atno 10534 bound_to 10525
  123.0517  150.3789  105.0563 H   0  0  0  0  0  0  0  0  0  0  0  0  # atno 11470 bound_to 11458
  128.7425  149.0997   98.4231 H   0  0  0  0  0  0  0  0  0  0  0  0  # atno 11478 bound_to 11469
  135.6568  153.7480  101.8645 H   0  0  0  0  0  0  0  0  0  0  0  0  # atno 12659 bound_to 12654
  127.8697  156.5626   91.4070 H   0  0  0  0  0  0  0  0  0  0  0  0  # atno 12696 bound_to 12688
  119.5690  153.8352   89.2666 H   0  0  0  0  0  0  0  0  0  0  0  0  # atno 12729 bound_to 12724
  139.8540  143.2427   91.6271 H   0  0  0  0  0  0  0  0  0  0  0  0  # atno 12955 bound_to 12944
  139.9170  142.3803   90.2136 H   0  0  0  0  0  0  0  0  0  0  0  0  # atno 12956 bound_to 12944
  140.4780  141.7071   91.6205 H   0  0  0  0  0  0  0  0  0  0  0  0  # atno 12957 bound_to 12944
  143.3549  145.5498  107.2394 H   0  0  0  0  0  0  0  0  0  0  0  0  # atno 13071 bound_to 13062
  142.9627  137.8351  107.3709 H   0  0  0  0  0  0  0  0  0  0  0  0  # atno 13126 bound_to 13119
  141.1974  136.5068  105.5553 H   0  0  0  0  0  0  0  0  0  0  0  0  # atno 13129 bound_to 13124
  132.4170  139.4288   98.2736 H   0  0  0  0  0  0  0  0  0  0  0  0  # atno 14106 bound_to 14097
  121.0944  139.0853   91.6421 H   0  0  0  0  0  0  0  0  0  0  0  0  # atno 14135 bound_to 14126
  129.3032  144.2079  104.0150 H   0  0  0  0  0  0  0  0  0  0  0  0  # atno 14257 bound_to 14248
  132.2097  155.9568   95.8310 LP  0  0  0  0  0  0  0  0  0  0  0  0  # atno 14702 bound_to 6060
  129.3665  156.8373   95.1800 LP  0  0  0  0  0  0  0  0  0  0  0  0  # atno 14703 bound_to 6063
  129.4279  155.7090   93.8673 LP  0  0  0  0  0  0  0  0  0  0  0  0  # atno 14704 bound_to 6063
  130.9756  157.6814   92.2223 LP  0  0  0  0  0  0  0  0  0  0  0  0  # atno 14709 bound_to 6088
  129.9385  156.3192   89.8913 LP  0  0  0  0  0  0  0  0  0  0  0  0  # atno 14710 bound_to 6091
  130.3526  158.0011   89.8944 LP  0  0  0  0  0  0  0  0  0  0  0  0  # atno 14711 bound_to 6091
  119.4494  150.5204   87.5451 LP  0  0  0  0  0  0  0  0  0  0  0  0  # atno 14720 bound_to 121 
  117.7701  148.8794   90.3863 LP  0  0  0  0  0  0  0  0  0  0  0  0  # atno 14727 bound_to 124 
  117.4764  147.4829   89.4047 LP  0  0  0  0  0  0  0  0  0  0  0  0  # atno 14728 bound_to 124 
  120.5261  153.6617   90.5711 LP  0  0  0  0  0  0  0  0  0  0  0  0  # atno 14729 bound_to 12724
  121.1433  154.2361   89.1727 LP  0  0  0  0  0  0  0  0  0  0  0  0  # atno 14730 bound_to 12724
  125.1818  139.6680   89.8523 LP  0  0  0  0  0  0  0  0  0  0  0  0  # atno 14733 bound_to 7585
  124.3420  138.9968   93.6080 LP  0  0  0  0  0  0  0  0  0  0  0  0  # atno 14734 bound_to 7588
  123.6251  140.5633   93.4291 LP  0  0  0  0  0  0  0  0  0  0  0  0  # atno 14735 bound_to 7588
  129.3406  150.5364   98.8985 LP  0  0  0  0  0  0  0  0  0  0  0  0  # atno 14738 bound_to 11469
  127.9551  150.4704   98.0368 LP  0  0  0  0  0  0  0  0  0  0  0  0  # atno 14739 bound_to 11469
  133.8480  139.0971   97.5727 LP  0  0  0  0  0  0  0  0  0  0  0  0  # atno 14744 bound_to 14097
  132.7428  137.9128   97.7789 LP  0  0  0  0  0  0  0  0  0  0  0  0  # atno 14745 bound_to 14097
  129.1101  143.2819  105.3392 LP  0  0  0  0  0  0  0  0  0  0  0  0  # atno 14762 bound_to 14248
  127.9081  144.2733  104.8502 LP  0  0  0  0  0  0  0  0  0  0  0  0  # atno 14763 bound_to 14248
  136.2147  155.2424  102.1858 LP  0  0  0  0  0  0  0  0  0  0  0  0  # atno 14798 bound_to 12654
  135.7080  154.2779  103.4022 LP  0  0  0  0  0  0  0  0  0  0  0  0  # atno 14799 bound_to 12654
  127.8894  145.6578  112.8437 LP  0  0  0  0  0  0  0  0  0  0  0  0  # atno 14808 bound_to 4821
  126.8997  143.3440  113.0303 LP  0  0  0  0  0  0  0  0  0  0  0  0  # atno 14809 bound_to 4826
  125.8747  142.8248  114.1907 LP  0  0  0  0  0  0  0  0  0  0  0  0  # atno 14810 bound_to 4826
  142.2690  144.3704  106.9608 LP  0  0  0  0  0  0  0  0  0  0  0  0  # atno 14815 bound_to 13062
  142.1343  145.8060  106.1943 LP  0  0  0  0  0  0  0  0  0  0  0  0  # atno 14816 bound_to 13062
  142.1723  138.0871  109.3292 LP  0  0  0  0  0  0  0  0  0  0  0  0  # atno 14820 bound_to 6477
  143.5484  137.1002  109.6931 LP  0  0  0  0  0  0  0  0  0  0  0  0  # atno 14821 bound_to 6477
  144.9928  138.6047  105.6921 LP  0  0  0  0  0  0  0  0  0  0  0  0  # atno 14822 bound_to 6474
  140.8703  135.2002  104.6422 LP  0  0  0  0  0  0  0  0  0  0  0  0  # atno 14827 bound_to 13124
  142.1347  136.1643  104.2699 LP  0  0  0  0  0  0  0  0  0  0  0  0  # atno 14828 bound_to 13124

> <Gold.Score>
     Fitness  S(hb_ext) S(vdw_ext)  S(hb_int)    S(int)      intcor
     33.74       0.00      24.64       0.00      -0.14      -0.76

> <Gold.Goldscore.Fitness>
33.7423

> <Gold.Goldscore.Internal.Vdw>
-0.5278

> <Gold.Goldscore.Internal.Torsion>
-0.3670

> <Gold.Goldscore.External.Vdw>
24.6390

> <Gold.Goldscore.Internal.HBond>
0.0000

> <Gold.Goldscore.External.HBond>
0.0000

> <Gold.Goldscore.Internal.Correction>
-0.7585

> <Gold.Goldscore.Internal.Vdw.Weighted>
-0.5278

> <Gold.Goldscore.Internal.Torsion.Weighted>
-0.3670

> <Gold.Goldscore.External.Vdw.Weighted>
33.8786

> <Gold.Goldscore.Internal.HBond.Weighted>
0.0000

> <Gold.Goldscore.External.HBond.Weighted>
0.0000

> <Gold.Goldscore.Internal.Correction.Weighted>
-0.7585

> <Gold.Rescore>
     Score     S(PLP)   S(hbond)     S(cho)   S(metal)  DE(clash)   DE(tors)     intcor
     40.21     -40.58       0.00       0.00       0.00       0.00       0.18       ----

> <Gold.PLP.Fitness>
40.2128

> <Gold.PLP.PLP>
-40.5805

> <Gold.PLP.part.hbond>
0.0000

> <Gold.PLP.part.metal>
0.0000

> <Gold.PLP.part.buried>
-5.5117

> <Gold.PLP.part.nonpolar>
-37.1234

> <Gold.PLP.part.repulsive>
0.7963

> <Gold.PLP.ligand.clash>
0.0000

> <Gold.PLP.ligand.torsion>
0.1839

> <Gold.PLP.Chemscore.Hbond>
0.0000

> <Gold.PLP.Chemscore.CHOScore>
0.0000

> <Gold.PLP.Chemscore.Metal>
0.0000

> <Gold.PLP.Chemscore.Internal.Correction>
   9.000000E+99

