#       Name:                CT1002167954
#       Creating user name   hitesit
#       Creation time:       Sun Apr 16 22:50:23 2023


#       File generated by GOLD software.
#

@<TRIPOS>MOLECULE
CT1002167954|ligand_prepared|mol2|1|dock1
    29    30     1
SMALL
NO_CHARGES


@<TRIPOS>ATOM
      1 C1         128.4351 142.7657  97.6726 C.3            1 RES1               0.0000
      2 C2         129.5316 142.5623  98.7380 C.ar           1 RES1               0.0000
      3 C3         128.7595 144.0805  96.9694 C.2            1 RES1               0.0000
      4 C4         128.4918 141.5433  96.7632 C.2            1 RES1               0.0000
      5 C5         127.0063 142.8607  98.2567 C.3            1 RES1               0.0000
      6 C6         129.3593 143.0424 100.0328 C.ar           1 RES1               0.0000
      7 C7         130.7175 141.8955  98.4422 C.ar           1 RES1               0.0000
      8 N8         129.2687 144.0124  95.7061 N.am           1 RES1               0.0000
      9 O9         128.6081 145.1591  97.5296 O.2            1 RES1               0.0000
     10 N10        128.8683 141.7302  95.4589 N.am           1 RES1               0.0000
     11 O11        128.2301 140.4175  97.1686 O.2            1 RES1               0.0000
     12 C12        125.9096 142.8194  97.2042 C.3            1 RES1               0.0000
     13 C13        130.3358 142.8599 100.9979 C.ar           1 RES1               0.0000
     14 C14        131.6929 141.7142  99.4088 C.ar           1 RES1               0.0000
     15 C15        129.2889 142.9048  94.8971 C.2            1 RES1               0.0000
     16 C16        131.5030 142.1954 100.6867 C.ar           1 RES1               0.0000
     17 O17        129.6640 142.9825  93.7307 O.2            1 RES1               0.0000
     18 H18        126.8552 142.0299  98.9570 H              1 RES1               0.0000
     19 H19        126.9176 143.7964  98.8225 H              1 RES1               0.0000
     20 H20        128.4484 143.5700 100.2956 H              1 RES1               0.0000
     21 H21        130.8891 141.5093  97.4432 H              1 RES1               0.0000
     22 H22        129.6719 144.8637  95.3279 H              1 RES1               0.0000
     23 H23        128.8313 140.9186  94.8505 H              1 RES1               0.0000
     24 H24        124.9277 142.8894  97.6674 H              1 RES1               0.0000
     25 H25        126.0144 143.6466  96.5053 H              1 RES1               0.0000
     26 H26        125.9523 141.8907  96.6390 H              1 RES1               0.0000
     27 H27        130.1821 143.2417 102.0018 H              1 RES1               0.0000
     28 H28        132.6102 141.1912  99.1593 H              1 RES1               0.0000
     29 H29        132.2677 142.0522 101.4430 H              1 RES1               0.0000
@<TRIPOS>BOND
    1    1    2 1     
    2    1    3 1     
    3    1    4 1     
    4    1    5 1     
    5    2    6 ar    
    6    2    7 ar    
    7    3    8 1     
    8    3    9 2     
    9    4   10 1     
   10    4   11 2     
   11    5   12 1     
   12    5   18 1     
   13    5   19 1     
   14    6   13 ar    
   15    6   20 1     
   16    7   14 ar    
   17    7   21 1     
   18    8   15 1     
   19    8   22 1     
   20   10   15 1     
   21   10   23 1     
   22   12   24 1     
   23   12   25 1     
   24   12   26 1     
   25   13   16 ar    
   26   13   27 1     
   27   14   16 ar    
   28   14   28 1     
   29   15   17 2     
   30   16   29 1     
@<TRIPOS>SUBSTRUCTURE
      1 RES1           1
@<TRIPOS>SET
DONOR_HYDROGENS      STATIC     ATOMS    <user>   **** ""
2 22 23
ATOM$RED        STATIC     ATOMS    COLORGROUP SYSTEM
2 22 23
@<TRIPOS>COMMENT
> <Gold.Version>
2022.3.0

> <Gold.Id.Protein>
unknown|7rmh_clean|pdb

> <Gold.Protein.RotatedTorsions>
[ 6069 6060 6061 6062 ] final   42.01 input   58.43 | X-H torsion
[ 6095 6088 6089 6090 ] final  117.74 input   80.40 | X-H torsion
[ 12696 12688 12689 12690 ] final   -7.82 input   27.23 | X-H torsion
[ 12955 12944 12943 12942 ] final   88.38 input   60.02 | X-H torsion
[  140  121  122  123 ] final   82.95 input   59.99 | X-H torsion
[ 10534 10525 10526 10527 ] final   37.78 input   86.97 | X-H torsion
[ 12729 12724 12723 12720 ] final    6.07 input   60.00 | X-H torsion
[ 7603 7585 7586 7587 ] final  -31.85 input   21.72 | X-H torsion
[ 14135 14126 14127 14128 ] final   52.94 input  100.92 | X-H torsion
[ 11478 11469 11468 11466 ] final  156.42 input   60.02 | X-H torsion
[ 14106 14097 14096 14094 ] final  -67.80 input   60.00 | X-H torsion
[ 14257 14248 14247 14245 ] final  105.89 input   60.01 | X-H torsion
[ 12659 12654 12653 12650 ] final -115.27 input   60.00 | X-H torsion
[ 11470 11458 11459 11460 ] final   -5.06 input   94.06 | X-H torsion
[ 4828 4821 4822 4823 ] final  -80.47 input   91.76 | X-H torsion
[ 4831 4826 4825 4822 ] final  108.11 input   59.99 | X-H torsion
[ 13071 13062 13061 13059 ] final  100.93 input   60.03 | X-H torsion
[ 6490 6474 6475 6476 ] final  129.12 input  103.68 | X-H torsion
[ 13126 13119 13120 13121 ] final -109.57 input  114.72 | X-H torsion
[ 13129 13124 13123 13120 ] final  -70.92 input   59.98 | X-H torsion
[ 14703 6063 6062 6061 ] final  123.41 input    0.00 | X-H torsion
[ 14710 6091 6090 6089 ] final   29.96 input   -0.00 | X-H torsion
[ 14727  124  123  122 ] final  115.38 input   -0.00 | X-H torsion
[ 14734 7588 7587 7586 ] final -103.87 input    0.00 | X-H torsion
[ 14820 6477 6476 6475 ] final  169.13 input   -0.00 | X-H torsion

> <Gold.Protein.ActiveResidues>
 ASN23   THR86   GLU172  THR173  VAL200  LYS280  GLN24   PHE25   GLN27   MET81  
 PHE84   ASN85   VAL88   ASN89   TYR92   ALA93   VAL94   HIS95   ASN96   GLU97  
 TRP98   TYR100  CYS105  HIS108  ASN109  PRO112  ILE113  VAL116  PHE117  LEU161 
 ALA162  GLN165  SER169  THR170  MET174  PRO175  SER176  ARG177  VAL178  VAL179 
 CYS180  MET181  ILE182  GLU183  TRP184  LYS190  TYR196  HIS197  THR201  ILE204 
 TRP261  PHE264  HIS265  PHE267  PHE268  LEU269  PRO271  PRO275  LEU277  TYR278 
 LEU279  LYS281  PHE282  ILE283  GLN284  GLN285  VAL286  TYR287  LEU288  ILE290 
 MET291  ALA294  MET295 

> <Gold.Protein.RotatedAtoms>
  118.8689  150.1166   87.6067 H   0  0  0  0  0  0  0  0  0  0  0  0  # atno 140  bound_to 121 
  120.4692  150.0764   87.1781 H   0  0  0  0  0  0  0  0  0  0  0  0  # atno 141  bound_to 121 
  127.7436  146.4421  111.9911 H   0  0  0  0  0  0  0  0  0  0  0  0  # atno 4828 bound_to 4821
  126.6139  143.9334  114.6812 H   0  0  0  0  0  0  0  0  0  0  0  0  # atno 4831 bound_to 4826
  131.5871  156.2002   95.9253 H   0  0  0  0  0  0  0  0  0  0  0  0  # atno 6069 bound_to 6060
  130.8190  158.9672   92.8561 H   0  0  0  0  0  0  0  0  0  0  0  0  # atno 6095 bound_to 6088
  145.3963  139.4830  105.8007 H   0  0  0  0  0  0  0  0  0  0  0  0  # atno 6490 bound_to 6474
  125.0583  140.2585   91.2614 H   0  0  0  0  0  0  0  0  0  0  0  0  # atno 7603 bound_to 7585
  120.8063  147.2066   90.2592 H   0  0  0  0  0  0  0  0  0  0  0  0  # atno 10534 bound_to 10525
  122.6860  148.7606  104.8305 H   0  0  0  0  0  0  0  0  0  0  0  0  # atno 11470 bound_to 11458
  129.4048  149.6149   98.8715 H   0  0  0  0  0  0  0  0  0  0  0  0  # atno 11478 bound_to 11469
  136.0659  155.0938  103.1004 H   0  0  0  0  0  0  0  0  0  0  0  0  # atno 12659 bound_to 12654
  126.8884  157.7895   90.9634 H   0  0  0  0  0  0  0  0  0  0  0  0  # atno 12696 bound_to 12688
  121.2880  154.0274   89.9742 H   0  0  0  0  0  0  0  0  0  0  0  0  # atno 12729 bound_to 12724
  140.1641  142.7039   92.0708 H   0  0  0  0  0  0  0  0  0  0  0  0  # atno 12955 bound_to 12944
  139.7059  143.0489   90.5162 H   0  0  0  0  0  0  0  0  0  0  0  0  # atno 12956 bound_to 12944
  140.3791  141.5772   90.8741 H   0  0  0  0  0  0  0  0  0  0  0  0  # atno 12957 bound_to 12944
  142.5983  146.0946  106.4110 H   0  0  0  0  0  0  0  0  0  0  0  0  # atno 13071 bound_to 13062
  142.9252  137.8436  107.3187 H   0  0  0  0  0  0  0  0  0  0  0  0  # atno 13126 bound_to 13119
  140.6770  135.7747  105.3893 H   0  0  0  0  0  0  0  0  0  0  0  0  # atno 13129 bound_to 13124
  132.1448  138.8376   98.2543 H   0  0  0  0  0  0  0  0  0  0  0  0  # atno 14106 bound_to 14097
  121.4773  138.0651   91.9503 H   0  0  0  0  0  0  0  0  0  0  0  0  # atno 14135 bound_to 14126
  128.7686  144.4963  103.9940 H   0  0  0  0  0  0  0  0  0  0  0  0  # atno 14257 bound_to 14248
  132.8728  157.3804   96.0648 LP  0  0  0  0  0  0  0  0  0  0  0  0  # atno 14702 bound_to 6060
  128.9488  156.9790   94.7489 LP  0  0  0  0  0  0  0  0  0  0  0  0  # atno 14703 bound_to 6063
  129.8456  155.5673   94.2985 LP  0  0  0  0  0  0  0  0  0  0  0  0  # atno 14704 bound_to 6063
  130.6160  157.2346   93.0119 LP  0  0  0  0  0  0  0  0  0  0  0  0  # atno 14709 bound_to 6088
  130.6544  157.1397   90.5933 LP  0  0  0  0  0  0  0  0  0  0  0  0  # atno 14710 bound_to 6091
  129.6367  157.1806   89.1924 LP  0  0  0  0  0  0  0  0  0  0  0  0  # atno 14711 bound_to 6091
  119.5635  148.7037   87.1298 LP  0  0  0  0  0  0  0  0  0  0  0  0  # atno 14720 bound_to 121 
  117.4574  147.6002   89.2750 LP  0  0  0  0  0  0  0  0  0  0  0  0  # atno 14727 bound_to 124 
  117.7891  148.7621   90.5160 LP  0  0  0  0  0  0  0  0  0  0  0  0  # atno 14728 bound_to 124 
  120.1880  154.1293   88.7794 LP  0  0  0  0  0  0  0  0  0  0  0  0  # atno 14729 bound_to 12724
  119.7497  153.5749   90.2516 LP  0  0  0  0  0  0  0  0  0  0  0  0  # atno 14730 bound_to 12724
  125.4980  138.9670   90.1660 LP  0  0  0  0  0  0  0  0  0  0  0  0  # atno 14733 bound_to 7585
  124.0074  138.9969   93.8875 LP  0  0  0  0  0  0  0  0  0  0  0  0  # atno 14734 bound_to 7588
  123.9598  140.5632   93.1495 LP  0  0  0  0  0  0  0  0  0  0  0  0  # atno 14735 bound_to 7588
  128.6007  150.9726   98.4739 LP  0  0  0  0  0  0  0  0  0  0  0  0  # atno 14738 bound_to 11469
  128.0280  149.5154   98.0098 LP  0  0  0  0  0  0  0  0  0  0  0  0  # atno 14739 bound_to 11469
  133.5198  139.6006   97.8342 LP  0  0  0  0  0  0  0  0  0  0  0  0  # atno 14744 bound_to 14097
  133.3450  138.0044   97.5369 LP  0  0  0  0  0  0  0  0  0  0  0  0  # atno 14745 bound_to 14097
  129.5358  143.3951  104.9143 LP  0  0  0  0  0  0  0  0  0  0  0  0  # atno 14762 bound_to 14248
  128.0207  143.8697  105.2963 LP  0  0  0  0  0  0  0  0  0  0  0  0  # atno 14763 bound_to 14248
  135.5023  153.6011  102.7807 LP  0  0  0  0  0  0  0  0  0  0  0  0  # atno 14798 bound_to 12654
  136.0085  154.5640  101.5629 LP  0  0  0  0  0  0  0  0  0  0  0  0  # atno 14799 bound_to 12654
  127.1093  146.3390  113.6113 LP  0  0  0  0  0  0  0  0  0  0  0  0  # atno 14808 bound_to 4821
  127.0857  143.6226  113.1550 LP  0  0  0  0  0  0  0  0  0  0  0  0  # atno 14809 bound_to 4826
  125.9315  142.7062  113.8583 LP  0  0  0  0  0  0  0  0  0  0  0  0  # atno 14810 bound_to 4826
  143.2541  144.9997  107.4204 LP  0  0  0  0  0  0  0  0  0  0  0  0  # atno 14815 bound_to 13062
  141.9111  144.6281  106.5690 LP  0  0  0  0  0  0  0  0  0  0  0  0  # atno 14816 bound_to 13062
  142.3673  136.9543  109.1980 LP  0  0  0  0  0  0  0  0  0  0  0  0  # atno 14820 bound_to 6477
  143.3535  138.2330  109.8243 LP  0  0  0  0  0  0  0  0  0  0  0  0  # atno 14821 bound_to 6477
  145.8986  138.0681  106.6802 LP  0  0  0  0  0  0  0  0  0  0  0  0  # atno 14822 bound_to 6474
  141.5847  135.3906  104.0945 LP  0  0  0  0  0  0  0  0  0  0  0  0  # atno 14827 bound_to 13124
  141.9446  136.7114  104.9847 LP  0  0  0  0  0  0  0  0  0  0  0  0  # atno 14828 bound_to 13124

> <Gold.Score>
     Fitness  S(hb_ext) S(vdw_ext)  S(hb_int)    S(int)      intcor
     32.06       0.00      23.80       0.00      -0.66      -0.78

> <Gold.Goldscore.Fitness>
32.0557

> <Gold.Goldscore.Internal.Vdw>
-0.9283

> <Gold.Goldscore.Internal.Torsion>
-0.5195

> <Gold.Goldscore.External.Vdw>
23.7962

> <Gold.Goldscore.Internal.HBond>
0.0000

> <Gold.Goldscore.External.HBond>
0.0000

> <Gold.Goldscore.Internal.Correction>
-0.7838

> <Gold.Goldscore.Internal.Vdw.Weighted>
-0.9283

> <Gold.Goldscore.Internal.Torsion.Weighted>
-0.5195

> <Gold.Goldscore.External.Vdw.Weighted>
32.7198

> <Gold.Goldscore.Internal.HBond.Weighted>
0.0000

> <Gold.Goldscore.External.HBond.Weighted>
0.0000

> <Gold.Goldscore.Internal.Correction.Weighted>
-0.7838

> <Gold.Rescore>
     Score     S(PLP)   S(hbond)     S(cho)   S(metal)  DE(clash)   DE(tors)     intcor
     37.16     -38.65       0.09       0.00       0.00       0.11       0.82       ----

> <Gold.PLP.Fitness>
37.1637

> <Gold.PLP.PLP>
-38.6510

> <Gold.PLP.part.hbond>
-0.6685

> <Gold.PLP.part.metal>
0.0000

> <Gold.PLP.part.buried>
-4.1836

> <Gold.PLP.part.nonpolar>
-34.7424

> <Gold.PLP.part.repulsive>
0.2084

> <Gold.PLP.ligand.clash>
0.1119

> <Gold.PLP.ligand.torsion>
0.8246

> <Gold.PLP.Chemscore.Hbond>
0.0913

> <Gold.PLP.Chemscore.CHOScore>
0.0000

> <Gold.PLP.Chemscore.Metal>
0.0000

> <Gold.PLP.Chemscore.Internal.Correction>
   9.000000E+99

