#       Name:                CT1002167954
#       Creating user name   hitesit
#       Creation time:       Sun Apr 16 22:50:24 2023


#       File generated by GOLD software.
#

@<TRIPOS>MOLECULE
CT1002167954|ligand_prepared|mol2|1|dock2
    29    30     1
SMALL
NO_CHARGES


@<TRIPOS>ATOM
      1 C1         128.5581 142.7807  97.7196 C.3            1 RES1               0.0000
      2 C2         127.1103 143.2234  98.0142 C.ar           1 RES1               0.0000
      3 C3         128.4570 141.5811  96.7822 C.2            1 RES1               0.0000
      4 C4         129.2581 143.9900  97.1093 C.2            1 RES1               0.0000
      5 C5         129.3497 142.3553  98.9782 C.3            1 RES1               0.0000
      6 C6         126.3041 143.7306  96.9996 C.ar           1 RES1               0.0000
      7 C7         126.5671 143.1282  99.2927 C.ar           1 RES1               0.0000
      8 N8         128.7837 141.7736  95.4722 N.am           1 RES1               0.0000
      9 O9         128.0588 140.4925  97.1781 O.2            1 RES1               0.0000
     10 N10        129.6672 143.9040  95.8043 N.am           1 RES1               0.0000
     11 O11        129.4441 145.0224  97.7416 O.2            1 RES1               0.0000
     12 C12        130.7827 141.9369  98.6888 C.3            1 RES1               0.0000
     13 C13        125.0010 144.1256  97.2532 C.ar           1 RES1               0.0000
     14 C14        125.2638 143.5240  99.5441 C.ar           1 RES1               0.0000
     15 C15        129.4344 142.8619  94.9488 C.2            1 RES1               0.0000
     16 C16        124.4799 144.0222  98.5253 C.ar           1 RES1               0.0000
     17 O17        129.7861 142.8809  93.7727 O.2            1 RES1               0.0000
     18 H18        129.3627 143.1925  99.6869 H              1 RES1               0.0000
     19 H19        128.8275 141.5182  99.4576 H              1 RES1               0.0000
     20 H20        126.6977 143.8217  95.9927 H              1 RES1               0.0000
     21 H21        127.1657 142.7402 100.1098 H              1 RES1               0.0000
     22 H22        128.5198 141.0406  94.8215 H              1 RES1               0.0000
     23 H23        130.1943 144.6897  95.4366 H              1 RES1               0.0000
     24 H24        131.2928 141.6482  99.6054 H              1 RES1               0.0000
     25 H25        130.8068 141.0898  98.0064 H              1 RES1               0.0000
     26 H26        131.3389 142.7542  98.2343 H              1 RES1               0.0000
     27 H27        124.3886 144.5183  96.4482 H              1 RES1               0.0000
     28 H28        124.8580 143.4414 100.5470 H              1 RES1               0.0000
     29 H29        123.4589 144.3313  98.7236 H              1 RES1               0.0000
@<TRIPOS>BOND
    1    1    2 1     
    2    1    3 1     
    3    1    4 1     
    4    1    5 1     
    5    2    6 ar    
    6    2    7 ar    
    7    3    8 1     
    8    3    9 2     
    9    4   10 1     
   10    4   11 2     
   11    5   12 1     
   12    5   18 1     
   13    5   19 1     
   14    6   13 ar    
   15    6   20 1     
   16    7   14 ar    
   17    7   21 1     
   18    8   15 1     
   19    8   22 1     
   20   10   15 1     
   21   10   23 1     
   22   12   24 1     
   23   12   25 1     
   24   12   26 1     
   25   13   16 ar    
   26   13   27 1     
   27   14   16 ar    
   28   14   28 1     
   29   15   17 2     
   30   16   29 1     
@<TRIPOS>SUBSTRUCTURE
      1 RES1           1
@<TRIPOS>SET
DONOR_HYDROGENS      STATIC     ATOMS    <user>   **** ""
2 22 23
ATOM$RED        STATIC     ATOMS    COLORGROUP SYSTEM
2 22 23
@<TRIPOS>COMMENT
> <Gold.Version>
2022.3.0

> <Gold.Id.Protein>
unknown|7rmh_clean|pdb

> <Gold.Protein.RotatedTorsions>
[ 6069 6060 6061 6062 ] final  122.27 input   58.43 | X-H torsion
[ 6095 6088 6089 6090 ] final  -74.16 input   80.40 | X-H torsion
[ 12696 12688 12689 12690 ] final   56.37 input   27.23 | X-H torsion
[ 12955 12944 12943 12942 ] final  -26.24 input   60.02 | X-H torsion
[  140  121  122  123 ] final -156.14 input   59.99 | X-H torsion
[ 10534 10525 10526 10527 ] final   18.63 input   86.97 | X-H torsion
[ 12729 12724 12723 12720 ] final  141.05 input   60.00 | X-H torsion
[ 7603 7585 7586 7587 ] final   61.49 input   21.72 | X-H torsion
[ 14135 14126 14127 14128 ] final -145.00 input  100.92 | X-H torsion
[ 11478 11469 11468 11466 ] final -133.35 input   60.02 | X-H torsion
[ 14106 14097 14096 14094 ] final   34.88 input   60.00 | X-H torsion
[ 14257 14248 14247 14245 ] final   35.11 input   60.01 | X-H torsion
[ 12659 12654 12653 12650 ] final  100.13 input   60.00 | X-H torsion
[ 11470 11458 11459 11460 ] final   18.15 input   94.06 | X-H torsion
[ 4828 4821 4822 4823 ] final  135.71 input   91.76 | X-H torsion
[ 4831 4826 4825 4822 ] final  -74.83 input   59.99 | X-H torsion
[ 13071 13062 13061 13059 ] final  176.40 input   60.03 | X-H torsion
[ 6490 6474 6475 6476 ] final  -45.33 input  103.68 | X-H torsion
[ 13126 13119 13120 13121 ] final -177.89 input  114.72 | X-H torsion
[ 13129 13124 13123 13120 ] final  -44.36 input   59.98 | X-H torsion
[ 14703 6063 6062 6061 ] final  117.79 input    0.00 | X-H torsion
[ 14710 6091 6090 6089 ] final   15.41 input   -0.00 | X-H torsion
[ 14727  124  123  122 ] final   54.53 input   -0.00 | X-H torsion
[ 14734 7588 7587 7586 ] final  -94.54 input    0.00 | X-H torsion
[ 14820 6477 6476 6475 ] final  -91.80 input   -0.00 | X-H torsion

> <Gold.Protein.ActiveResidues>
 ASN23   THR86   GLU172  THR173  VAL200  LYS280  GLN24   PHE25   GLN27   MET81  
 PHE84   ASN85   VAL88   ASN89   TYR92   ALA93   VAL94   HIS95   ASN96   GLU97  
 TRP98   TYR100  CYS105  HIS108  ASN109  PRO112  ILE113  VAL116  PHE117  LEU161 
 ALA162  GLN165  SER169  THR170  MET174  PRO175  SER176  ARG177  VAL178  VAL179 
 CYS180  MET181  ILE182  GLU183  TRP184  LYS190  TYR196  HIS197  THR201  ILE204 
 TRP261  PHE264  HIS265  PHE267  PHE268  LEU269  PRO271  PRO275  LEU277  TYR278 
 LEU279  LYS281  PHE282  ILE283  GLN284  GLN285  VAL286  TYR287  LEU288  ILE290 
 MET291  ALA294  MET295 

> <Gold.Protein.RotatedAtoms>
  120.4752  150.0630   87.1742 H   0  0  0  0  0  0  0  0  0  0  0  0  # atno 140  bound_to 121 
  119.5465  148.6914   87.1262 H   0  0  0  0  0  0  0  0  0  0  0  0  # atno 141  bound_to 121 
  127.4443  145.9193  113.5413 H   0  0  0  0  0  0  0  0  0  0  0  0  # atno 4828 bound_to 4821
  126.4376  142.8863  113.1390 H   0  0  0  0  0  0  0  0  0  0  0  0  # atno 4831 bound_to 4826
  132.7195  156.0810   95.7807 H   0  0  0  0  0  0  0  0  0  0  0  0  # atno 6069 bound_to 6060
  130.5244  157.2473   93.1734 H   0  0  0  0  0  0  0  0  0  0  0  0  # atno 6095 bound_to 6088
  145.8609  138.0207  106.6139 H   0  0  0  0  0  0  0  0  0  0  0  0  # atno 6490 bound_to 6474
  125.5528  139.0686   91.3613 H   0  0  0  0  0  0  0  0  0  0  0  0  # atno 7603 bound_to 7585
  120.6031  147.3604   90.4043 H   0  0  0  0  0  0  0  0  0  0  0  0  # atno 10534 bound_to 10525
  122.9800  148.6246  104.9797 H   0  0  0  0  0  0  0  0  0  0  0  0  # atno 11470 bound_to 11458
  128.6153  149.1056   98.3449 H   0  0  0  0  0  0  0  0  0  0  0  0  # atno 11478 bound_to 11469
  135.5261  153.5519  102.3841 H   0  0  0  0  0  0  0  0  0  0  0  0  # atno 12659 bound_to 12654
  126.9949  156.9674   91.4532 H   0  0  0  0  0  0  0  0  0  0  0  0  # atno 12696 bound_to 12688
  119.6125  153.6056   90.0510 H   0  0  0  0  0  0  0  0  0  0  0  0  # atno 12729 bound_to 12724
  140.4032  141.5629   90.9596 H   0  0  0  0  0  0  0  0  0  0  0  0  # atno 12955 bound_to 12944
  140.1265  142.7818   92.0475 H   0  0  0  0  0  0  0  0  0  0  0  0  # atno 12956 bound_to 12944
  139.7192  142.9855   90.4538 H   0  0  0  0  0  0  0  0  0  0  0  0  # atno 12957 bound_to 12944
  141.8459  145.2498  106.2284 H   0  0  0  0  0  0  0  0  0  0  0  0  # atno 13071 bound_to 13062
  142.8660  137.6848  106.3425 H   0  0  0  0  0  0  0  0  0  0  0  0  # atno 13126 bound_to 13119
  140.8456  136.1326  105.5579 H   0  0  0  0  0  0  0  0  0  0  0  0  # atno 13129 bound_to 13124
  133.0907  137.9163   97.6248 H   0  0  0  0  0  0  0  0  0  0  0  0  # atno 14106 bound_to 14097
  122.0032  139.7302   91.9803 H   0  0  0  0  0  0  0  0  0  0  0  0  # atno 14135 bound_to 14126
  129.5928  143.8530  104.2823 H   0  0  0  0  0  0  0  0  0  0  0  0  # atno 14257 bound_to 14248
  131.7788  157.4956   96.2045 LP  0  0  0  0  0  0  0  0  0  0  0  0  # atno 14702 bound_to 6060
  128.9957  156.9811   94.8197 LP  0  0  0  0  0  0  0  0  0  0  0  0  # atno 14703 bound_to 6063
  129.7987  155.5652   94.2277 LP  0  0  0  0  0  0  0  0  0  0  0  0  # atno 14704 bound_to 6063
  130.9000  158.8928   92.7059 LP  0  0  0  0  0  0  0  0  0  0  0  0  # atno 14709 bound_to 6088
  130.6751  157.3537   90.5502 LP  0  0  0  0  0  0  0  0  0  0  0  0  # atno 14710 bound_to 6091
  129.6159  156.9666   89.2355 LP  0  0  0  0  0  0  0  0  0  0  0  0  # atno 14711 bound_to 6091
  118.8893  150.1209   87.6072 LP  0  0  0  0  0  0  0  0  0  0  0  0  # atno 14720 bound_to 121 
  117.4753  148.4570   89.0880 LP  0  0  0  0  0  0  0  0  0  0  0  0  # atno 14727 bound_to 124 
  117.7712  147.9052   90.7030 LP  0  0  0  0  0  0  0  0  0  0  0  0  # atno 14728 bound_to 124 
  121.1993  153.9398   90.1851 LP  0  0  0  0  0  0  0  0  0  0  0  0  # atno 14729 bound_to 12724
  120.4262  154.1893   88.7685 LP  0  0  0  0  0  0  0  0  0  0  0  0  # atno 14730 bound_to 12724
  125.0187  140.1203   90.0692 LP  0  0  0  0  0  0  0  0  0  0  0  0  # atno 14733 bound_to 7585
  124.1195  138.9742   93.8051 LP  0  0  0  0  0  0  0  0  0  0  0  0  # atno 14734 bound_to 7588
  123.8477  140.5859   93.2319 LP  0  0  0  0  0  0  0  0  0  0  0  0  # atno 14735 bound_to 7588
  129.4047  150.4035   98.9281 LP  0  0  0  0  0  0  0  0  0  0  0  0  # atno 14738 bound_to 11469
  128.0191  150.5974   98.0860 LP  0  0  0  0  0  0  0  0  0  0  0  0  # atno 14739 bound_to 11469
  132.2092  139.1105   98.2927 LP  0  0  0  0  0  0  0  0  0  0  0  0  # atno 14744 bound_to 14097
  133.7034  139.4217   97.7120 LP  0  0  0  0  0  0  0  0  0  0  0  0  # atno 14745 bound_to 14097
  128.6174  143.4039  105.5051 LP  0  0  0  0  0  0  0  0  0  0  0  0  # atno 14762 bound_to 14248
  128.1093  144.5086  104.4152 LP  0  0  0  0  0  0  0  0  0  0  0  0  # atno 14763 bound_to 14248
  136.1301  154.9112  101.7241 LP  0  0  0  0  0  0  0  0  0  0  0  0  # atno 14798 bound_to 12654
  135.9243  154.8066  103.3407 LP  0  0  0  0  0  0  0  0  0  0  0  0  # atno 14799 bound_to 12654
  127.4063  146.8578  112.0730 LP  0  0  0  0  0  0  0  0  0  0  0  0  # atno 14808 bound_to 4821
  126.0242  143.2566  114.6690 LP  0  0  0  0  0  0  0  0  0  0  0  0  # atno 14809 bound_to 4826
  127.1705  144.1262  113.8968 LP  0  0  0  0  0  0  0  0  0  0  0  0  # atno 14810 bound_to 4826
  143.1379  146.0055  106.8667 LP  0  0  0  0  0  0  0  0  0  0  0  0  # atno 14815 bound_to 13062
  142.7850  144.4730  107.3066 LP  0  0  0  0  0  0  0  0  0  0  0  0  # atno 14816 bound_to 13062
  143.5688  137.1359  109.7077 LP  0  0  0  0  0  0  0  0  0  0  0  0  # atno 14820 bound_to 6477
  142.1520  138.0514  109.3145 LP  0  0  0  0  0  0  0  0  0  0  0  0  # atno 14821 bound_to 6477
  145.4333  139.5325  105.8658 LP  0  0  0  0  0  0  0  0  0  0  0  0  # atno 14822 bound_to 6474
  141.2363  135.2086  104.2767 LP  0  0  0  0  0  0  0  0  0  0  0  0  # atno 14827 bound_to 13124
  142.1230  136.5329  104.6327 LP  0  0  0  0  0  0  0  0  0  0  0  0  # atno 14828 bound_to 13124

> <Gold.Score>
     Fitness  S(hb_ext) S(vdw_ext)  S(hb_int)    S(int)      intcor
     34.59       0.00      25.23       0.00      -0.09      -0.77

> <Gold.Goldscore.Fitness>
34.5929

> <Gold.Goldscore.Internal.Vdw>
-0.4982

> <Gold.Goldscore.Internal.Torsion>
-0.3681

> <Gold.Goldscore.External.Vdw>
25.2262

> <Gold.Goldscore.Internal.HBond>
0.0000

> <Gold.Goldscore.External.HBond>
0.0000

> <Gold.Goldscore.Internal.Correction>
-0.7731

> <Gold.Goldscore.Internal.Vdw.Weighted>
-0.4982

> <Gold.Goldscore.Internal.Torsion.Weighted>
-0.3681

> <Gold.Goldscore.External.Vdw.Weighted>
34.6860

> <Gold.Goldscore.Internal.HBond.Weighted>
0.0000

> <Gold.Goldscore.External.HBond.Weighted>
0.0000

> <Gold.Goldscore.Internal.Correction.Weighted>
-0.7731

> <Gold.Rescore>
     Score     S(PLP)   S(hbond)     S(cho)   S(metal)  DE(clash)   DE(tors)     intcor
     40.00     -40.06       0.00       0.00       0.00       0.00       0.03       ----

> <Gold.PLP.Fitness>
39.9952

> <Gold.PLP.PLP>
-40.0563

> <Gold.PLP.part.hbond>
0.0000

> <Gold.PLP.part.metal>
0.0000

> <Gold.PLP.part.buried>
-3.9111

> <Gold.PLP.part.nonpolar>
-35.6381

> <Gold.PLP.part.repulsive>
0.6065

> <Gold.PLP.ligand.clash>
0.0000

> <Gold.PLP.ligand.torsion>
0.0306

> <Gold.PLP.Chemscore.Hbond>
0.0000

> <Gold.PLP.Chemscore.CHOScore>
0.0000

> <Gold.PLP.Chemscore.Metal>
0.0000

> <Gold.PLP.Chemscore.Internal.Correction>
   9.000000E+99

