#       Name:                CT1002167954
#       Creating user name   hitesit
#       Creation time:       Sun Apr 16 22:50:33 2023


#       File generated by GOLD software.
#

@<TRIPOS>MOLECULE
CT1002167954|ligand_prepared|mol2|1|dock9
    29    30     1
SMALL
NO_CHARGES


@<TRIPOS>ATOM
      1 C1         127.7444 142.7246  97.6401 C.3            1 RES1               0.0000
      2 C2         126.3592 143.3565  97.8865 C.ar           1 RES1               0.0000
      3 C3         128.7677 143.8333  97.8680 C.2            1 RES1               0.0000
      4 C4         127.8616 141.5595  98.6165 C.2            1 RES1               0.0000
      5 C5         127.9322 142.1695  96.2090 C.3            1 RES1               0.0000
      6 C6         125.7721 143.3073  99.1473 C.ar           1 RES1               0.0000
      7 C7         125.6587 143.9931  96.8655 C.ar           1 RES1               0.0000
      8 N8         129.5077 143.7846  99.0125 N.am           1 RES1               0.0000
      9 O9         128.8956 144.7578  97.0747 O.2            1 RES1               0.0000
     10 N10        128.8078 141.6423  99.6043 N.am           1 RES1               0.0000
     11 O11        127.1321 140.5779  98.5494 O.2            1 RES1               0.0000
     12 C12        129.1218 141.2332  96.0658 C.3            1 RES1               0.0000
     13 C13        124.5310 143.8766  99.3798 C.ar           1 RES1               0.0000
     14 C14        124.4176 144.5615  97.1000 C.ar           1 RES1               0.0000
     15 C15        129.6153 142.7156  99.8653 C.2            1 RES1               0.0000
     16 C16        123.8532 144.5044  98.3566 C.ar           1 RES1               0.0000
     17 O17        130.4037 142.7362 100.8061 O.2            1 RES1               0.0000
     18 H18        127.0221 141.6313  95.9167 H              1 RES1               0.0000
     19 H19        128.0605 143.0115  95.5176 H              1 RES1               0.0000
     20 H20        126.2895 142.8154  99.9643 H              1 RES1               0.0000
     21 H21        126.0828 144.0492  95.8687 H              1 RES1               0.0000
     22 H22        130.0292 144.6204  99.2571 H              1 RES1               0.0000
     23 H23        128.9206 140.8283 100.2002 H              1 RES1               0.0000
     24 H24        129.2079 140.8726  95.0429 H              1 RES1               0.0000
     25 H25        130.0474 141.7432  96.3243 H              1 RES1               0.0000
     26 H26        129.0153 140.3712  96.7211 H              1 RES1               0.0000
     27 H27        124.0906 143.8277 100.3702 H              1 RES1               0.0000
     28 H28        123.8874 145.0541  96.2916 H              1 RES1               0.0000
     29 H29        122.8812 144.9505  98.5390 H              1 RES1               0.0000
@<TRIPOS>BOND
    1    1    2 1     
    2    1    3 1     
    3    1    4 1     
    4    1    5 1     
    5    2    6 ar    
    6    2    7 ar    
    7    3    8 1     
    8    3    9 2     
    9    4   10 1     
   10    4   11 2     
   11    5   12 1     
   12    5   18 1     
   13    5   19 1     
   14    6   13 ar    
   15    6   20 1     
   16    7   14 ar    
   17    7   21 1     
   18    8   15 1     
   19    8   22 1     
   20   10   15 1     
   21   10   23 1     
   22   12   24 1     
   23   12   25 1     
   24   12   26 1     
   25   13   16 ar    
   26   13   27 1     
   27   14   16 ar    
   28   14   28 1     
   29   15   17 2     
   30   16   29 1     
@<TRIPOS>SUBSTRUCTURE
      1 RES1           1
@<TRIPOS>SET
DONOR_HYDROGENS      STATIC     ATOMS    <user>   **** ""
2 22 23
ATOM$RED        STATIC     ATOMS    COLORGROUP SYSTEM
2 22 23
@<TRIPOS>COMMENT
> <Gold.Version>
2022.3.0

> <Gold.Id.Protein>
unknown|7rmh_clean|pdb

> <Gold.Protein.RotatedTorsions>
[ 6069 6060 6061 6062 ] final  -35.49 input   58.43 | X-H torsion
[ 6095 6088 6089 6090 ] final  174.83 input   80.40 | X-H torsion
[ 12696 12688 12689 12690 ] final  155.70 input   27.23 | X-H torsion
[ 12955 12944 12943 12942 ] final   45.97 input   60.02 | X-H torsion
[  140  121  122  123 ] final -130.97 input   59.99 | X-H torsion
[ 10534 10525 10526 10527 ] final   74.84 input   86.97 | X-H torsion
[ 12729 12724 12723 12720 ] final  -93.68 input   60.00 | X-H torsion
[ 7603 7585 7586 7587 ] final   10.61 input   21.72 | X-H torsion
[ 14135 14126 14127 14128 ] final  118.48 input  100.92 | X-H torsion
[ 11478 11469 11468 11466 ] final  155.49 input   60.02 | X-H torsion
[ 14106 14097 14096 14094 ] final -115.93 input   60.00 | X-H torsion
[ 14257 14248 14247 14245 ] final   84.86 input   60.01 | X-H torsion
[ 12659 12654 12653 12650 ] final -133.55 input   60.00 | X-H torsion
[ 11470 11458 11459 11460 ] final  143.75 input   94.06 | X-H torsion
[ 4828 4821 4822 4823 ] final  143.29 input   91.76 | X-H torsion
[ 4831 4826 4825 4822 ] final  178.08 input   59.99 | X-H torsion
[ 13071 13062 13061 13059 ] final  -10.28 input   60.03 | X-H torsion
[ 6490 6474 6475 6476 ] final   81.85 input  103.68 | X-H torsion
[ 13126 13119 13120 13121 ] final   14.34 input  114.72 | X-H torsion
[ 13129 13124 13123 13120 ] final   61.80 input   59.98 | X-H torsion
[ 14703 6063 6062 6061 ] final   -4.15 input    0.00 | X-H torsion
[ 14710 6091 6090 6089 ] final   -8.87 input   -0.00 | X-H torsion
[ 14727  124  123  122 ] final    7.21 input   -0.00 | X-H torsion
[ 14734 7588 7587 7586 ] final -117.15 input    0.00 | X-H torsion
[ 14820 6477 6476 6475 ] final  -47.21 input   -0.00 | X-H torsion

> <Gold.Protein.ActiveResidues>
 ASN23   THR86   GLU172  THR173  VAL200  LYS280  GLN24   PHE25   GLN27   MET81  
 PHE84   ASN85   VAL88   ASN89   TYR92   ALA93   VAL94   HIS95   ASN96   GLU97  
 TRP98   TYR100  CYS105  HIS108  ASN109  PRO112  ILE113  VAL116  PHE117  LEU161 
 ALA162  GLN165  SER169  THR170  MET174  PRO175  SER176  ARG177  VAL178  VAL179 
 CYS180  MET181  ILE182  GLU183  TRP184  LYS190  TYR196  HIS197  THR201  ILE204 
 TRP261  PHE264  HIS265  PHE267  PHE268  LEU269  PRO271  PRO275  LEU277  TYR278 
 LEU279  LYS281  PHE282  ILE283  GLN284  GLN285  VAL286  TYR287  LEU288  ILE290 
 MET291  ALA294  MET295 

> <Gold.Protein.RotatedAtoms>
  120.5596  149.6687   87.0685 H   0  0  0  0  0  0  0  0  0  0  0  0  # atno 140  bound_to 121 
  119.1621  148.7966   87.2493 H   0  0  0  0  0  0  0  0  0  0  0  0  # atno 141  bound_to 121 
  127.5159  145.8480  113.4848 H   0  0  0  0  0  0  0  0  0  0  0  0  # atno 4828 bound_to 4821
  125.9451  143.1040  114.5460 H   0  0  0  0  0  0  0  0  0  0  0  0  # atno 4831 bound_to 4826
  131.5140  157.2864   96.1646 H   0  0  0  0  0  0  0  0  0  0  0  0  # atno 6069 bound_to 6060
  130.4981  158.6586   93.5826 H   0  0  0  0  0  0  0  0  0  0  0  0  # atno 6095 bound_to 6088
  145.0483  138.9057  105.6234 H   0  0  0  0  0  0  0  0  0  0  0  0  # atno 6490 bound_to 6474
  125.2954  139.7528   91.5807 H   0  0  0  0  0  0  0  0  0  0  0  0  # atno 7603 bound_to 7585
  121.0066  146.9684   89.7932 H   0  0  0  0  0  0  0  0  0  0  0  0  # atno 10534 bound_to 10525
  123.8308  149.8667  105.4485 H   0  0  0  0  0  0  0  0  0  0  0  0  # atno 11470 bound_to 11458
  129.4100  149.6285   98.8758 H   0  0  0  0  0  0  0  0  0  0  0  0  # atno 11478 bound_to 11469
  135.9644  154.8866  103.2883 H   0  0  0  0  0  0  0  0  0  0  0  0  # atno 12659 bound_to 12654
  128.3194  156.7241   91.1462 H   0  0  0  0  0  0  0  0  0  0  0  0  # atno 12696 bound_to 12688
  120.5095  154.2056   88.7862 H   0  0  0  0  0  0  0  0  0  0  0  0  # atno 12729 bound_to 12724
  140.4050  142.0628   91.9704 H   0  0  0  0  0  0  0  0  0  0  0  0  # atno 12955 bound_to 12944
  139.7205  143.3288   91.1490 H   0  0  0  0  0  0  0  0  0  0  0  0  # atno 12956 bound_to 12944
  140.1234  141.9384   90.3416 H   0  0  0  0  0  0  0  0  0  0  0  0  # atno 12957 bound_to 12944
  143.3031  145.1324  107.3930 H   0  0  0  0  0  0  0  0  0  0  0  0  # atno 13071 bound_to 13062
  144.3039  137.1328  107.1824 H   0  0  0  0  0  0  0  0  0  0  0  0  # atno 13126 bound_to 13119
  142.0437  136.6383  104.8169 H   0  0  0  0  0  0  0  0  0  0  0  0  # atno 13129 bound_to 13124
  132.5041  139.5118   98.2549 H   0  0  0  0  0  0  0  0  0  0  0  0  # atno 14106 bound_to 14097
  121.0570  138.8716   91.6522 H   0  0  0  0  0  0  0  0  0  0  0  0  # atno 14135 bound_to 14126
  129.0807  144.3603  103.9645 H   0  0  0  0  0  0  0  0  0  0  0  0  # atno 14257 bound_to 14248
  132.9434  156.3311   95.8336 LP  0  0  0  0  0  0  0  0  0  0  0  0  # atno 14702 bound_to 6060
  130.0326  155.8873   94.9680 LP  0  0  0  0  0  0  0  0  0  0  0  0  # atno 14703 bound_to 6063
  128.7618  156.6589   94.0794 LP  0  0  0  0  0  0  0  0  0  0  0  0  # atno 14704 bound_to 6063
  130.9253  157.5322   92.3114 LP  0  0  0  0  0  0  0  0  0  0  0  0  # atno 14709 bound_to 6088
  130.6344  157.6768   90.3868 LP  0  0  0  0  0  0  0  0  0  0  0  0  # atno 14710 bound_to 6091
  129.6566  156.6435   89.3989 LP  0  0  0  0  0  0  0  0  0  0  0  0  # atno 14711 bound_to 6091
  119.1847  150.4060   87.5902 LP  0  0  0  0  0  0  0  0  0  0  0  0  # atno 14720 bound_to 121 
  117.6019  148.9703   89.5395 LP  0  0  0  0  0  0  0  0  0  0  0  0  # atno 14727 bound_to 124 
  117.6446  147.3920   90.2516 LP  0  0  0  0  0  0  0  0  0  0  0  0  # atno 14728 bound_to 124 
  119.5695  153.6162   89.9765 LP  0  0  0  0  0  0  0  0  0  0  0  0  # atno 14729 bound_to 12724
  121.1525  153.9085   90.2512 LP  0  0  0  0  0  0  0  0  0  0  0  0  # atno 14730 bound_to 12724
  125.2681  139.4571   89.8565 LP  0  0  0  0  0  0  0  0  0  0  0  0  # atno 14733 bound_to 7585
  123.8476  139.0647   93.9874 LP  0  0  0  0  0  0  0  0  0  0  0  0  # atno 14734 bound_to 7588
  124.1196  140.4954   93.0497 LP  0  0  0  0  0  0  0  0  0  0  0  0  # atno 14735 bound_to 7588
  128.5877  150.9715   98.4658 LP  0  0  0  0  0  0  0  0  0  0  0  0  # atno 14738 bound_to 11469
  128.0357  149.5027   98.0136 LP  0  0  0  0  0  0  0  0  0  0  0  0  # atno 14739 bound_to 11469
  133.8655  138.9809   97.5379 LP  0  0  0  0  0  0  0  0  0  0  0  0  # atno 14744 bound_to 14097
  132.6375  137.9455   97.8325 LP  0  0  0  0  0  0  0  0  0  0  0  0  # atno 14745 bound_to 14097
  129.3300  143.2992  105.1728 LP  0  0  0  0  0  0  0  0  0  0  0  0  # atno 14762 bound_to 14248
  127.9122  144.1025  105.0675 LP  0  0  0  0  0  0  0  0  0  0  0  0  # atno 14763 bound_to 14248
  135.5101  153.5455  102.4864 LP  0  0  0  0  0  0  0  0  0  0  0  0  # atno 14798 bound_to 12654
  136.1028  154.8283  101.6680 LP  0  0  0  0  0  0  0  0  0  0  0  0  # atno 14799 bound_to 12654
  127.3353  146.9285  112.1291 LP  0  0  0  0  0  0  0  0  0  0  0  0  # atno 14808 bound_to 4821
  127.1012  144.1569  114.0948 LP  0  0  0  0  0  0  0  0  0  0  0  0  # atno 14809 bound_to 4826
  126.5893  143.0069  113.0546 LP  0  0  0  0  0  0  0  0  0  0  0  0  # atno 14810 bound_to 4826
  141.9771  144.5381  106.6609 LP  0  0  0  0  0  0  0  0  0  0  0  0  # atno 14815 bound_to 13062
  142.4783  146.0587  106.3396 LP  0  0  0  0  0  0  0  0  0  0  0  0  # atno 14816 bound_to 13062
  143.6360  137.7736  109.8518 LP  0  0  0  0  0  0  0  0  0  0  0  0  # atno 14820 bound_to 6477
  142.0847  137.4137  109.1705 LP  0  0  0  0  0  0  0  0  0  0  0  0  # atno 14821 bound_to 6477
  146.2470  138.6463  106.8577 LP  0  0  0  0  0  0  0  0  0  0  0  0  # atno 14822 bound_to 6474
  140.7343  135.9467  105.4916 LP  0  0  0  0  0  0  0  0  0  0  0  0  # atno 14827 bound_to 13124
  141.4181  135.2853  104.1643 LP  0  0  0  0  0  0  0  0  0  0  0  0  # atno 14828 bound_to 13124

> <Gold.Score>
     Fitness  S(hb_ext) S(vdw_ext)  S(hb_int)    S(int)      intcor
     38.95       0.00      28.86       0.00      -0.73      -0.76

> <Gold.Goldscore.Fitness>
38.9529

> <Gold.Goldscore.Internal.Vdw>
-0.7589

> <Gold.Goldscore.Internal.Torsion>
-0.7257

> <Gold.Goldscore.External.Vdw>
28.8575

> <Gold.Goldscore.Internal.HBond>
0.0000

> <Gold.Goldscore.External.HBond>
0.0000

> <Gold.Goldscore.Internal.Correction>
-0.7585

> <Gold.Goldscore.Internal.Vdw.Weighted>
-0.7589

> <Gold.Goldscore.Internal.Torsion.Weighted>
-0.7257

> <Gold.Goldscore.External.Vdw.Weighted>
39.6791

> <Gold.Goldscore.Internal.HBond.Weighted>
0.0000

> <Gold.Goldscore.External.HBond.Weighted>
0.0000

> <Gold.Goldscore.Internal.Correction.Weighted>
-0.7585

> <Gold.Rescore>
     Score     S(PLP)   S(hbond)     S(cho)   S(metal)  DE(clash)   DE(tors)     intcor
     36.66     -38.94       0.00       0.00       0.00       0.00       1.14       ----

> <Gold.PLP.Fitness>
36.6575

> <Gold.PLP.PLP>
-38.9355

> <Gold.PLP.part.hbond>
0.0000

> <Gold.PLP.part.metal>
0.0000

> <Gold.PLP.part.buried>
-0.1162

> <Gold.PLP.part.nonpolar>
-39.4624

> <Gold.PLP.part.repulsive>
0.8144

> <Gold.PLP.ligand.clash>
0.0000

> <Gold.PLP.ligand.torsion>
1.1390

> <Gold.PLP.Chemscore.Hbond>
0.0000

> <Gold.PLP.Chemscore.CHOScore>
0.0000

> <Gold.PLP.Chemscore.Metal>
0.0000

> <Gold.PLP.Chemscore.Internal.Correction>
   9.000000E+99

