#       Name:                CT1002167954
#       Creating user name   hitesit
#       Creation time:       Sun Apr 16 22:50:35 2023


#       File generated by GOLD software.
#

@<TRIPOS>MOLECULE
CT1002167954|ligand_prepared|mol2|1|dock10
    29    30     1
SMALL
NO_CHARGES


@<TRIPOS>ATOM
      1 C1         127.3303 143.2793  98.7481 C.3            1 RES1               0.0000
      2 C2         128.1961 143.6881  99.9573 C.ar           1 RES1               0.0000
      3 C3         128.2179 143.4279  97.5159 C.2            1 RES1               0.0000
      4 C4         126.8716 141.8501  99.0157 C.2            1 RES1               0.0000
      5 C5         126.0717 144.1569  98.5557 C.3            1 RES1               0.0000
      6 C6         129.3452 142.9725 100.2804 C.ar           1 RES1               0.0000
      7 C7         127.8606 144.7781 100.7560 C.ar           1 RES1               0.0000
      8 N8         128.6814 142.2871  96.9298 N.am           1 RES1               0.0000
      9 O9         128.5385 144.5301  97.0885 O.2            1 RES1               0.0000
     10 N10        127.3287 140.8624  98.1830 N.am           1 RES1               0.0000
     11 O11        126.1316 141.5679  99.9501 O.2            1 RES1               0.0000
     12 C12        125.2180 143.7517  97.3644 C.3            1 RES1               0.0000
     13 C13        130.1320 143.3352 101.3609 C.ar           1 RES1               0.0000
     14 C14        128.6488 145.1390 101.8363 C.ar           1 RES1               0.0000
     15 C15        128.2373 141.0118  97.1708 C.2            1 RES1               0.0000
     16 C16        129.7847 144.4188 102.1393 C.ar           1 RES1               0.0000
     17 O17        128.6415 140.0660  96.5006 O.2            1 RES1               0.0000
     18 H18        125.4595 144.1005  99.4642 H              1 RES1               0.0000
     19 H19        126.3850 145.2003  98.4268 H              1 RES1               0.0000
     20 H20        129.6330 142.1154  99.6808 H              1 RES1               0.0000
     21 H21        126.9709 145.3586 100.5371 H              1 RES1               0.0000
     22 H22        129.4274 142.3918  96.2494 H              1 RES1               0.0000
     23 H23        126.9573 139.9295  98.3313 H              1 RES1               0.0000
     24 H24        124.3483 144.3993  97.2750 H              1 RES1               0.0000
     25 H25        125.7880 143.8203  96.4402 H              1 RES1               0.0000
     26 H26        124.8680 142.7271  97.4714 H              1 RES1               0.0000
     27 H27        131.0242 142.7643 101.5960 H              1 RES1               0.0000
     28 H28        128.3713 145.9921 102.4465 H              1 RES1               0.0000
     29 H29        130.4015 144.7029 102.9855 H              1 RES1               0.0000
@<TRIPOS>BOND
    1    1    2 1     
    2    1    3 1     
    3    1    4 1     
    4    1    5 1     
    5    2    6 ar    
    6    2    7 ar    
    7    3    8 1     
    8    3    9 2     
    9    4   10 1     
   10    4   11 2     
   11    5   12 1     
   12    5   18 1     
   13    5   19 1     
   14    6   13 ar    
   15    6   20 1     
   16    7   14 ar    
   17    7   21 1     
   18    8   15 1     
   19    8   22 1     
   20   10   15 1     
   21   10   23 1     
   22   12   24 1     
   23   12   25 1     
   24   12   26 1     
   25   13   16 ar    
   26   13   27 1     
   27   14   16 ar    
   28   14   28 1     
   29   15   17 2     
   30   16   29 1     
@<TRIPOS>SUBSTRUCTURE
      1 RES1           1
@<TRIPOS>SET
DONOR_HYDROGENS      STATIC     ATOMS    <user>   **** ""
2 22 23
ATOM$RED        STATIC     ATOMS    COLORGROUP SYSTEM
2 22 23
@<TRIPOS>COMMENT
> <Gold.Version>
2022.3.0

> <Gold.Id.Protein>
unknown|7rmh_clean|pdb

> <Gold.Protein.RotatedTorsions>
[ 6069 6060 6061 6062 ] final   73.61 input   58.43 | X-H torsion
[ 6095 6088 6089 6090 ] final  -12.66 input   80.40 | X-H torsion
[ 12696 12688 12689 12690 ] final -149.74 input   27.23 | X-H torsion
[ 12955 12944 12943 12942 ] final  -45.46 input   60.02 | X-H torsion
[  140  121  122  123 ] final  166.94 input   59.99 | X-H torsion
[ 10534 10525 10526 10527 ] final  -78.86 input   86.97 | X-H torsion
[ 12729 12724 12723 12720 ] final -108.91 input   60.00 | X-H torsion
[ 7603 7585 7586 7587 ] final    3.21 input   21.72 | X-H torsion
[ 14135 14126 14127 14128 ] final  124.45 input  100.92 | X-H torsion
[ 11478 11469 11468 11466 ] final  -15.38 input   60.02 | X-H torsion
[ 14106 14097 14096 14094 ] final -101.75 input   60.00 | X-H torsion
[ 14257 14248 14247 14245 ] final -162.97 input   60.01 | X-H torsion
[ 12659 12654 12653 12650 ] final  -22.61 input   60.00 | X-H torsion
[ 11470 11458 11459 11460 ] final   28.53 input   94.06 | X-H torsion
[ 4828 4821 4822 4823 ] final -146.54 input   91.76 | X-H torsion
[ 4831 4826 4825 4822 ] final  -14.53 input   59.99 | X-H torsion
[ 13071 13062 13061 13059 ] final -123.90 input   60.03 | X-H torsion
[ 6490 6474 6475 6476 ] final  -29.83 input  103.68 | X-H torsion
[ 13126 13119 13120 13121 ] final  177.33 input  114.72 | X-H torsion
[ 13129 13124 13123 13120 ] final -126.50 input   59.98 | X-H torsion
[ 14703 6063 6062 6061 ] final  -45.45 input    0.00 | X-H torsion
[ 14710 6091 6090 6089 ] final -107.39 input   -0.00 | X-H torsion
[ 14727  124  123  122 ] final   23.38 input   -0.00 | X-H torsion
[ 14734 7588 7587 7586 ] final  117.25 input    0.00 | X-H torsion
[ 14820 6477 6476 6475 ] final -113.59 input   -0.00 | X-H torsion

> <Gold.Protein.ActiveResidues>
 ASN23   THR86   GLU172  THR173  VAL200  LYS280  GLN24   PHE25   GLN27   MET81  
 PHE84   ASN85   VAL88   ASN89   TYR92   ALA93   VAL94   HIS95   ASN96   GLU97  
 TRP98   TYR100  CYS105  HIS108  ASN109  PRO112  ILE113  VAL116  PHE117  LEU161 
 ALA162  GLN165  SER169  THR170  MET174  PRO175  SER176  ARG177  VAL178  VAL179 
 CYS180  MET181  ILE182  GLU183  TRP184  LYS190  TYR196  HIS197  THR201  ILE204 
 TRP261  PHE264  HIS265  PHE267  PHE268  LEU269  PRO271  PRO275  LEU277  TYR278 
 LEU279  LYS281  PHE282  ILE283  GLN284  GLN285  VAL286  TYR287  LEU288  ILE290 
 MET291  ALA294  MET295 

> <Gold.Protein.RotatedAtoms>
  120.0743  150.4743   87.3666 H   0  0  0  0  0  0  0  0  0  0  0  0  # atno 140  bound_to 121 
  120.1182  148.8562   87.0113 H   0  0  0  0  0  0  0  0  0  0  0  0  # atno 141  bound_to 121 
  127.9659  145.7359  112.5925 H   0  0  0  0  0  0  0  0  0  0  0  0  # atno 4828 bound_to 4821
  127.0616  143.5902  113.1379 H   0  0  0  0  0  0  0  0  0  0  0  0  # atno 4831 bound_to 4826
  131.9977  155.9600   95.8309 H   0  0  0  0  0  0  0  0  0  0  0  0  # atno 6069 bound_to 6060
  130.8716  157.4304   92.3505 H   0  0  0  0  0  0  0  0  0  0  0  0  # atno 6095 bound_to 6088
  145.6903  137.9400  106.4748 H   0  0  0  0  0  0  0  0  0  0  0  0  # atno 6490 bound_to 6474
  125.2511  139.8556   91.5563 H   0  0  0  0  0  0  0  0  0  0  0  0  # atno 7603 bound_to 7585
  119.5130  147.8155   89.8026 H   0  0  0  0  0  0  0  0  0  0  0  0  # atno 10534 bound_to 10525
  123.1219  148.6089  105.0529 H   0  0  0  0  0  0  0  0  0  0  0  0  # atno 11470 bound_to 11458
  128.0068  150.5663   98.0789 H   0  0  0  0  0  0  0  0  0  0  0  0  # atno 11478 bound_to 11469
  136.1415  154.9407  101.7568 H   0  0  0  0  0  0  0  0  0  0  0  0  # atno 12659 bound_to 12654
  128.5213  157.3685   90.6625 H   0  0  0  0  0  0  0  0  0  0  0  0  # atno 12696 bound_to 12688
  120.2676  154.1513   88.7759 H   0  0  0  0  0  0  0  0  0  0  0  0  # atno 12729 bound_to 12724
  140.3080  141.6506   90.6675 H   0  0  0  0  0  0  0  0  0  0  0  0  # atno 12955 bound_to 12944
  140.2539  142.4925   92.0938 H   0  0  0  0  0  0  0  0  0  0  0  0  # atno 12956 bound_to 12944
  139.6870  143.1872   90.6996 H   0  0  0  0  0  0  0  0  0  0  0  0  # atno 12957 bound_to 12944
  142.0393  144.4875  106.7283 H   0  0  0  0  0  0  0  0  0  0  0  0  # atno 13071 bound_to 13062
  142.9018  137.6559  106.2851 H   0  0  0  0  0  0  0  0  0  0  0  0  # atno 13126 bound_to 13119
  140.8215  135.2298  104.7231 H   0  0  0  0  0  0  0  0  0  0  0  0  # atno 13129 bound_to 13124
  132.3467  139.3450   98.2847 H   0  0  0  0  0  0  0  0  0  0  0  0  # atno 14106 bound_to 14097
  121.0670  138.9628   91.6451 H   0  0  0  0  0  0  0  0  0  0  0  0  # atno 14135 bound_to 14126
  127.9059  144.1810  104.9658 H   0  0  0  0  0  0  0  0  0  0  0  0  # atno 14257 bound_to 14248
  132.4762  157.6125   96.1561 LP  0  0  0  0  0  0  0  0  0  0  0  0  # atno 14702 bound_to 6060
  129.9254  155.5914   94.4444 LP  0  0  0  0  0  0  0  0  0  0  0  0  # atno 14703 bound_to 6063
  128.8690  156.9548   94.6030 LP  0  0  0  0  0  0  0  0  0  0  0  0  # atno 14704 bound_to 6063
  130.5653  158.7164   93.4993 LP  0  0  0  0  0  0  0  0  0  0  0  0  # atno 14709 bound_to 6088
  129.8712  157.7506   89.3218 LP  0  0  0  0  0  0  0  0  0  0  0  0  # atno 14710 bound_to 6091
  130.4198  156.5697   90.4639 LP  0  0  0  0  0  0  0  0  0  0  0  0  # atno 14711 bound_to 6091
  118.7213  149.5532   87.5308 LP  0  0  0  0  0  0  0  0  0  0  0  0  # atno 14720 bound_to 121 
  117.5522  148.8410   89.3391 LP  0  0  0  0  0  0  0  0  0  0  0  0  # atno 14727 bound_to 124 
  117.6943  147.5213   90.4519 LP  0  0  0  0  0  0  0  0  0  0  0  0  # atno 14728 bound_to 124 
  119.6965  153.5814   90.1890 LP  0  0  0  0  0  0  0  0  0  0  0  0  # atno 14729 bound_to 12724
  121.2692  153.9980   90.0491 LP  0  0  0  0  0  0  0  0  0  0  0  0  # atno 14730 bound_to 12724
  125.3110  139.3574   89.8802 LP  0  0  0  0  0  0  0  0  0  0  0  0  # atno 14733 bound_to 7585
  123.5099  140.5041   93.5547 LP  0  0  0  0  0  0  0  0  0  0  0  0  # atno 14734 bound_to 7588
  124.4573  139.0559   93.4823 LP  0  0  0  0  0  0  0  0  0  0  0  0  # atno 14735 bound_to 7588
  128.6446  149.0958   98.3594 LP  0  0  0  0  0  0  0  0  0  0  0  0  # atno 14738 bound_to 11469
  129.3920  150.4340   98.9226 LP  0  0  0  0  0  0  0  0  0  0  0  0  # atno 14739 bound_to 11469
  133.8200  139.1979   97.6086 LP  0  0  0  0  0  0  0  0  0  0  0  0  # atno 14744 bound_to 14097
  132.8415  137.8963   97.7318 LP  0  0  0  0  0  0  0  0  0  0  0  0  # atno 14745 bound_to 14097
  129.1925  144.2980  103.9763 LP  0  0  0  0  0  0  0  0  0  0  0  0  # atno 14762 bound_to 14248
  129.2326  143.2843  105.2559 LP  0  0  0  0  0  0  0  0  0  0  0  0  # atno 14763 bound_to 14248
  135.9074  154.7686  103.3579 LP  0  0  0  0  0  0  0  0  0  0  0  0  # atno 14798 bound_to 12654
  135.5272  153.5507  102.3386 LP  0  0  0  0  0  0  0  0  0  0  0  0  # atno 14799 bound_to 12654
  126.8888  147.0397  113.0145 LP  0  0  0  0  0  0  0  0  0  0  0  0  # atno 14808 bound_to 4821
  125.9197  142.7153  113.8990 LP  0  0  0  0  0  0  0  0  0  0  0  0  # atno 14809 bound_to 4826
  126.6468  143.9590  114.6679 LP  0  0  0  0  0  0  0  0  0  0  0  0  # atno 14810 bound_to 4826
  142.3936  146.0154  106.2951 LP  0  0  0  0  0  0  0  0  0  0  0  0  # atno 14815 bound_to 13062
  143.3345  145.2308  107.3748 LP  0  0  0  0  0  0  0  0  0  0  0  0  # atno 14816 bound_to 13062
  143.3748  136.9012  109.5876 LP  0  0  0  0  0  0  0  0  0  0  0  0  # atno 14820 bound_to 6477
  142.3460  138.2862  109.4347 LP  0  0  0  0  0  0  0  0  0  0  0  0  # atno 14821 bound_to 6477
  145.6041  139.6133  106.0052 LP  0  0  0  0  0  0  0  0  0  0  0  0  # atno 14822 bound_to 6474
  142.1110  136.0839  104.2175 LP  0  0  0  0  0  0  0  0  0  0  0  0  # atno 14827 bound_to 13124
  141.2727  136.5671  105.5329 LP  0  0  0  0  0  0  0  0  0  0  0  0  # atno 14828 bound_to 13124

> <Gold.Score>
     Fitness  S(hb_ext) S(vdw_ext)  S(hb_int)    S(int)      intcor
     36.42       0.23      26.35       0.00      -0.04      -0.76

> <Gold.Goldscore.Fitness>
36.4221

> <Gold.Goldscore.Internal.Vdw>
-0.4306

> <Gold.Goldscore.Internal.Torsion>
-0.3672

> <Gold.Goldscore.External.Vdw>
26.3519

> <Gold.Goldscore.Internal.HBond>
0.0000

> <Gold.Goldscore.External.HBond>
0.2275

> <Gold.Goldscore.Internal.Correction>
-0.7585

> <Gold.Goldscore.Hbonds>
donor molecule, donor type, donor heavy atom, donor atom, acceptor molecule, acceptor atom, score
      L1  H    10    23       P1 14171  0.11

> <Gold.Goldscore.Internal.Vdw.Weighted>
-0.4306

> <Gold.Goldscore.Internal.Torsion.Weighted>
-0.3672

> <Gold.Goldscore.External.Vdw.Weighted>
36.2339

> <Gold.Goldscore.Internal.HBond.Weighted>
0.0000

> <Gold.Goldscore.External.HBond.Weighted>
0.2275

> <Gold.Goldscore.Internal.Correction.Weighted>
-0.7585

> <Gold.Rescore>
     Score     S(PLP)   S(hbond)     S(cho)   S(metal)  DE(clash)   DE(tors)     intcor
     35.20     -34.30       0.67       0.00       0.00       0.00       0.55       ----

> <Gold.PLP.Fitness>
35.2022

> <Gold.PLP.PLP>
-34.2953

> <Gold.PLP.part.hbond>
-1.0000

> <Gold.PLP.part.metal>
0.0000

> <Gold.PLP.part.buried>
-0.7741

> <Gold.PLP.part.nonpolar>
-32.4999

> <Gold.PLP.part.repulsive>
0.3249

> <Gold.PLP.ligand.clash>
0.0000

> <Gold.PLP.ligand.torsion>
0.5545

> <Gold.PLP.Chemscore.Hbond>
0.6720

> <Gold.PLP.Chemscore.CHOScore>
0.0000

> <Gold.PLP.Chemscore.Metal>
0.0000

> <Gold.Chemscore.Hbonds>
donor molecule, donor type, donor heavy atom, donor atom, acceptor molecule, acceptor atom, score
      L1  H    10    23       P1 14171  0.47

> <Gold.PLP.Chemscore.Internal.Correction>
   9.000000E+99

