#       Name:                CT1002167954
#       Creating user name   hitesit
#       Creation time:       Sun Apr 16 22:50:28 2023


#       File generated by GOLD software.
#

@<TRIPOS>MOLECULE
CT1002167954|ligand_prepared|mol2|1|dock5
    29    30     1
SMALL
NO_CHARGES


@<TRIPOS>ATOM
      1 C1         129.1959 142.9059  98.1381 C.3            1 RES1               0.0000
      2 C2         128.3522 143.7287  99.1330 C.ar           1 RES1               0.0000
      3 C3         129.7037 143.8914  97.0896 C.2            1 RES1               0.0000
      4 C4         130.2993 142.2463  98.9578 C.2            1 RES1               0.0000
      5 C5         128.4023 141.7899  97.4196 C.3            1 RES1               0.0000
      6 C6         126.9712 143.5681  99.1933 C.ar           1 RES1               0.0000
      7 C7         128.9400 144.6486  99.9973 C.ar           1 RES1               0.0000
      8 N8         131.0206 144.2426  97.1380 N.am           1 RES1               0.0000
      9 O9         128.9514 144.3831  96.2575 O.2            1 RES1               0.0000
     10 N10        131.5931 142.6289  98.7185 N.am           1 RES1               0.0000
     11 O11        130.0585 141.4107  99.8205 O.2            1 RES1               0.0000
     12 C12        129.2526 140.9279  96.4997 C.3            1 RES1               0.0000
     13 C13        126.2057 144.2984 100.0872 C.ar           1 RES1               0.0000
     14 C14        128.1726 145.3781 100.8903 C.ar           1 RES1               0.0000
     15 C15        132.0012 143.6194  97.8673 C.2            1 RES1               0.0000
     16 C16        126.8058 145.2035 100.9365 C.ar           1 RES1               0.0000
     17 O17        133.1791 143.9435  97.7465 O.2            1 RES1               0.0000
     18 H18        127.9356 141.1460  98.1752 H              1 RES1               0.0000
     19 H19        127.6001 142.2506  96.8300 H              1 RES1               0.0000
     20 H20        126.4810 142.8623  98.5310 H              1 RES1               0.0000
     21 H21        130.0135 144.8033  99.9778 H              1 RES1               0.0000
     22 H22        131.3023 145.0427  96.5805 H              1 RES1               0.0000
     23 H23        132.3194 142.1290  99.2214 H              1 RES1               0.0000
     24 H24        128.6471 140.1611  96.0210 H              1 RES1               0.0000
     25 H25        129.7120 141.5324  95.7203 H              1 RES1               0.0000
     26 H26        130.0456 140.4343  97.0576 H              1 RES1               0.0000
     27 H27        125.1303 144.1583 100.1186 H              1 RES1               0.0000
     28 H28        128.6491 146.0898 101.5564 H              1 RES1               0.0000
     29 H29        126.2060 145.7752 101.6369 H              1 RES1               0.0000
@<TRIPOS>BOND
    1    1    2 1     
    2    1    3 1     
    3    1    4 1     
    4    1    5 1     
    5    2    6 ar    
    6    2    7 ar    
    7    3    8 1     
    8    3    9 2     
    9    4   10 1     
   10    4   11 2     
   11    5   12 1     
   12    5   18 1     
   13    5   19 1     
   14    6   13 ar    
   15    6   20 1     
   16    7   14 ar    
   17    7   21 1     
   18    8   15 1     
   19    8   22 1     
   20   10   15 1     
   21   10   23 1     
   22   12   24 1     
   23   12   25 1     
   24   12   26 1     
   25   13   16 ar    
   26   13   27 1     
   27   14   16 ar    
   28   14   28 1     
   29   15   17 2     
   30   16   29 1     
@<TRIPOS>SUBSTRUCTURE
      1 RES1           1
@<TRIPOS>SET
DONOR_HYDROGENS      STATIC     ATOMS    <user>   **** ""
2 22 23
ATOM$RED        STATIC     ATOMS    COLORGROUP SYSTEM
2 22 23
@<TRIPOS>COMMENT
> <Gold.Version>
2022.3.0

> <Gold.Id.Protein>
unknown|7rmh_clean|pdb

> <Gold.Protein.RotatedTorsions>
[ 6069 6060 6061 6062 ] final   16.56 input   58.43 | X-H torsion
[ 6095 6088 6089 6090 ] final -172.63 input   80.40 | X-H torsion
[ 12696 12688 12689 12690 ] final -178.86 input   27.23 | X-H torsion
[ 12955 12944 12943 12942 ] final  168.46 input   60.02 | X-H torsion
[  140  121  122  123 ] final  -72.07 input   59.99 | X-H torsion
[ 10534 10525 10526 10527 ] final   65.86 input   86.97 | X-H torsion
[ 12729 12724 12723 12720 ] final   64.22 input   60.00 | X-H torsion
[ 7603 7585 7586 7587 ] final -156.92 input   21.72 | X-H torsion
[ 14135 14126 14127 14128 ] final  -41.13 input  100.92 | X-H torsion
[ 11478 11469 11468 11466 ] final -115.26 input   60.02 | X-H torsion
[ 14106 14097 14096 14094 ] final -114.43 input   60.00 | X-H torsion
[ 14257 14248 14247 14245 ] final   40.42 input   60.01 | X-H torsion
[ 12659 12654 12653 12650 ] final  144.21 input   60.00 | X-H torsion
[ 11470 11458 11459 11460 ] final  165.56 input   94.06 | X-H torsion
[ 4828 4821 4822 4823 ] final   98.78 input   91.76 | X-H torsion
[ 4831 4826 4825 4822 ] final  138.46 input   59.99 | X-H torsion
[ 13071 13062 13061 13059 ] final   97.76 input   60.03 | X-H torsion
[ 6490 6474 6475 6476 ] final    4.56 input  103.68 | X-H torsion
[ 13126 13119 13120 13121 ] final  -95.29 input  114.72 | X-H torsion
[ 13129 13124 13123 13120 ] final -116.33 input   59.98 | X-H torsion
[ 14703 6063 6062 6061 ] final  137.28 input    0.00 | X-H torsion
[ 14710 6091 6090 6089 ] final  127.40 input   -0.00 | X-H torsion
[ 14727  124  123  122 ] final  -63.60 input   -0.00 | X-H torsion
[ 14734 7588 7587 7586 ] final    6.50 input    0.00 | X-H torsion
[ 14820 6477 6476 6475 ] final   65.54 input   -0.00 | X-H torsion

> <Gold.Protein.ActiveResidues>
 ASN23   THR86   GLU172  THR173  VAL200  LYS280  GLN24   PHE25   GLN27   MET81  
 PHE84   ASN85   VAL88   ASN89   TYR92   ALA93   VAL94   HIS95   ASN96   GLU97  
 TRP98   TYR100  CYS105  HIS108  ASN109  PRO112  ILE113  VAL116  PHE117  LEU161 
 ALA162  GLN165  SER169  THR170  MET174  PRO175  SER176  ARG177  VAL178  VAL179 
 CYS180  MET181  ILE182  GLU183  TRP184  LYS190  TYR196  HIS197  THR201  ILE204 
 TRP261  PHE264  HIS265  PHE267  PHE268  LEU269  PRO271  PRO275  LEU277  TYR278 
 LEU279  LYS281  PHE282  ILE283  GLN284  GLN285  VAL286  TYR287  LEU288  ILE290 
 MET291  ALA294  MET295 

> <Gold.Protein.RotatedAtoms>
  120.1044  148.8474   87.0135 H   0  0  0  0  0  0  0  0  0  0  0  0  # atno 140  bound_to 121 
  118.7060  149.5692   87.5327 H   0  0  0  0  0  0  0  0  0  0  0  0  # atno 141  bound_to 121 
  127.1155  146.3580  113.6219 H   0  0  0  0  0  0  0  0  0  0  0  0  # atno 4828 bound_to 4821
  126.2696  143.5979  114.7779 H   0  0  0  0  0  0  0  0  0  0  0  0  # atno 4831 bound_to 4826
  131.3932  156.5290   96.0158 H   0  0  0  0  0  0  0  0  0  0  0  0  # atno 6069 bound_to 6060
  130.4443  158.4976   93.6779 H   0  0  0  0  0  0  0  0  0  0  0  0  # atno 6095 bound_to 6088
  145.3216  137.9791  106.1188 H   0  0  0  0  0  0  0  0  0  0  0  0  # atno 6490 bound_to 6474
  125.1768  139.6236   89.8231 H   0  0  0  0  0  0  0  0  0  0  0  0  # atno 7603 bound_to 7585
  120.9856  147.0147   89.9214 H   0  0  0  0  0  0  0  0  0  0  0  0  # atno 10534 bound_to 10525
  123.6546  150.1391  105.3633 H   0  0  0  0  0  0  0  0  0  0  0  0  # atno 11470 bound_to 11458
  128.3719  149.1859   98.2005 H   0  0  0  0  0  0  0  0  0  0  0  0  # atno 11478 bound_to 11469
  135.5384  153.7548  103.0566 H   0  0  0  0  0  0  0  0  0  0  0  0  # atno 12659 bound_to 12654
  128.5065  156.9876   90.9119 H   0  0  0  0  0  0  0  0  0  0  0  0  # atno 12696 bound_to 12688
  120.6601  153.7029   90.5471 H   0  0  0  0  0  0  0  0  0  0  0  0  # atno 12729 bound_to 12724
  139.7146  143.3253   91.1078 H   0  0  0  0  0  0  0  0  0  0  0  0  # atno 12955 bound_to 12944
  140.1403  141.9074   90.3633 H   0  0  0  0  0  0  0  0  0  0  0  0  # atno 12956 bound_to 12944
  140.3941  142.0975   91.9902 H   0  0  0  0  0  0  0  0  0  0  0  0  # atno 12957 bound_to 12944
  142.6408  146.1050  106.4386 H   0  0  0  0  0  0  0  0  0  0  0  0  # atno 13071 bound_to 13062
  143.0649  137.8061  107.4835 H   0  0  0  0  0  0  0  0  0  0  0  0  # atno 13126 bound_to 13119
  140.7457  135.2901  104.8578 H   0  0  0  0  0  0  0  0  0  0  0  0  # atno 13129 bound_to 13124
  132.4858  139.4959   98.2592 H   0  0  0  0  0  0  0  0  0  0  0  0  # atno 14106 bound_to 14097
  122.5908  138.5419   92.4049 H   0  0  0  0  0  0  0  0  0  0  0  0  # atno 14135 bound_to 14126
  129.5623  143.9120  104.2264 H   0  0  0  0  0  0  0  0  0  0  0  0  # atno 14257 bound_to 14248
  133.0602  157.0628   95.9774 LP  0  0  0  0  0  0  0  0  0  0  0  0  # atno 14702 bound_to 6060
  128.8524  156.9449   94.5664 LP  0  0  0  0  0  0  0  0  0  0  0  0  # atno 14703 bound_to 6063
  129.9420  155.6013   94.4809 LP  0  0  0  0  0  0  0  0  0  0  0  0  # atno 14704 bound_to 6063
  130.9773  157.6874   92.2195 LP  0  0  0  0  0  0  0  0  0  0  0  0  # atno 14709 bound_to 6088
  129.9334  156.3206   89.8839 LP  0  0  0  0  0  0  0  0  0  0  0  0  # atno 14710 bound_to 6091
  130.3577  157.9997   89.9018 LP  0  0  0  0  0  0  0  0  0  0  0  0  # atno 14711 bound_to 6091
  120.0827  150.4543   87.3651 LP  0  0  0  0  0  0  0  0  0  0  0  0  # atno 14720 bound_to 121 
  117.7877  148.7733   90.5057 LP  0  0  0  0  0  0  0  0  0  0  0  0  # atno 14727 bound_to 124 
  117.4588  147.5890   89.2854 LP  0  0  0  0  0  0  0  0  0  0  0  0  # atno 14728 bound_to 124 
  121.0510  154.2473   89.0643 LP  0  0  0  0  0  0  0  0  0  0  0  0  # atno 14729 bound_to 12724
  119.5193  153.7838   89.3895 LP  0  0  0  0  0  0  0  0  0  0  0  0  # atno 14730 bound_to 12724
  125.3830  139.5823   91.5600 LP  0  0  0  0  0  0  0  0  0  0  0  0  # atno 14733 bound_to 7585
  124.6249  139.8614   92.9422 LP  0  0  0  0  0  0  0  0  0  0  0  0  # atno 14734 bound_to 7588
  123.3423  139.6987   94.0948 LP  0  0  0  0  0  0  0  0  0  0  0  0  # atno 14735 bound_to 7588
  129.4759  150.1168   98.9505 LP  0  0  0  0  0  0  0  0  0  0  0  0  # atno 14738 bound_to 11469
  128.1930  150.8032   98.2091 LP  0  0  0  0  0  0  0  0  0  0  0  0  # atno 14739 bound_to 11469
  133.8631  139.0046   97.5445 LP  0  0  0  0  0  0  0  0  0  0  0  0  # atno 14744 bound_to 14097
  132.6583  137.9377   97.8216 LP  0  0  0  0  0  0  0  0  0  0  0  0  # atno 14745 bound_to 14097
  128.6978  143.3711  105.4946 LP  0  0  0  0  0  0  0  0  0  0  0  0  # atno 14762 bound_to 14248
  128.0596  144.4820  104.4820 LP  0  0  0  0  0  0  0  0  0  0  0  0  # atno 14763 bound_to 14248
  135.8917  154.2673  101.5532 LP  0  0  0  0  0  0  0  0  0  0  0  0  # atno 14798 bound_to 12654
  136.1503  155.2461  102.8345 LP  0  0  0  0  0  0  0  0  0  0  0  0  # atno 14799 bound_to 12654
  127.7326  146.4224  111.9930 LP  0  0  0  0  0  0  0  0  0  0  0  0  # atno 14808 bound_to 4821
  127.2113  143.9535  113.4990 LP  0  0  0  0  0  0  0  0  0  0  0  0  # atno 14809 bound_to 4826
  126.1525  142.7130  113.4170 LP  0  0  0  0  0  0  0  0  0  0  0  0  # atno 14810 bound_to 4826
  143.2312  144.9531  107.4246 LP  0  0  0  0  0  0  0  0  0  0  0  0  # atno 14815 bound_to 13062
  141.8912  144.6641  106.5371 LP  0  0  0  0  0  0  0  0  0  0  0  0  # atno 14816 bound_to 13062
  142.3555  138.2937  109.4398 LP  0  0  0  0  0  0  0  0  0  0  0  0  # atno 14820 bound_to 6477
  143.3653  136.8937  109.5825 LP  0  0  0  0  0  0  0  0  0  0  0  0  # atno 14821 bound_to 6477
  145.9734  139.5742  106.3616 LP  0  0  0  0  0  0  0  0  0  0  0  0  # atno 14822 bound_to 6474
  142.0533  135.9452  104.1443 LP  0  0  0  0  0  0  0  0  0  0  0  0  # atno 14827 bound_to 13124
  141.4067  136.6450  105.4704 LP  0  0  0  0  0  0  0  0  0  0  0  0  # atno 14828 bound_to 13124

> <Gold.Score>
     Fitness  S(hb_ext) S(vdw_ext)  S(hb_int)    S(int)      intcor
     28.87       0.00      21.58       0.00      -0.80      -0.76

> <Gold.Goldscore.Fitness>
28.8745

> <Gold.Goldscore.Internal.Vdw>
-1.1774

> <Gold.Goldscore.Internal.Torsion>
-0.3834

> <Gold.Goldscore.External.Vdw>
21.5831

> <Gold.Goldscore.Internal.HBond>
0.0000

> <Gold.Goldscore.External.HBond>
0.0000

> <Gold.Goldscore.Internal.Correction>
-0.7585

> <Gold.Goldscore.Internal.Vdw.Weighted>
-1.1774

> <Gold.Goldscore.Internal.Torsion.Weighted>
-0.3834

> <Gold.Goldscore.External.Vdw.Weighted>
29.6767

> <Gold.Goldscore.Internal.HBond.Weighted>
0.0000

> <Gold.Goldscore.External.HBond.Weighted>
0.0000

> <Gold.Goldscore.Internal.Correction.Weighted>
-0.7585

> <Gold.Rescore>
     Score     S(PLP)   S(hbond)     S(cho)   S(metal)  DE(clash)   DE(tors)     intcor
     37.10     -38.29       0.00       0.00       0.00       0.00       0.60       ----

> <Gold.PLP.Fitness>
37.0986

> <Gold.PLP.PLP>
-38.2915

> <Gold.PLP.part.hbond>
0.0000

> <Gold.PLP.part.metal>
0.0000

> <Gold.PLP.part.buried>
-3.7058

> <Gold.PLP.part.nonpolar>
-35.2218

> <Gold.PLP.part.repulsive>
0.0077

> <Gold.PLP.ligand.clash>
0.0000

> <Gold.PLP.ligand.torsion>
0.5965

> <Gold.PLP.Chemscore.Hbond>
0.0000

> <Gold.PLP.Chemscore.CHOScore>
0.0000

> <Gold.PLP.Chemscore.Metal>
0.0000

> <Gold.PLP.Chemscore.Internal.Correction>
   9.000000E+99

