#       Name:                CT1002167954
#       Creating user name   hitesit
#       Creation time:       Sun Apr 16 22:50:26 2023


#       File generated by GOLD software.
#

@<TRIPOS>MOLECULE
CT1002167954|ligand_prepared|mol2|1|dock3
    29    30     1
SMALL
NO_CHARGES


@<TRIPOS>ATOM
      1 C1         128.4963 144.3096  99.3444 C.3            1 RES1               0.0000
      2 C2         128.5745 143.1005  98.3901 C.ar           1 RES1               0.0000
      3 C3         129.6428 144.1460 100.3380 C.2            1 RES1               0.0000
      4 C4         128.6052 145.5525  98.4680 C.2            1 RES1               0.0000
      5 C5         127.1700 144.3970 100.1348 C.3            1 RES1               0.0000
      6 C6         127.9195 141.9117  98.6974 C.ar           1 RES1               0.0000
      7 C7         129.2942 143.1595  97.1996 C.ar           1 RES1               0.0000
      8 N8         130.7228 144.9668 100.1972 N.am           1 RES1               0.0000
      9 O9         129.6169 143.2835 101.2072 O.2            1 RES1               0.0000
     10 N10        129.7118 146.3471  98.6153 N.am           1 RES1               0.0000
     11 O11        127.7506 145.8419  97.6396 O.2            1 RES1               0.0000
     12 C12        126.9673 145.7248 100.8475 C.3            1 RES1               0.0000
     13 C13        127.9793 140.8223  97.8442 C.ar           1 RES1               0.0000
     14 C14        129.3529 142.0688  96.3479 C.ar           1 RES1               0.0000
     15 C15        130.7903 146.0941  99.4185 C.2            1 RES1               0.0000
     16 C16        128.6956 140.9002  96.6688 C.ar           1 RES1               0.0000
     17 O17        131.7732 146.8286  99.4561 O.2            1 RES1               0.0000
     18 H18        126.3348 144.2371  99.4418 H              1 RES1               0.0000
     19 H19        127.1481 143.5905 100.8781 H              1 RES1               0.0000
     20 H20        127.3529 141.8309  99.6191 H              1 RES1               0.0000
     21 H21        129.8201 144.0682  96.9272 H              1 RES1               0.0000
     22 H22        131.5574 144.7196 100.7193 H              1 RES1               0.0000
     23 H23        129.7336 147.2070  98.0763 H              1 RES1               0.0000
     24 H24        126.0222 145.7330 101.3864 H              1 RES1               0.0000
     25 H25        127.7670 145.9046 101.5631 H              1 RES1               0.0000
     26 H26        126.9585 146.5474 100.1353 H              1 RES1               0.0000
     27 H27        127.4613 139.9044  98.1020 H              1 RES1               0.0000
     28 H28        129.9184 142.1344  95.4242 H              1 RES1               0.0000
     29 H29        128.7419 140.0468  96.0004 H              1 RES1               0.0000
@<TRIPOS>BOND
    1    1    2 1     
    2    1    3 1     
    3    1    4 1     
    4    1    5 1     
    5    2    6 ar    
    6    2    7 ar    
    7    3    8 1     
    8    3    9 2     
    9    4   10 1     
   10    4   11 2     
   11    5   12 1     
   12    5   18 1     
   13    5   19 1     
   14    6   13 ar    
   15    6   20 1     
   16    7   14 ar    
   17    7   21 1     
   18    8   15 1     
   19    8   22 1     
   20   10   15 1     
   21   10   23 1     
   22   12   24 1     
   23   12   25 1     
   24   12   26 1     
   25   13   16 ar    
   26   13   27 1     
   27   14   16 ar    
   28   14   28 1     
   29   15   17 2     
   30   16   29 1     
@<TRIPOS>SUBSTRUCTURE
      1 RES1           1
@<TRIPOS>SET
DONOR_HYDROGENS      STATIC     ATOMS    <user>   **** ""
2 22 23
ATOM$RED        STATIC     ATOMS    COLORGROUP SYSTEM
2 22 23
@<TRIPOS>COMMENT
> <Gold.Version>
2022.3.0

> <Gold.Id.Protein>
unknown|7rmh_clean|pdb

> <Gold.Protein.RotatedTorsions>
[ 6069 6060 6061 6062 ] final  168.69 input   58.43 | X-H torsion
[ 6095 6088 6089 6090 ] final  136.74 input   80.40 | X-H torsion
[ 12696 12688 12689 12690 ] final   -5.06 input   27.23 | X-H torsion
[ 12955 12944 12943 12942 ] final   76.02 input   60.02 | X-H torsion
[  140  121  122  123 ] final  -29.94 input   59.99 | X-H torsion
[ 10534 10525 10526 10527 ] final  -47.95 input   86.97 | X-H torsion
[ 12729 12724 12723 12720 ] final    5.39 input   60.00 | X-H torsion
[ 7603 7585 7586 7587 ] final   71.86 input   21.72 | X-H torsion
[ 14135 14126 14127 14128 ] final  137.05 input  100.92 | X-H torsion
[ 11478 11469 11468 11466 ] final    1.96 input   60.02 | X-H torsion
[ 14106 14097 14096 14094 ] final  -72.07 input   60.00 | X-H torsion
[ 14257 14248 14247 14245 ] final   86.88 input   60.01 | X-H torsion
[ 12659 12654 12653 12650 ] final   31.87 input   60.00 | X-H torsion
[ 11470 11458 11459 11460 ] final    5.68 input   94.06 | X-H torsion
[ 4828 4821 4822 4823 ] final  168.61 input   91.76 | X-H torsion
[ 4831 4826 4825 4822 ] final   30.08 input   59.99 | X-H torsion
[ 13071 13062 13061 13059 ] final -103.19 input   60.03 | X-H torsion
[ 6490 6474 6475 6476 ] final  -29.00 input  103.68 | X-H torsion
[ 13126 13119 13120 13121 ] final    2.95 input  114.72 | X-H torsion
[ 13129 13124 13123 13120 ] final  -10.41 input   59.98 | X-H torsion
[ 14703 6063 6062 6061 ] final  122.92 input    0.00 | X-H torsion
[ 14710 6091 6090 6089 ] final   52.60 input   -0.00 | X-H torsion
[ 14727  124  123  122 ] final  -68.93 input   -0.00 | X-H torsion
[ 14734 7588 7587 7586 ] final   -7.54 input    0.00 | X-H torsion
[ 14820 6477 6476 6475 ] final  123.44 input   -0.00 | X-H torsion

> <Gold.Protein.ActiveResidues>
 ASN23   THR86   GLU172  THR173  VAL200  LYS280  GLN24   PHE25   GLN27   MET81  
 PHE84   ASN85   VAL88   ASN89   TYR92   ALA93   VAL94   HIS95   ASN96   GLU97  
 TRP98   TYR100  CYS105  HIS108  ASN109  PRO112  ILE113  VAL116  PHE117  LEU161 
 ALA162  GLN165  SER169  THR170  MET174  PRO175  SER176  ARG177  VAL178  VAL179 
 CYS180  MET181  ILE182  GLU183  TRP184  LYS190  TYR196  HIS197  THR201  ILE204 
 TRP261  PHE264  HIS265  PHE267  PHE268  LEU269  PRO271  PRO275  LEU277  TYR278 
 LEU279  LYS281  PHE282  ILE283  GLN284  GLN285  VAL286  TYR287  LEU288  ILE290 
 MET291  ALA294  MET295 

> <Gold.Protein.RotatedAtoms>
  119.4475  148.7013   87.1547 H   0  0  0  0  0  0  0  0  0  0  0  0  # atno 140  bound_to 121 
  118.9392  150.2121   87.6080 H   0  0  0  0  0  0  0  0  0  0  0  0  # atno 141  bound_to 121 
  127.7375  145.6853  113.2175 H   0  0  0  0  0  0  0  0  0  0  0  0  # atno 4828 bound_to 4821
  127.2049  144.0430  113.6669 H   0  0  0  0  0  0  0  0  0  0  0  0  # atno 4831 bound_to 4826
  133.1100  156.6586   95.8628 H   0  0  0  0  0  0  0  0  0  0  0  0  # atno 6069 bound_to 6060
  130.7088  158.9556   93.1287 H   0  0  0  0  0  0  0  0  0  0  0  0  # atno 6095 bound_to 6088
  145.6811  137.9374  106.4667 H   0  0  0  0  0  0  0  0  0  0  0  0  # atno 6490 bound_to 6474
  125.5840  138.9639   91.2435 H   0  0  0  0  0  0  0  0  0  0  0  0  # atno 7603 bound_to 7585
  119.7568  147.7850   90.2031 H   0  0  0  0  0  0  0  0  0  0  0  0  # atno 10534 bound_to 10525
  122.8160  148.6811  104.8960 H   0  0  0  0  0  0  0  0  0  0  0  0  # atno 11470 bound_to 11458
  128.1650  150.7707   98.1922 H   0  0  0  0  0  0  0  0  0  0  0  0  # atno 11478 bound_to 11469
  135.8467  154.1546  101.5854 H   0  0  0  0  0  0  0  0  0  0  0  0  # atno 12659 bound_to 12654
  126.8713  157.7586   90.9891 H   0  0  0  0  0  0  0  0  0  0  0  0  # atno 12696 bound_to 12688
  121.2909  154.0311   89.9642 H   0  0  0  0  0  0  0  0  0  0  0  0  # atno 12729 bound_to 12724
  140.2454  142.5159   92.0939 H   0  0  0  0  0  0  0  0  0  0  0  0  # atno 12955 bound_to 12944
  139.6880  143.1741   90.6789 H   0  0  0  0  0  0  0  0  0  0  0  0  # atno 12956 bound_to 12944
  140.3156  141.6400   90.6883 H   0  0  0  0  0  0  0  0  0  0  0  0  # atno 12957 bound_to 12944
  142.2656  144.3772  106.9517 H   0  0  0  0  0  0  0  0  0  0  0  0  # atno 13071 bound_to 13062
  144.2403  137.1936  107.3339 H   0  0  0  0  0  0  0  0  0  0  0  0  # atno 13126 bound_to 13119
  141.2242  136.5268  105.5470 H   0  0  0  0  0  0  0  0  0  0  0  0  # atno 13129 bound_to 13124
  132.1546  138.9058   98.2659 H   0  0  0  0  0  0  0  0  0  0  0  0  # atno 14106 bound_to 14097
  121.1159  139.1504   91.6437 H   0  0  0  0  0  0  0  0  0  0  0  0  # atno 14135 bound_to 14126
  129.0519  144.3763  103.9629 H   0  0  0  0  0  0  0  0  0  0  0  0  # atno 14257 bound_to 14248
  131.4016  156.9376   96.1252 LP  0  0  0  0  0  0  0  0  0  0  0  0  # atno 14702 bound_to 6060
  128.9527  156.9794   94.7552 LP  0  0  0  0  0  0  0  0  0  0  0  0  # atno 14703 bound_to 6063
  129.8416  155.5668   94.2922 LP  0  0  0  0  0  0  0  0  0  0  0  0  # atno 14704 bound_to 6063
  130.7223  157.2459   92.7490 LP  0  0  0  0  0  0  0  0  0  0  0  0  # atno 14709 bound_to 6088
  130.5584  156.8144   90.5711 LP  0  0  0  0  0  0  0  0  0  0  0  0  # atno 14710 bound_to 6091
  129.7326  157.5059   89.2146 LP  0  0  0  0  0  0  0  0  0  0  0  0  # atno 14711 bound_to 6091
  120.5005  149.9650   87.1518 LP  0  0  0  0  0  0  0  0  0  0  0  0  # atno 14720 bound_to 121 
  117.7944  148.7123   90.5578 LP  0  0  0  0  0  0  0  0  0  0  0  0  # atno 14727 bound_to 124 
  117.4521  147.6500   89.2332 LP  0  0  0  0  0  0  0  0  0  0  0  0  # atno 14728 bound_to 124 
  120.1775  154.1262   88.7814 LP  0  0  0  0  0  0  0  0  0  0  0  0  # atno 14729 bound_to 12724
  119.7573  153.5743   90.2597 LP  0  0  0  0  0  0  0  0  0  0  0  0  # atno 14730 bound_to 12724
  124.9884  140.2218   90.1833 LP  0  0  0  0  0  0  0  0  0  0  0  0  # atno 14733 bound_to 7585
  124.6697  139.6637   93.0030 LP  0  0  0  0  0  0  0  0  0  0  0  0  # atno 14734 bound_to 7588
  123.2975  139.8964   94.0340 LP  0  0  0  0  0  0  0  0  0  0  0  0  # atno 14735 bound_to 7588
  128.4073  149.1618   98.2176 LP  0  0  0  0  0  0  0  0  0  0  0  0  # atno 14738 bound_to 11469
  129.4699  150.1621   98.9503 LP  0  0  0  0  0  0  0  0  0  0  0  0  # atno 14739 bound_to 11469
  133.5702  139.5626   97.8032 LP  0  0  0  0  0  0  0  0  0  0  0  0  # atno 14744 bound_to 14097
  133.2847  137.9738   97.5561 LP  0  0  0  0  0  0  0  0  0  0  0  0  # atno 14745 bound_to 14097
  129.3535  143.3049  105.1501 LP  0  0  0  0  0  0  0  0  0  0  0  0  # atno 14762 bound_to 14248
  127.9178  144.0808  105.0919 LP  0  0  0  0  0  0  0  0  0  0  0  0  # atno 14763 bound_to 14248
  136.1753  155.2785  102.7153 LP  0  0  0  0  0  0  0  0  0  0  0  0  # atno 14798 bound_to 12654
  135.5563  153.8324  103.1537 LP  0  0  0  0  0  0  0  0  0  0  0  0  # atno 14799 bound_to 12654
  127.1153  147.0900  112.3943 LP  0  0  0  0  0  0  0  0  0  0  0  0  # atno 14808 bound_to 4821
  126.2701  142.7690  113.2773 LP  0  0  0  0  0  0  0  0  0  0  0  0  # atno 14809 bound_to 4826
  126.1522  143.4495  114.7570 LP  0  0  0  0  0  0  0  0  0  0  0  0  # atno 14810 bound_to 4826
  142.1406  145.8128  106.1960 LP  0  0  0  0  0  0  0  0  0  0  0  0  # atno 14815 bound_to 13062
  143.3596  145.5445  107.2489 LP  0  0  0  0  0  0  0  0  0  0  0  0  # atno 14816 bound_to 13062
  142.0589  137.5517  109.1857 LP  0  0  0  0  0  0  0  0  0  0  0  0  # atno 14820 bound_to 6477
  143.6618  137.6357  109.8366 LP  0  0  0  0  0  0  0  0  0  0  0  0  # atno 14821 bound_to 6477
  145.6134  139.6160  106.0132 LP  0  0  0  0  0  0  0  0  0  0  0  0  # atno 14822 bound_to 6474
  140.8507  135.2081  104.6696 LP  0  0  0  0  0  0  0  0  0  0  0  0  # atno 14827 bound_to 13124
  142.1273  136.1364  104.2508 LP  0  0  0  0  0  0  0  0  0  0  0  0  # atno 14828 bound_to 13124

> <Gold.Score>
     Fitness  S(hb_ext) S(vdw_ext)  S(hb_int)    S(int)      intcor
     31.65       0.16      23.37       0.00      -0.64      -0.77

> <Gold.Goldscore.Fitness>
31.6543

> <Gold.Goldscore.Internal.Vdw>
-0.8254

> <Gold.Goldscore.Internal.Torsion>
-0.5905

> <Gold.Goldscore.External.Vdw>
23.3706

> <Gold.Goldscore.Internal.HBond>
0.0000

> <Gold.Goldscore.External.HBond>
0.1625

> <Gold.Goldscore.Internal.Correction>
-0.7731

> <Gold.Goldscore.Hbonds>
donor molecule, donor type, donor heavy atom, donor atom, acceptor molecule, acceptor atom, score
      P1  H 11529 11534       L1    11  0.08

> <Gold.Goldscore.Internal.Vdw.Weighted>
-0.8254

> <Gold.Goldscore.Internal.Torsion.Weighted>
-0.5905

> <Gold.Goldscore.External.Vdw.Weighted>
32.1346

> <Gold.Goldscore.Internal.HBond.Weighted>
0.0000

> <Gold.Goldscore.External.HBond.Weighted>
0.1625

> <Gold.Goldscore.Internal.Correction.Weighted>
-0.7731

> <Gold.Rescore>
     Score     S(PLP)   S(hbond)     S(cho)   S(metal)  DE(clash)   DE(tors)     intcor
     36.67     -36.77       0.58       0.00       0.00       0.00       0.92       ----

> <Gold.PLP.Fitness>
36.6657

> <Gold.PLP.PLP>
-36.7749

> <Gold.PLP.part.hbond>
-0.4813

> <Gold.PLP.part.metal>
0.0000

> <Gold.PLP.part.buried>
-2.6873

> <Gold.PLP.part.nonpolar>
-34.7233

> <Gold.PLP.part.repulsive>
0.1716

> <Gold.PLP.ligand.clash>
0.0000

> <Gold.PLP.ligand.torsion>
0.9186

> <Gold.PLP.Chemscore.Hbond>
0.5760

> <Gold.PLP.Chemscore.CHOScore>
0.0000

> <Gold.PLP.Chemscore.Metal>
0.0000

> <Gold.Chemscore.Hbonds>
donor molecule, donor type, donor heavy atom, donor atom, acceptor molecule, acceptor atom, score
      P1  H 11529 11534       L1    11  0.70

> <Gold.PLP.Chemscore.Internal.Correction>
   9.000000E+99

