#       Name:                CT1002167954
#       Creating user name   hitesit
#       Creation time:       Sun Apr 16 22:50:31 2023


#       File generated by GOLD software.
#

@<TRIPOS>MOLECULE
CT1002167954|ligand_prepared|mol2|1|dock7
    29    30     1
SMALL
NO_CHARGES


@<TRIPOS>ATOM
      1 C1         126.2312 143.4405  97.8546 C.3            1 RES1               0.0000
      2 C2         127.3926 144.1640  98.5662 C.ar           1 RES1               0.0000
      3 C3         125.1364 143.2552  98.9011 C.2            1 RES1               0.0000
      4 C4         125.8283 144.3298  96.6834 C.2            1 RES1               0.0000
      5 C5         126.6120 142.0517  97.2909 C.3            1 RES1               0.0000
      6 C6         128.6700 144.1673  98.0139 C.ar           1 RES1               0.0000
      7 C7         127.2018 144.8334  99.7721 C.ar           1 RES1               0.0000
      8 N8         124.0321 144.0501  98.8078 N.am           1 RES1               0.0000
      9 O9         125.2576 142.4515  99.8173 O.2            1 RES1               0.0000
     10 N10        124.5829 144.9007  96.7095 N.am           1 RES1               0.0000
     11 O11        126.5844 144.5546  95.7464 O.2            1 RES1               0.0000
     12 C12        127.4158 141.1969  98.2580 C.3            1 RES1               0.0000
     13 C13        129.7181 144.8188  98.6427 C.ar           1 RES1               0.0000
     14 C14        128.2514 145.4841 100.3993 C.ar           1 RES1               0.0000
     15 C15        123.6782 144.8259  97.7333 C.2            1 RES1               0.0000
     16 C16        129.5095 145.4779  99.8355 C.ar           1 RES1               0.0000
     17 O17        122.5999 145.4122  97.7067 O.2            1 RES1               0.0000
     18 H18        125.6933 141.5146  97.0247 H              1 RES1               0.0000
     19 H19        127.1967 142.1912  96.3733 H              1 RES1               0.0000
     20 H20        128.8538 143.6519  97.0771 H              1 RES1               0.0000
     21 H21        126.2209 144.8506 100.2346 H              1 RES1               0.0000
     22 H22        123.4122 144.0696  99.6113 H              1 RES1               0.0000
     23 H23        124.3044 145.4305  95.8897 H              1 RES1               0.0000
     24 H24        127.6565 140.2336  97.8131 H              1 RES1               0.0000
     25 H25        128.3486 141.6895  98.5247 H              1 RES1               0.0000
     26 H26        126.8541 141.0169  99.1723 H              1 RES1               0.0000
     27 H27        130.7066 144.8098  98.1955 H              1 RES1               0.0000
     28 H28        128.0828 146.0011 101.3383 H              1 RES1               0.0000
     29 H29        130.3306 145.9885 100.3276 H              1 RES1               0.0000
@<TRIPOS>BOND
    1    1    2 1     
    2    1    3 1     
    3    1    4 1     
    4    1    5 1     
    5    2    6 ar    
    6    2    7 ar    
    7    3    8 1     
    8    3    9 2     
    9    4   10 1     
   10    4   11 2     
   11    5   12 1     
   12    5   18 1     
   13    5   19 1     
   14    6   13 ar    
   15    6   20 1     
   16    7   14 ar    
   17    7   21 1     
   18    8   15 1     
   19    8   22 1     
   20   10   15 1     
   21   10   23 1     
   22   12   24 1     
   23   12   25 1     
   24   12   26 1     
   25   13   16 ar    
   26   13   27 1     
   27   14   16 ar    
   28   14   28 1     
   29   15   17 2     
   30   16   29 1     
@<TRIPOS>SUBSTRUCTURE
      1 RES1           1
@<TRIPOS>SET
DONOR_HYDROGENS      STATIC     ATOMS    <user>   **** ""
2 22 23
ATOM$RED        STATIC     ATOMS    COLORGROUP SYSTEM
2 22 23
@<TRIPOS>COMMENT
> <Gold.Version>
2022.3.0

> <Gold.Id.Protein>
unknown|7rmh_clean|pdb

> <Gold.Protein.RotatedTorsions>
[ 6069 6060 6061 6062 ] final   53.31 input   58.43 | X-H torsion
[ 6095 6088 6089 6090 ] final   99.04 input   80.40 | X-H torsion
[ 12696 12688 12689 12690 ] final   63.48 input   27.23 | X-H torsion
[ 12955 12944 12943 12942 ] final -179.82 input   60.02 | X-H torsion
[  140  121  122  123 ] final -155.87 input   59.99 | X-H torsion
[ 10534 10525 10526 10527 ] final -111.33 input   86.97 | X-H torsion
[ 12729 12724 12723 12720 ] final  -49.77 input   60.00 | X-H torsion
[ 7603 7585 7586 7587 ] final  -18.35 input   21.72 | X-H torsion
[ 14135 14126 14127 14128 ] final -152.33 input  100.92 | X-H torsion
[ 11478 11469 11468 11466 ] final -113.74 input   60.02 | X-H torsion
[ 14106 14097 14096 14094 ] final   98.93 input   60.00 | X-H torsion
[ 14257 14248 14247 14245 ] final   96.99 input   60.01 | X-H torsion
[ 12659 12654 12653 12650 ] final -109.78 input   60.00 | X-H torsion
[ 11470 11458 11459 11460 ] final   77.55 input   94.06 | X-H torsion
[ 4828 4821 4822 4823 ] final  151.78 input   91.76 | X-H torsion
[ 4831 4826 4825 4822 ] final   33.49 input   59.99 | X-H torsion
[ 13071 13062 13061 13059 ] final -105.43 input   60.03 | X-H torsion
[ 6490 6474 6475 6476 ] final   -5.31 input  103.68 | X-H torsion
[ 13126 13119 13120 13121 ] final  -44.35 input  114.72 | X-H torsion
[ 13129 13124 13123 13120 ] final   -0.24 input   59.98 | X-H torsion
[ 14703 6063 6062 6061 ] final  179.82 input    0.00 | X-H torsion
[ 14710 6091 6090 6089 ] final -101.52 input   -0.00 | X-H torsion
[ 14727  124  123  122 ] final  -27.01 input   -0.00 | X-H torsion
[ 14734 7588 7587 7586 ] final -160.58 input    0.00 | X-H torsion
[ 14820 6477 6476 6475 ] final   33.03 input   -0.00 | X-H torsion

> <Gold.Protein.ActiveResidues>
 ASN23   THR86   GLU172  THR173  VAL200  LYS280  GLN24   PHE25   GLN27   MET81  
 PHE84   ASN85   VAL88   ASN89   TYR92   ALA93   VAL94   HIS95   ASN96   GLU97  
 TRP98   TYR100  CYS105  HIS108  ASN109  PRO112  ILE113  VAL116  PHE117  LEU161 
 ALA162  GLN165  SER169  THR170  MET174  PRO175  SER176  ARG177  VAL178  VAL179 
 CYS180  MET181  ILE182  GLU183  TRP184  LYS190  TYR196  HIS197  THR201  ILE204 
 TRP261  PHE264  HIS265  PHE267  PHE268  LEU269  PRO271  PRO275  LEU277  TYR278 
 LEU279  LYS281  PHE282  ILE283  GLN284  GLN285  VAL286  TYR287  LEU288  ILE290 
 MET291  ALA294  MET295 

> <Gold.Protein.RotatedAtoms>
  120.4771  150.0590   87.1729 H   0  0  0  0  0  0  0  0  0  0  0  0  # atno 140  bound_to 121 
  119.5421  148.6916   87.1274 H   0  0  0  0  0  0  0  0  0  0  0  0  # atno 141  bound_to 121 
  127.5942  145.7797  113.4077 H   0  0  0  0  0  0  0  0  0  0  0  0  # atno 4828 bound_to 4821
  127.1997  144.0651  113.7178 H   0  0  0  0  0  0  0  0  0  0  0  0  # atno 4831 bound_to 4826
  131.7172  156.0886   95.8878 H   0  0  0  0  0  0  0  0  0  0  0  0  # atno 6069 bound_to 6060
  130.9153  158.8849   92.5955 H   0  0  0  0  0  0  0  0  0  0  0  0  # atno 6095 bound_to 6088
  145.4207  137.9369  106.2227 H   0  0  0  0  0  0  0  0  0  0  0  0  # atno 6490 bound_to 6474
  125.1267  140.1252   91.4068 H   0  0  0  0  0  0  0  0  0  0  0  0  # atno 7603 bound_to 7585
  119.4785  147.7064   89.3231 H   0  0  0  0  0  0  0  0  0  0  0  0  # atno 10534 bound_to 10525
  123.7153  148.9089  105.3672 H   0  0  0  0  0  0  0  0  0  0  0  0  # atno 11470 bound_to 11458
  128.3524  149.1967   98.1892 H   0  0  0  0  0  0  0  0  0  0  0  0  # atno 11478 bound_to 11469
  136.0927  155.1435  103.0308 H   0  0  0  0  0  0  0  0  0  0  0  0  # atno 12659 bound_to 12654
  127.0673  156.8859   91.4801 H   0  0  0  0  0  0  0  0  0  0  0  0  # atno 12696 bound_to 12688
  121.1110  154.2397   89.1423 H   0  0  0  0  0  0  0  0  0  0  0  0  # atno 12729 bound_to 12724
  139.6926  143.2845   90.9180 H   0  0  0  0  0  0  0  0  0  0  0  0  # atno 12955 bound_to 12944
  140.2188  141.7746   90.4832 H   0  0  0  0  0  0  0  0  0  0  0  0  # atno 12956 bound_to 12944
  140.3375  142.2710   92.0601 H   0  0  0  0  0  0  0  0  0  0  0  0  # atno 12957 bound_to 12944
  142.2386  144.3839  106.9280 H   0  0  0  0  0  0  0  0  0  0  0  0  # atno 13071 bound_to 13062
  143.7312  137.5177  107.7035 H   0  0  0  0  0  0  0  0  0  0  0  0  # atno 13126 bound_to 13119
  141.3562  136.6118  105.4932 H   0  0  0  0  0  0  0  0  0  0  0  0  # atno 13129 bound_to 13124
  133.8107  138.5819   97.4657 H   0  0  0  0  0  0  0  0  0  0  0  0  # atno 14106 bound_to 14097
  121.9013  139.7373   91.9322 H   0  0  0  0  0  0  0  0  0  0  0  0  # atno 14135 bound_to 14126
  128.9031  144.4473  103.9690 H   0  0  0  0  0  0  0  0  0  0  0  0  # atno 14257 bound_to 14248
  132.7472  157.4883   96.1010 LP  0  0  0  0  0  0  0  0  0  0  0  0  # atno 14702 bound_to 6060
  128.7686  156.6169   94.0371 LP  0  0  0  0  0  0  0  0  0  0  0  0  # atno 14703 bound_to 6063
  130.0257  155.9293   95.0102 LP  0  0  0  0  0  0  0  0  0  0  0  0  # atno 14704 bound_to 6063
  130.5231  157.3140   93.2631 LP  0  0  0  0  0  0  0  0  0  0  0  0  # atno 14709 bound_to 6088
  129.9190  157.8100   89.3672 LP  0  0  0  0  0  0  0  0  0  0  0  0  # atno 14710 bound_to 6091
  130.3720  156.5103   90.4185 LP  0  0  0  0  0  0  0  0  0  0  0  0  # atno 14711 bound_to 6091
  118.8918  150.1247   87.6073 LP  0  0  0  0  0  0  0  0  0  0  0  0  # atno 14720 bound_to 121 
  117.7077  149.0318   90.0341 LP  0  0  0  0  0  0  0  0  0  0  0  0  # atno 14727 bound_to 124 
  117.5388  147.3305   89.7570 LP  0  0  0  0  0  0  0  0  0  0  0  0  # atno 14728 bound_to 124 
  119.5476  153.8175   89.3013 LP  0  0  0  0  0  0  0  0  0  0  0  0  # atno 14729 bound_to 12724
  120.5684  153.6728   90.5677 LP  0  0  0  0  0  0  0  0  0  0  0  0  # atno 14730 bound_to 12724
  125.4316  139.0962   90.0251 LP  0  0  0  0  0  0  0  0  0  0  0  0  # atno 14733 bound_to 7585
  123.4175  139.5207   94.1204 LP  0  0  0  0  0  0  0  0  0  0  0  0  # atno 14734 bound_to 7588
  124.5497  140.0394   92.9167 LP  0  0  0  0  0  0  0  0  0  0  0  0  # atno 14735 bound_to 7588
  129.4783  150.0918   98.9501 LP  0  0  0  0  0  0  0  0  0  0  0  0  # atno 14738 bound_to 11469
  128.2102  150.8174   98.2207 LP  0  0  0  0  0  0  0  0  0  0  0  0  # atno 14739 bound_to 11469
  132.3376  138.1590   98.0137 LP  0  0  0  0  0  0  0  0  0  0  0  0  # atno 14744 bound_to 14097
  132.8504  139.7033   98.1510 LP  0  0  0  0  0  0  0  0  0  0  0  0  # atno 14745 bound_to 14097
  129.4598  143.3450  105.0288 LP  0  0  0  0  0  0  0  0  0  0  0  0  # atno 14762 bound_to 14248
  127.9614  143.9692  105.2070 LP  0  0  0  0  0  0  0  0  0  0  0  0  # atno 14763 bound_to 14248
  135.5070  153.6344  102.8644 LP  0  0  0  0  0  0  0  0  0  0  0  0  # atno 14798 bound_to 12654
  135.9768  154.4807  101.5492 LP  0  0  0  0  0  0  0  0  0  0  0  0  # atno 14799 bound_to 12654
  127.2575  146.9963  112.2057 LP  0  0  0  0  0  0  0  0  0  0  0  0  # atno 14808 bound_to 4821
  126.3069  142.7906  113.2410 LP  0  0  0  0  0  0  0  0  0  0  0  0  # atno 14809 bound_to 4826
  126.1206  143.4057  114.7422 LP  0  0  0  0  0  0  0  0  0  0  0  0  # atno 14810 bound_to 4826
  142.1657  145.8388  106.2031 LP  0  0  0  0  0  0  0  0  0  0  0  0  # atno 14815 bound_to 13062
  143.3618  145.5118  107.2657 LP  0  0  0  0  0  0  0  0  0  0  0  0  # atno 14816 bound_to 13062
  142.7728  138.4465  109.6334 LP  0  0  0  0  0  0  0  0  0  0  0  0  # atno 14820 bound_to 6477
  142.9479  136.7408  109.3889 LP  0  0  0  0  0  0  0  0  0  0  0  0  # atno 14821 bound_to 6477
  145.8742  139.6165  106.2576 LP  0  0  0  0  0  0  0  0  0  0  0  0  # atno 14822 bound_to 6474
  140.7671  135.2602  104.8046 LP  0  0  0  0  0  0  0  0  0  0  0  0  # atno 14827 bound_to 13124
  142.0780  135.9986  104.1700 LP  0  0  0  0  0  0  0  0  0  0  0  0  # atno 14828 bound_to 13124

> <Gold.Score>
     Fitness  S(hb_ext) S(vdw_ext)  S(hb_int)    S(int)      intcor
     33.99       0.09      26.90       0.00      -3.08      -0.76

> <Gold.Goldscore.Fitness>
33.9882

> <Gold.Goldscore.Internal.Vdw>
-3.1261

> <Gold.Goldscore.Internal.Torsion>
-0.7144

> <Gold.Goldscore.External.Vdw>
26.8957

> <Gold.Goldscore.Internal.HBond>
0.0000

> <Gold.Goldscore.External.HBond>
0.0888

> <Gold.Goldscore.Internal.Correction>
-0.7585

> <Gold.Goldscore.Hbonds>
donor molecule, donor type, donor heavy atom, donor atom, acceptor molecule, acceptor atom, score
      L1  H     8    22       P1 11482  0.04

> <Gold.Goldscore.Internal.Vdw.Weighted>
-3.1261

> <Gold.Goldscore.Internal.Torsion.Weighted>
-0.7144

> <Gold.Goldscore.External.Vdw.Weighted>
36.9815

> <Gold.Goldscore.Internal.HBond.Weighted>
0.0000

> <Gold.Goldscore.External.HBond.Weighted>
0.0888

> <Gold.Goldscore.Internal.Correction.Weighted>
-0.7585

> <Gold.Rescore>
     Score     S(PLP)   S(hbond)     S(cho)   S(metal)  DE(clash)   DE(tors)     intcor
     22.77     -21.83       1.00       0.00       0.00       0.00       1.03       ----

> <Gold.PLP.Fitness>
22.7722

> <Gold.PLP.PLP>
-21.8325

> <Gold.PLP.part.hbond>
-4.0690

> <Gold.PLP.part.metal>
0.0000

> <Gold.PLP.part.buried>
10.0691

> <Gold.PLP.part.nonpolar>
-38.4941

> <Gold.PLP.part.repulsive>
8.9514

> <Gold.PLP.ligand.clash>
0.0000

> <Gold.PLP.ligand.torsion>
1.0301

> <Gold.PLP.Chemscore.Hbond>
1.0000

> <Gold.PLP.Chemscore.CHOScore>
0.0000

> <Gold.PLP.Chemscore.Metal>
0.0000

> <Gold.PLP.Chemscore.Internal.Correction>
   9.000000E+99

