#       Name:                CT1002167954
#       Creating user name   hitesit
#       Creation time:       Sun Apr 16 22:50:32 2023


#       File generated by GOLD software.
#

@<TRIPOS>MOLECULE
CT1002167954|ligand_prepared|mol2|1|dock8
    29    30     1
SMALL
NO_CHARGES


@<TRIPOS>ATOM
      1 C1         127.1612 143.3581  98.9044 C.3            1 RES1               0.0000
      2 C2         127.5408 144.1173 100.1921 C.ar           1 RES1               0.0000
      3 C3         125.6567 143.1146  98.9784 C.2            1 RES1               0.0000
      4 C4         127.5912 144.2469  97.7426 C.2            1 RES1               0.0000
      5 C5         127.8726 141.9936  98.7508 C.3            1 RES1               0.0000
      6 C6         126.6645 145.0404 100.7549 C.ar           1 RES1               0.0000
      7 C7         128.7604 143.9038 100.8289 C.ar           1 RES1               0.0000
      8 N8         124.8546 143.8660  98.1709 N.am           1 RES1               0.0000
      9 O9         125.1784 142.3035  99.7617 O.2            1 RES1               0.0000
     10 N10        126.6131 144.7672  96.9360 N.am           1 RES1               0.0000
     11 O11        128.7670 144.5148  97.5283 O.2            1 RES1               0.0000
     12 C12        127.3310 141.1445  97.6115 C.3            1 RES1               0.0000
     13 C13        126.9941 145.7231 101.9140 C.ar           1 RES1               0.0000
     14 C14        129.0882 144.5878 101.9879 C.ar           1 RES1               0.0000
     15 C15        125.2625 144.6420  97.1159 C.2            1 RES1               0.0000
     16 C16        128.2058 145.4970 102.5315 C.ar           1 RES1               0.0000
     17 O17        124.4444 145.1850  96.3790 O.2            1 RES1               0.0000
     18 H18        128.9421 142.1700  98.5822 H              1 RES1               0.0000
     19 H19        127.7689 141.4338  99.6885 H              1 RES1               0.0000
     20 H20        125.7074 145.2332 100.2818 H              1 RES1               0.0000
     21 H21        129.4706 143.1940 100.4186 H              1 RES1               0.0000
     22 H22        123.8594 143.8494  98.3700 H              1 RES1               0.0000
     23 H23        126.9204 145.2969  96.1265 H              1 RES1               0.0000
     24 H24        127.8647 140.1986  97.5480 H              1 RES1               0.0000
     25 H25        126.2750 140.9285  97.7597 H              1 RES1               0.0000
     26 H26        127.4412 141.6604  96.6599 H              1 RES1               0.0000
     27 H27        126.2968 146.4386 102.3371 H              1 RES1               0.0000
     28 H28        130.0432 144.4072 102.4701 H              1 RES1               0.0000
     29 H29        128.4637 146.0317 103.4397 H              1 RES1               0.0000
@<TRIPOS>BOND
    1    1    2 1     
    2    1    3 1     
    3    1    4 1     
    4    1    5 1     
    5    2    6 ar    
    6    2    7 ar    
    7    3    8 1     
    8    3    9 2     
    9    4   10 1     
   10    4   11 2     
   11    5   12 1     
   12    5   18 1     
   13    5   19 1     
   14    6   13 ar    
   15    6   20 1     
   16    7   14 ar    
   17    7   21 1     
   18    8   15 1     
   19    8   22 1     
   20   10   15 1     
   21   10   23 1     
   22   12   24 1     
   23   12   25 1     
   24   12   26 1     
   25   13   16 ar    
   26   13   27 1     
   27   14   16 ar    
   28   14   28 1     
   29   15   17 2     
   30   16   29 1     
@<TRIPOS>SUBSTRUCTURE
      1 RES1           1
@<TRIPOS>SET
DONOR_HYDROGENS      STATIC     ATOMS    <user>   **** ""
2 22 23
ATOM$RED        STATIC     ATOMS    COLORGROUP SYSTEM
2 22 23
@<TRIPOS>COMMENT
> <Gold.Version>
2022.3.0

> <Gold.Id.Protein>
unknown|7rmh_clean|pdb

> <Gold.Protein.RotatedTorsions>
[ 6069 6060 6061 6062 ] final   -6.08 input   58.43 | X-H torsion
[ 6095 6088 6089 6090 ] final  107.00 input   80.40 | X-H torsion
[ 12696 12688 12689 12690 ] final   53.18 input   27.23 | X-H torsion
[ 12955 12944 12943 12942 ] final   16.93 input   60.02 | X-H torsion
[  140  121  122  123 ] final  -68.55 input   59.99 | X-H torsion
[ 10534 10525 10526 10527 ] final   57.91 input   86.97 | X-H torsion
[ 12729 12724 12723 12720 ] final -178.38 input   60.00 | X-H torsion
[ 7603 7585 7586 7587 ] final  104.70 input   21.72 | X-H torsion
[ 14135 14126 14127 14128 ] final -176.48 input  100.92 | X-H torsion
[ 11478 11469 11468 11466 ] final   91.09 input   60.02 | X-H torsion
[ 14106 14097 14096 14094 ] final   82.66 input   60.00 | X-H torsion
[ 14257 14248 14247 14245 ] final  170.50 input   60.01 | X-H torsion
[ 12659 12654 12653 12650 ] final  -97.11 input   60.00 | X-H torsion
[ 11470 11458 11459 11460 ] final -165.49 input   94.06 | X-H torsion
[ 4828 4821 4822 4823 ] final -174.93 input   91.76 | X-H torsion
[ 4831 4826 4825 4822 ] final -151.11 input   59.99 | X-H torsion
[ 13071 13062 13061 13059 ] final  161.11 input   60.03 | X-H torsion
[ 6490 6474 6475 6476 ] final  109.01 input  103.68 | X-H torsion
[ 13126 13119 13120 13121 ] final -112.54 input  114.72 | X-H torsion
[ 13129 13124 13123 13120 ] final  173.93 input   59.98 | X-H torsion
[ 14703 6063 6062 6061 ] final   89.64 input    0.00 | X-H torsion
[ 14710 6091 6090 6089 ] final  -96.32 input   -0.00 | X-H torsion
[ 14727  124  123  122 ] final   86.19 input   -0.00 | X-H torsion
[ 14734 7588 7587 7586 ] final -113.45 input    0.00 | X-H torsion
[ 14820 6477 6476 6475 ] final  -84.51 input   -0.00 | X-H torsion

> <Gold.Protein.ActiveResidues>
 ASN23   THR86   GLU172  THR173  VAL200  LYS280  GLN24   PHE25   GLN27   MET81  
 PHE84   ASN85   VAL88   ASN89   TYR92   ALA93   VAL94   HIS95   ASN96   GLU97  
 TRP98   TYR100  CYS105  HIS108  ASN109  PRO112  ILE113  VAL116  PHE117  LEU161 
 ALA162  GLN165  SER169  THR170  MET174  PRO175  SER176  ARG177  VAL178  VAL179 
 CYS180  MET181  ILE182  GLU183  TRP184  LYS190  TYR196  HIS197  THR201  ILE204 
 TRP261  PHE264  HIS265  PHE267  PHE268  LEU269  PRO271  PRO275  LEU277  TYR278 
 LEU279  LYS281  PHE282  ILE283  GLN284  GLN285  VAL286  TYR287  LEU288  ILE290 
 MET291  ALA294  MET295 

> <Gold.Protein.RotatedAtoms>
  120.0546  148.8171   87.0202 H   0  0  0  0  0  0  0  0  0  0  0  0  # atno 140  bound_to 121 
  118.7072  149.6268   87.5447 H   0  0  0  0  0  0  0  0  0  0  0  0  # atno 141  bound_to 121 
  127.8524  145.6517  112.9976 H   0  0  0  0  0  0  0  0  0  0  0  0  # atno 4828 bound_to 4821
  125.8791  142.8112  114.1492 H   0  0  0  0  0  0  0  0  0  0  0  0  # atno 4831 bound_to 4826
  131.3583  156.8684   96.0919 H   0  0  0  0  0  0  0  0  0  0  0  0  # atno 6069 bound_to 6060
  130.8765  158.9310   92.7036 H   0  0  0  0  0  0  0  0  0  0  0  0  # atno 6095 bound_to 6088
  145.2100  139.2764  105.6794 H   0  0  0  0  0  0  0  0  0  0  0  0  # atno 6490 bound_to 6474
  125.6129  138.7814   90.7766 H   0  0  0  0  0  0  0  0  0  0  0  0  # atno 7603 bound_to 7585
  120.9516  147.0627   90.0287 H   0  0  0  0  0  0  0  0  0  0  0  0  # atno 10534 bound_to 10525
  123.3082  150.3534  105.1887 H   0  0  0  0  0  0  0  0  0  0  0  0  # atno 11470 bound_to 11458
  129.2801  150.6177   98.8701 H   0  0  0  0  0  0  0  0  0  0  0  0  # atno 11478 bound_to 11469
  136.1461  155.2323  102.8520 H   0  0  0  0  0  0  0  0  0  0  0  0  # atno 12659 bound_to 12654
  126.9657  157.0059   91.4387 H   0  0  0  0  0  0  0  0  0  0  0  0  # atno 12696 bound_to 12688
  119.5161  153.7722   89.4312 H   0  0  0  0  0  0  0  0  0  0  0  0  # atno 12729 bound_to 12724
  140.4775  141.7210   91.6415 H   0  0  0  0  0  0  0  0  0  0  0  0  # atno 12955 bound_to 12944
  139.8449  143.2521   91.6060 H   0  0  0  0  0  0  0  0  0  0  0  0  # atno 12956 bound_to 12944
  139.9266  142.3570   90.2134 H   0  0  0  0  0  0  0  0  0  0  0  0  # atno 12957 bound_to 12944
  141.9255  145.4811  106.1821 H   0  0  0  0  0  0  0  0  0  0  0  0  # atno 13071 bound_to 13062
  142.9007  137.8484  107.2803 H   0  0  0  0  0  0  0  0  0  0  0  0  # atno 13126 bound_to 13119
  141.5218  135.3502  104.1231 H   0  0  0  0  0  0  0  0  0  0  0  0  # atno 13129 bound_to 13124
  133.6958  138.3430   97.4600 H   0  0  0  0  0  0  0  0  0  0  0  0  # atno 14106 bound_to 14097
  121.5693  139.6604   91.7883 H   0  0  0  0  0  0  0  0  0  0  0  0  # atno 14135 bound_to 14126
  127.9871  144.4131  104.6135 H   0  0  0  0  0  0  0  0  0  0  0  0  # atno 14257 bound_to 14248
  133.0939  156.7349   95.9039 LP  0  0  0  0  0  0  0  0  0  0  0  0  # atno 14702 bound_to 6060
  129.2783  156.8911   95.1187 LP  0  0  0  0  0  0  0  0  0  0  0  0  # atno 14703 bound_to 6063
  129.5161  155.6552   93.9287 LP  0  0  0  0  0  0  0  0  0  0  0  0  # atno 14704 bound_to 6063
  130.5605  157.2696   93.1589 LP  0  0  0  0  0  0  0  0  0  0  0  0  # atno 14709 bound_to 6088
  129.9633  157.8569   89.4119 LP  0  0  0  0  0  0  0  0  0  0  0  0  # atno 14710 bound_to 6091
  130.3277  156.4634   90.3738 LP  0  0  0  0  0  0  0  0  0  0  0  0  # atno 14711 bound_to 6091
  120.1307  150.4275   87.3468 LP  0  0  0  0  0  0  0  0  0  0  0  0  # atno 14720 bound_to 121 
  117.4410  147.9862   89.0716 LP  0  0  0  0  0  0  0  0  0  0  0  0  # atno 14727 bound_to 124 
  117.8055  148.3761   90.7194 LP  0  0  0  0  0  0  0  0  0  0  0  0  # atno 14728 bound_to 124 
  120.7023  153.7121   90.5435 LP  0  0  0  0  0  0  0  0  0  0  0  0  # atno 14729 bound_to 12724
  121.0204  154.2492   89.0345 LP  0  0  0  0  0  0  0  0  0  0  0  0  # atno 14730 bound_to 12724
  124.9604  140.3986   90.6359 LP  0  0  0  0  0  0  0  0  0  0  0  0  # atno 14733 bound_to 7585
  123.8918  139.0418   93.9618 LP  0  0  0  0  0  0  0  0  0  0  0  0  # atno 14734 bound_to 7588
  124.0754  140.5183   93.0752 LP  0  0  0  0  0  0  0  0  0  0  0  0  # atno 14735 bound_to 7588
  127.9212  150.3747   98.0086 LP  0  0  0  0  0  0  0  0  0  0  0  0  # atno 14738 bound_to 11469
  128.8331  149.1034   98.4765 LP  0  0  0  0  0  0  0  0  0  0  0  0  # atno 14739 bound_to 11469
  132.2078  138.3670   98.1192 LP  0  0  0  0  0  0  0  0  0  0  0  0  # atno 14744 bound_to 14097
  133.0958  139.7358   98.0513 LP  0  0  0  0  0  0  0  0  0  0  0  0  # atno 14745 bound_to 14097
  129.4920  144.0263  104.1300 LP  0  0  0  0  0  0  0  0  0  0  0  0  # atno 14762 bound_to 14248
  128.8514  143.3223  105.4569 LP  0  0  0  0  0  0  0  0  0  0  0  0  # atno 14763 bound_to 14248
  135.5301  153.7384  103.0433 LP  0  0  0  0  0  0  0  0  0  0  0  0  # atno 14798 bound_to 12654
  135.8999  154.2873  101.5504 LP  0  0  0  0  0  0  0  0  0  0  0  0  # atno 14799 bound_to 12654
  127.0013  147.1233  112.6125 LP  0  0  0  0  0  0  0  0  0  0  0  0  # atno 14808 bound_to 4821
  126.8315  144.0806  114.5099 LP  0  0  0  0  0  0  0  0  0  0  0  0  # atno 14809 bound_to 4826
  126.9255  143.3778  113.0389 LP  0  0  0  0  0  0  0  0  0  0  0  0  # atno 14810 bound_to 4826
  143.2624  145.8602  107.0288 LP  0  0  0  0  0  0  0  0  0  0  0  0  # atno 14815 bound_to 13062
  142.5804  144.3854  107.1912 LP  0  0  0  0  0  0  0  0  0  0  0  0  # atno 14816 bound_to 13062
  143.6121  137.2311  109.7424 LP  0  0  0  0  0  0  0  0  0  0  0  0  # atno 14820 bound_to 6477
  142.1087  137.9562  109.2799 LP  0  0  0  0  0  0  0  0  0  0  0  0  # atno 14821 bound_to 6477
  146.0851  138.2751  106.8017 LP  0  0  0  0  0  0  0  0  0  0  0  0  # atno 14822 bound_to 6474
  141.9872  136.6900  104.9209 LP  0  0  0  0  0  0  0  0  0  0  0  0  # atno 14827 bound_to 13124
  140.6910  135.8396  105.4339 LP  0  0  0  0  0  0  0  0  0  0  0  0  # atno 14828 bound_to 13124

> <Gold.Score>
     Fitness  S(hb_ext) S(vdw_ext)  S(hb_int)    S(int)      intcor
     40.37       0.04      29.62       0.00      -0.41      -0.76

> <Gold.Goldscore.Fitness>
40.3651

> <Gold.Goldscore.Internal.Vdw>
-0.6455

> <Gold.Goldscore.Internal.Torsion>
-0.5181

> <Gold.Goldscore.External.Vdw>
29.6221

> <Gold.Goldscore.Internal.HBond>
0.0000

> <Gold.Goldscore.External.HBond>
0.0397

> <Gold.Goldscore.Internal.Correction>
-0.7585

> <Gold.Goldscore.Hbonds>
donor molecule, donor type, donor heavy atom, donor atom, acceptor molecule, acceptor atom, score
      L1  H     8    22       P1 14194  0.02

> <Gold.Goldscore.Internal.Vdw.Weighted>
-0.6455

> <Gold.Goldscore.Internal.Torsion.Weighted>
-0.5181

> <Gold.Goldscore.External.Vdw.Weighted>
40.7304

> <Gold.Goldscore.Internal.HBond.Weighted>
0.0000

> <Gold.Goldscore.External.HBond.Weighted>
0.0397

> <Gold.Goldscore.Internal.Correction.Weighted>
-0.7585

> <Gold.Rescore>
     Score     S(PLP)   S(hbond)     S(cho)   S(metal)  DE(clash)   DE(tors)     intcor
     21.77     -21.12       0.92       0.00       0.00       0.00       1.06       ----

> <Gold.PLP.Fitness>
21.7690

> <Gold.PLP.PLP>
-21.1185

> <Gold.PLP.part.hbond>
-1.0000

> <Gold.PLP.part.metal>
0.0000

> <Gold.PLP.part.buried>
-1.2415

> <Gold.PLP.part.nonpolar>
-19.6393

> <Gold.PLP.part.repulsive>
0.2632

> <Gold.PLP.ligand.clash>
0.0000

> <Gold.PLP.ligand.torsion>
1.0553

> <Gold.PLP.Chemscore.Hbond>
0.9204

> <Gold.PLP.Chemscore.CHOScore>
0.0000

> <Gold.PLP.Chemscore.Metal>
0.0000

> <Gold.PLP.Chemscore.Internal.Correction>
   9.000000E+99

