#       Name:                CT1002167954
#       Creating user name   hitesit
#       Creation time:       Sun Apr 16 22:50:27 2023


#       File generated by GOLD software.
#

@<TRIPOS>MOLECULE
CT1002167954|ligand_prepared|mol2|1|dock4
    29    30     1
SMALL
NO_CHARGES


@<TRIPOS>ATOM
      1 C1         133.7802 145.1674 106.0314 C.3            1 RES1               0.0000
      2 C2         134.8103 144.0233 106.1249 C.ar           1 RES1               0.0000
      3 C3         134.2270 146.0524 104.8715 C.2            1 RES1               0.0000
      4 C4         132.4237 144.5040 105.8210 C.2            1 RES1               0.0000
      5 C5         133.6942 146.0366 107.3076 C.3            1 RES1               0.0000
      6 C6         135.3578 143.4669 104.9728 C.ar           1 RES1               0.0000
      7 C7         135.2240 143.5165 107.3539 C.ar           1 RES1               0.0000
      8 N8         133.5087 145.9874 103.7140 N.am           1 RES1               0.0000
      9 O9         135.2181 146.7670 104.9578 O.2            1 RES1               0.0000
     10 N10        131.7829 144.7166 104.6286 N.am           1 RES1               0.0000
     11 O11        131.9115 143.7856 106.6706 O.2            1 RES1               0.0000
     12 C12        132.9391 147.3417 107.1108 C.3            1 RES1               0.0000
     13 C13        136.2875 142.4429 105.0467 C.ar           1 RES1               0.0000
     14 C14        136.1537 142.4923 107.4256 C.ar           1 RES1               0.0000
     15 C15        132.2780 145.4033 103.5536 C.2            1 RES1               0.0000
     16 C16        136.6864 141.9552 106.2729 C.ar           1 RES1               0.0000
     17 O17        131.6648 145.5052 102.4949 O.2            1 RES1               0.0000
     18 H18        133.1988 145.4574 108.0965 H              1 RES1               0.0000
     19 H19        134.7116 146.2653 107.6483 H              1 RES1               0.0000
     20 H20        135.0542 143.8360 103.9988 H              1 RES1               0.0000
     21 H21        134.8176 143.9230 108.2738 H              1 RES1               0.0000
     22 H22        133.9252 146.4124 102.8916 H              1 RES1               0.0000
     23 H23        130.8504 144.3271 104.5335 H              1 RES1               0.0000
     24 H24        132.9084 147.9128 108.0364 H              1 RES1               0.0000
     25 H25        133.4191 147.9542 106.3504 H              1 RES1               0.0000
     26 H26        131.9152 147.1511 106.7960 H              1 RES1               0.0000
     27 H27        136.7027 142.0227 104.1366 H              1 RES1               0.0000
     28 H28        136.4643 142.1111 108.3928 H              1 RES1               0.0000
     29 H29        137.4150 141.1533 106.3306 H              1 RES1               0.0000
@<TRIPOS>BOND
    1    1    2 1     
    2    1    3 1     
    3    1    4 1     
    4    1    5 1     
    5    2    6 ar    
    6    2    7 ar    
    7    3    8 1     
    8    3    9 2     
    9    4   10 1     
   10    4   11 2     
   11    5   12 1     
   12    5   18 1     
   13    5   19 1     
   14    6   13 ar    
   15    6   20 1     
   16    7   14 ar    
   17    7   21 1     
   18    8   15 1     
   19    8   22 1     
   20   10   15 1     
   21   10   23 1     
   22   12   24 1     
   23   12   25 1     
   24   12   26 1     
   25   13   16 ar    
   26   13   27 1     
   27   14   16 ar    
   28   14   28 1     
   29   15   17 2     
   30   16   29 1     
@<TRIPOS>SUBSTRUCTURE
      1 RES1           1
@<TRIPOS>SET
DONOR_HYDROGENS      STATIC     ATOMS    <user>   **** ""
2 22 23
ATOM$RED        STATIC     ATOMS    COLORGROUP SYSTEM
2 22 23
@<TRIPOS>COMMENT
> <Gold.Version>
2022.3.0

> <Gold.Id.Protein>
unknown|7rmh_clean|pdb

> <Gold.Protein.RotatedTorsions>
[ 6069 6060 6061 6062 ] final -128.50 input   58.43 | X-H torsion
[ 6095 6088 6089 6090 ] final -105.26 input   80.40 | X-H torsion
[ 12696 12688 12689 12690 ] final  -92.20 input   27.23 | X-H torsion
[ 12955 12944 12943 12942 ] final   33.82 input   60.02 | X-H torsion
[  140  121  122  123 ] final  120.37 input   59.99 | X-H torsion
[ 10534 10525 10526 10527 ] final  -57.47 input   86.97 | X-H torsion
[ 12729 12724 12723 12720 ] final   70.51 input   60.00 | X-H torsion
[ 7603 7585 7586 7587 ] final  -23.50 input   21.72 | X-H torsion
[ 14135 14126 14127 14128 ] final  -70.38 input  100.92 | X-H torsion
[ 11478 11469 11468 11466 ] final -109.76 input   60.02 | X-H torsion
[ 14106 14097 14096 14094 ] final  -21.74 input   60.00 | X-H torsion
[ 14257 14248 14247 14245 ] final  -63.31 input   60.01 | X-H torsion
[ 12659 12654 12653 12650 ] final -100.77 input   60.00 | X-H torsion
[ 11470 11458 11459 11460 ] final -157.93 input   94.06 | X-H torsion
[ 4828 4821 4822 4823 ] final  116.58 input   91.76 | X-H torsion
[ 4831 4826 4825 4822 ] final   18.96 input   59.99 | X-H torsion
[ 13071 13062 13061 13059 ] final  176.05 input   60.03 | X-H torsion
[ 6490 6474 6475 6476 ] final   53.99 input  103.68 | X-H torsion
[ 13126 13119 13120 13121 ] final  -86.35 input  114.72 | X-H torsion
[ 13129 13124 13123 13120 ] final  -43.83 input   59.98 | X-H torsion
[ 14703 6063 6062 6061 ] final  117.65 input    0.00 | X-H torsion
[ 14710 6091 6090 6089 ] final -120.53 input   -0.00 | X-H torsion
[ 14727  124  123  122 ] final   53.62 input   -0.00 | X-H torsion
[ 14734 7588 7587 7586 ] final  118.09 input    0.00 | X-H torsion
[ 14820 6477 6476 6475 ] final  147.16 input   -0.00 | X-H torsion

> <Gold.Protein.ActiveResidues>
 ASN23   THR86   GLU172  THR173  VAL200  LYS280  GLN24   PHE25   GLN27   MET81  
 PHE84   ASN85   VAL88   ASN89   TYR92   ALA93   VAL94   HIS95   ASN96   GLU97  
 TRP98   TYR100  CYS105  HIS108  ASN109  PRO112  ILE113  VAL116  PHE117  LEU161 
 ALA162  GLN165  SER169  THR170  MET174  PRO175  SER176  ARG177  VAL178  VAL179 
 CYS180  MET181  ILE182  GLU183  TRP184  LYS190  TYR196  HIS197  THR201  ILE204 
 TRP261  PHE264  HIS265  PHE267  PHE268  LEU269  PRO271  PRO275  LEU277  TYR278 
 LEU279  LYS281  PHE282  ILE283  GLN284  GLN285  VAL286  TYR287  LEU288  ILE290 
 MET291  ALA294  MET295 

> <Gold.Protein.RotatedAtoms>
  119.3446  150.5019   87.5637 H   0  0  0  0  0  0  0  0  0  0  0  0  # atno 140  bound_to 121 
  120.5401  149.4839   87.0339 H   0  0  0  0  0  0  0  0  0  0  0  0  # atno 141  bound_to 121 
  127.2657  146.1327  113.6251 H   0  0  0  0  0  0  0  0  0  0  0  0  # atno 4828 bound_to 4821
  127.2055  143.9561  113.5077 H   0  0  0  0  0  0  0  0  0  0  0  0  # atno 4831 bound_to 4826
  132.7850  157.5010   96.0767 H   0  0  0  0  0  0  0  0  0  0  0  0  # atno 6069 bound_to 6060
  130.4010  157.5182   93.5475 H   0  0  0  0  0  0  0  0  0  0  0  0  # atno 6095 bound_to 6088
  145.0222  138.4960  105.7046 H   0  0  0  0  0  0  0  0  0  0  0  0  # atno 6490 bound_to 6474
  125.0994  140.1799   91.3555 H   0  0  0  0  0  0  0  0  0  0  0  0  # atno 7603 bound_to 7585
  119.6630  147.8086   90.0934 H   0  0  0  0  0  0  0  0  0  0  0  0  # atno 10534 bound_to 10525
  123.2061  150.3750  105.1362 H   0  0  0  0  0  0  0  0  0  0  0  0  # atno 11470 bound_to 11458
  128.3027  149.2275   98.1609 H   0  0  0  0  0  0  0  0  0  0  0  0  # atno 11478 bound_to 11469
  136.1320  155.2106  102.9060 H   0  0  0  0  0  0  0  0  0  0  0  0  # atno 12659 bound_to 12654
  127.9684  158.0073   90.4463 H   0  0  0  0  0  0  0  0  0  0  0  0  # atno 12696 bound_to 12688
  120.5624  153.6750   90.5622 H   0  0  0  0  0  0  0  0  0  0  0  0  # atno 12729 bound_to 12724
  140.4468  141.9024   91.8541 H   0  0  0  0  0  0  0  0  0  0  0  0  # atno 12955 bound_to 12944
  139.7628  143.3240   91.3470 H   0  0  0  0  0  0  0  0  0  0  0  0  # atno 12956 bound_to 12944
  140.0394  142.1037   90.2599 H   0  0  0  0  0  0  0  0  0  0  0  0  # atno 12957 bound_to 12944
  141.8472  145.2551  106.2269 H   0  0  0  0  0  0  0  0  0  0  0  0  # atno 13071 bound_to 13062
  143.1681  137.7709  107.5671 H   0  0  0  0  0  0  0  0  0  0  0  0  # atno 13126 bound_to 13119
  140.8503  136.1396  105.5598 H   0  0  0  0  0  0  0  0  0  0  0  0  # atno 13129 bound_to 13124
  132.3345  138.1714   98.0153 H   0  0  0  0  0  0  0  0  0  0  0  0  # atno 14106 bound_to 14097
  122.6587  138.9823   92.3798 H   0  0  0  0  0  0  0  0  0  0  0  0  # atno 14135 bound_to 14126
  128.9428  143.3036  105.4162 H   0  0  0  0  0  0  0  0  0  0  0  0  # atno 14257 bound_to 14248
  131.7155  156.1238   95.9186 LP  0  0  0  0  0  0  0  0  0  0  0  0  # atno 14702 bound_to 6060
  128.9969  156.9810   94.8214 LP  0  0  0  0  0  0  0  0  0  0  0  0  # atno 14703 bound_to 6063
  129.7975  155.5652   94.2260 LP  0  0  0  0  0  0  0  0  0  0  0  0  # atno 14704 bound_to 6063
  131.0190  158.6317   92.3452 LP  0  0  0  0  0  0  0  0  0  0  0  0  # atno 14709 bound_to 6088
  129.7753  157.5963   89.2427 LP  0  0  0  0  0  0  0  0  0  0  0  0  # atno 14710 bound_to 6091
  130.5157  156.7240   90.5430 LP  0  0  0  0  0  0  0  0  0  0  0  0  # atno 14711 bound_to 6091
  119.0248  148.9077   87.3143 LP  0  0  0  0  0  0  0  0  0  0  0  0  # atno 14720 bound_to 121 
  117.4771  148.4701   89.0923 LP  0  0  0  0  0  0  0  0  0  0  0  0  # atno 14727 bound_to 124 
  117.7694  147.8922   90.6987 LP  0  0  0  0  0  0  0  0  0  0  0  0  # atno 14728 bound_to 124 
  121.1194  154.2400   89.1415 LP  0  0  0  0  0  0  0  0  0  0  0  0  # atno 14729 bound_to 12724
  119.5493  153.8192   89.2971 LP  0  0  0  0  0  0  0  0  0  0  0  0  # atno 14730 bound_to 12724
  125.4581  139.0431   90.0748 LP  0  0  0  0  0  0  0  0  0  0  0  0  # atno 14733 bound_to 7585
  123.5026  140.4988   93.5635 LP  0  0  0  0  0  0  0  0  0  0  0  0  # atno 14734 bound_to 7588
  124.4646  139.0613   93.4735 LP  0  0  0  0  0  0  0  0  0  0  0  0  # atno 14735 bound_to 7588
  129.4821  150.0265   98.9475 LP  0  0  0  0  0  0  0  0  0  0  0  0  # atno 14738 bound_to 11469
  128.2565  150.8516   98.2519 LP  0  0  0  0  0  0  0  0  0  0  0  0  # atno 14739 bound_to 11469
  132.8604  139.7061   98.1473 LP  0  0  0  0  0  0  0  0  0  0  0  0  # atno 14744 bound_to 14097
  133.8134  138.5694   97.4643 LP  0  0  0  0  0  0  0  0  0  0  0  0  # atno 14745 bound_to 14097
  127.9474  144.3718  104.6976 LP  0  0  0  0  0  0  0  0  0  0  0  0  # atno 14762 bound_to 14248
  129.4338  144.0939  104.0811 LP  0  0  0  0  0  0  0  0  0  0  0  0  # atno 14763 bound_to 14248
  135.5218  153.7046  102.9940 LP  0  0  0  0  0  0  0  0  0  0  0  0  # atno 14798 bound_to 12654
  135.9225  154.3429  101.5453 LP  0  0  0  0  0  0  0  0  0  0  0  0  # atno 14799 bound_to 12654
  127.5836  146.6460  111.9899 LP  0  0  0  0  0  0  0  0  0  0  0  0  # atno 14808 bound_to 4821
  126.1574  142.7149  113.4104 LP  0  0  0  0  0  0  0  0  0  0  0  0  # atno 14809 bound_to 4826
  126.2643  143.5911  114.7842 LP  0  0  0  0  0  0  0  0  0  0  0  0  # atno 14810 bound_to 4826
  143.1412  146.0028  106.8705 LP  0  0  0  0  0  0  0  0  0  0  0  0  # atno 14815 bound_to 13062
  142.7805  144.4704  107.3043 LP  0  0  0  0  0  0  0  0  0  0  0  0  # atno 14816 bound_to 13062
  142.1642  137.2123  109.1649 LP  0  0  0  0  0  0  0  0  0  0  0  0  # atno 14820 bound_to 6477
  143.5565  137.9751  109.8574 LP  0  0  0  0  0  0  0  0  0  0  0  0  # atno 14821 bound_to 6477
  146.2732  139.0566  106.7764 LP  0  0  0  0  0  0  0  0  0  0  0  0  # atno 14822 bound_to 6474
  141.2295  135.2065  104.2817 LP  0  0  0  0  0  0  0  0  0  0  0  0  # atno 14827 bound_to 13124
  142.1251  136.5279  104.6259 LP  0  0  0  0  0  0  0  0  0  0  0  0  # atno 14828 bound_to 13124

> <Gold.Score>
     Fitness  S(hb_ext) S(vdw_ext)  S(hb_int)    S(int)      intcor
     29.32       1.31      20.66       0.00      -0.40      -0.76

> <Gold.Goldscore.Fitness>
29.3200

> <Gold.Goldscore.Internal.Vdw>
-0.4925

> <Gold.Goldscore.Internal.Torsion>
-0.6619

> <Gold.Goldscore.External.Vdw>
20.6580

> <Gold.Goldscore.Internal.HBond>
0.0000

> <Gold.Goldscore.External.HBond>
1.3112

> <Gold.Goldscore.Internal.Correction>
-0.7585

> <Gold.Goldscore.Hbonds>
donor molecule, donor type, donor heavy atom, donor atom, acceptor molecule, acceptor atom, score
      L1  H    10    23       P1 14248  0.66

> <Gold.Goldscore.Internal.Vdw.Weighted>
-0.4925

> <Gold.Goldscore.Internal.Torsion.Weighted>
-0.6619

> <Gold.Goldscore.External.Vdw.Weighted>
28.4047

> <Gold.Goldscore.Internal.HBond.Weighted>
0.0000

> <Gold.Goldscore.External.HBond.Weighted>
1.3112

> <Gold.Goldscore.Internal.Correction.Weighted>
-0.7585

> <Gold.Rescore>
     Score     S(PLP)   S(hbond)     S(cho)   S(metal)  DE(clash)   DE(tors)     intcor
     33.28     -35.58       0.06       0.00       0.00       0.00       1.24       ----

> <Gold.PLP.Fitness>
33.2799

> <Gold.PLP.PLP>
-35.5836

> <Gold.PLP.part.hbond>
-2.1083

> <Gold.PLP.part.metal>
0.0000

> <Gold.PLP.part.buried>
-4.6126

> <Gold.PLP.part.nonpolar>
-29.5134

> <Gold.PLP.part.repulsive>
0.2946

> <Gold.PLP.ligand.clash>
0.0000

> <Gold.PLP.ligand.torsion>
1.2392

> <Gold.PLP.Chemscore.Hbond>
0.0582

> <Gold.PLP.Chemscore.CHOScore>
0.0000

> <Gold.PLP.Chemscore.Metal>
0.0000

> <Gold.PLP.Chemscore.Internal.Correction>
   9.000000E+99

