#       Name:                CT1002167954
#       Creating user name   hitesit
#       Creation time:       Sun Apr 16 22:51:14 2023


#       File generated by GOLD software.
#

@<TRIPOS>MOLECULE
CT1002167954|ligand_prepared|mol2|1|dock10
    29    30     1
SMALL
NO_CHARGES


@<TRIPOS>ATOM
      1 C1         116.3920 245.4848 359.1422 C.3            1 RES1               0.0000
      2 C2         117.5278 246.2939 358.4833 C.ar           1 RES1               0.0000
      3 C3         116.6904 245.4676 360.6385 C.2            1 RES1               0.0000
      4 C4         115.0938 246.1949 358.7748 C.2            1 RES1               0.0000
      5 C5         116.2951 244.0240 358.6438 C.3            1 RES1               0.0000
      6 C6         117.3785 247.6560 358.2399 C.ar           1 RES1               0.0000
      7 C7         118.7295 245.6938 358.1166 C.ar           1 RES1               0.0000
      8 N8         115.9193 246.2511 361.4456 N.am           1 RES1               0.0000
      9 O9         117.6138 244.8072 361.0984 O.2            1 RES1               0.0000
     10 N10        114.3719 246.7760 359.7842 N.am           1 RES1               0.0000
     11 O11        114.6979 246.2708 357.6182 O.2            1 RES1               0.0000
     12 C12        115.0225 243.3122 359.0751 C.3            1 RES1               0.0000
     13 C13        118.3948 248.3921 357.6537 C.ar           1 RES1               0.0000
     14 C14        119.7444 246.4319 357.5303 C.ar           1 RES1               0.0000
     15 C15        114.7414 246.8628 361.0988 C.2            1 RES1               0.0000
     16 C16        119.5784 247.7808 357.2990 C.ar           1 RES1               0.0000
     17 O17        114.0645 247.4494 361.9383 O.2            1 RES1               0.0000
     18 H18        116.3477 244.0205 357.5481 H              1 RES1               0.0000
     19 H19        117.1588 243.4637 359.0227 H              1 RES1               0.0000
     20 H20        116.4532 248.1538 358.5100 H              1 RES1               0.0000
     21 H21        118.8819 244.6337 358.2880 H              1 RES1               0.0000
     22 H22        116.2488 246.3956 362.3947 H              1 RES1               0.0000
     23 H23        113.4760 247.1813 359.5324 H              1 RES1               0.0000
     24 H24        115.0052 242.2914 358.6991 H              1 RES1               0.0000
     25 H25        114.9501 243.2750 360.1600 H              1 RES1               0.0000
     26 H26        114.1438 243.8286 358.6942 H              1 RES1               0.0000
     27 H27        118.2587 249.4532 357.4725 H              1 RES1               0.0000
     28 H28        120.6741 245.9465 357.2521 H              1 RES1               0.0000
     29 H29        120.3745 248.3578 356.8401 H              1 RES1               0.0000
@<TRIPOS>BOND
    1    1    2 1     
    2    1    3 1     
    3    1    4 1     
    4    1    5 1     
    5    2    6 ar    
    6    2    7 ar    
    7    3    8 1     
    8    3    9 2     
    9    4   10 1     
   10    4   11 2     
   11    5   12 1     
   12    5   18 1     
   13    5   19 1     
   14    6   13 ar    
   15    6   20 1     
   16    7   14 ar    
   17    7   21 1     
   18    8   15 1     
   19    8   22 1     
   20   10   15 1     
   21   10   23 1     
   22   12   24 1     
   23   12   25 1     
   24   12   26 1     
   25   13   16 ar    
   26   13   27 1     
   27   14   16 ar    
   28   14   28 1     
   29   15   17 2     
   30   16   29 1     
@<TRIPOS>SUBSTRUCTURE
      1 RES1           1
@<TRIPOS>SET
DONOR_HYDROGENS      STATIC     ATOMS    <user>   **** ""
2 22 23
ATOM$RED        STATIC     ATOMS    COLORGROUP SYSTEM
2 22 23
@<TRIPOS>COMMENT
> <Gold.Version>
2022.3.0

> <Gold.Id.Protein>
unknown|4uch_clean|pdb

> <Gold.Protein.RotatedTorsions>
[ 12874 12851 12850 12848 ] final  155.30 input   59.98 | X-H torsion
[ 13435 13409 13408 13404 ] final  125.66 input   59.99 | X-H torsion
[ 5555 5539 5538 5535 ] final  -69.26 input   60.02 | X-H torsion
[ 9091 9061 9060 9058 ] final   25.57 input   59.99 | X-H torsion
[ 8987 8971 8970 8967 ] final -164.28 input   60.01 | X-H torsion
[ 8337 8307 8306 8304 ] final  -14.94 input   59.99 | X-H torsion
[ 13456 13411 13410 13408 ] final -166.42 input   60.01 | X-H torsion

> <Gold.Protein.ActiveResidues>
 TRP311  MET341  HIS342  TRP414  ALA417  ARG419  CYS420  VAL421  GLY422  ARG423 
 SER462  ALA463  SER482  GLN483  LEU484  ILE485  ARG486  TRP566  TYR567  LEU569 
 PRO570  ALA571  VAL572  SER573  ASN574  MET575  PHE589  SER590  GLY591  TRP592 
 TYR593  MET594  GLU597  ILE598  ARG601  ASP602  ARG608  TRP683  PHE696  HIS697 
 GLU710  TYR711  GLN712  ASP714  HEM750  H4B760 

> <Gold.Protein.RotatedAtoms>
  127.7575  249.5627  362.2475 H   0  0  0  0  0  0  0  0  0  0  0  0  # atno 5555 bound_to 5539
  123.6575  242.4742  361.0347 H   0  0  0  0  0  0  0  0  0  0  0  0  # atno 8337 bound_to 8307
  115.3622  244.4228  368.3038 H   0  0  0  0  0  0  0  0  0  0  0  0  # atno 8987 bound_to 8971
  121.9055  241.8896  359.7185 H   0  0  0  0  0  0  0  0  0  0  0  0  # atno 9091 bound_to 9061
  119.2580  254.6422  353.3624 H   0  0  0  0  0  0  0  0  0  0  0  0  # atno 12874 bound_to 12851
  124.2270  250.1516  344.7237 H   0  0  0  0  0  0  0  0  0  0  0  0  # atno 13435 bound_to 13409
  121.3037  253.2368  344.3558 H   0  0  0  0  0  0  0  0  0  0  0  0  # atno 13456 bound_to 13411
  119.4168  253.7492  354.7132 LP  0  0  0  0  0  0  0  0  0  0  0  0  # atno 13471 bound_to 12851
  120.7043  254.0000  353.7405 LP  0  0  0  0  0  0  0  0  0  0  0  0  # atno 13472 bound_to 12851
  123.5999  249.1661  345.8562 LP  0  0  0  0  0  0  0  0  0  0  0  0  # atno 13488 bound_to 13409
  124.8365  250.1641  346.2321 LP  0  0  0  0  0  0  0  0  0  0  0  0  # atno 13489 bound_to 13409
  127.2249  249.5318  360.7106 LP  0  0  0  0  0  0  0  0  0  0  0  0  # atno 13492 bound_to 5539
  126.3033  248.9161  361.9100 LP  0  0  0  0  0  0  0  0  0  0  0  0  # atno 13493 bound_to 5539
  122.6800  240.4592  359.7695 LP  0  0  0  0  0  0  0  0  0  0  0  0  # atno 13518 bound_to 9061
  122.0146  241.0794  361.1257 LP  0  0  0  0  0  0  0  0  0  0  0  0  # atno 13519 bound_to 9061
  114.2408  244.0002  367.2030 LP  0  0  0  0  0  0  0  0  0  0  0  0  # atno 13520 bound_to 8971
  114.3347  245.5444  367.7258 LP  0  0  0  0  0  0  0  0  0  0  0  0  # atno 13521 bound_to 8971
  125.0812  241.8542  360.5485 LP  0  0  0  0  0  0  0  0  0  0  0  0  # atno 13526 bound_to 8307
  125.0337  242.9396  361.7676 LP  0  0  0  0  0  0  0  0  0  0  0  0  # atno 13527 bound_to 8307

> <Gold.Score>
     Fitness  S(hb_ext) S(vdw_ext)  S(hb_int)    S(int)      intcor
     46.21      10.22      26.69       0.00      -0.71      -0.76

> <Gold.Goldscore.Fitness>
46.2077

> <Gold.Goldscore.Internal.Vdw>
-0.8966

> <Gold.Goldscore.Internal.Torsion>
-0.5728

> <Gold.Goldscore.External.Vdw>
26.6929

> <Gold.Goldscore.Internal.HBond>
0.0000

> <Gold.Goldscore.External.HBond>
10.2186

> <Gold.Goldscore.Internal.Correction>
-0.7558

> <Gold.Goldscore.Hbonds>
donor molecule, donor type, donor heavy atom, donor atom, acceptor molecule, acceptor atom, score
      P1  H  8438  8461       L1    17  0.28
      P1  M 13284 13534       L1    11  0.96

> <Gold.Goldscore.Internal.Vdw.Weighted>
-0.8966

> <Gold.Goldscore.Internal.Torsion.Weighted>
-0.5728

> <Gold.Goldscore.External.Vdw.Weighted>
36.7027

> <Gold.Goldscore.Internal.HBond.Weighted>
0.0000

> <Gold.Goldscore.External.HBond.Weighted>
10.2186

> <Gold.Goldscore.Internal.Correction.Weighted>
-0.7558

> <Gold.Rescore>
     Score     S(PLP)   S(hbond)     S(cho)   S(metal)  DE(clash)   DE(tors)     intcor
     35.17     -28.54       1.00       0.00       1.00       2.10       0.13       ----

> <Gold.PLP.Fitness>
35.1657

> <Gold.PLP.PLP>
-28.5364

> <Gold.PLP.part.hbond>
-2.4117

> <Gold.PLP.part.metal>
-1.0000

> <Gold.PLP.part.buried>
20.8599

> <Gold.PLP.part.nonpolar>
-54.6579

> <Gold.PLP.part.repulsive>
7.3109

> <Gold.PLP.ligand.clash>
2.1014

> <Gold.PLP.ligand.torsion>
0.1347

> <Gold.PLP.Chemscore.Hbond>
1.0000

> <Gold.PLP.Chemscore.CHOScore>
0.0000

> <Gold.PLP.Chemscore.Metal>
1.0000

> <Gold.Chemscore.Hbonds>
donor molecule, donor type, donor heavy atom, donor atom, acceptor molecule, acceptor atom, score
      P1  M 13284 13284       L1    11  1.00

> <Gold.PLP.Chemscore.Internal.Correction>
   9.000000E+99

#       Name:                CT1002167954
#       Creating user name   hitesit
#       Creation time:       Sun Apr 16 22:51:08 2023


#       File generated by GOLD software.
#

@<TRIPOS>MOLECULE
CT1002167954|ligand_prepared|mol2|1|dock4
    29    30     1
SMALL
NO_CHARGES


@<TRIPOS>ATOM
      1 C1         120.0489 245.4740 358.2528 C.3            1 RES1               0.0000
      2 C2         118.5837 245.0121 358.3891 C.ar           1 RES1               0.0000
      3 C3         120.6948 245.2589 359.6184 C.2            1 RES1               0.0000
      4 C4         120.6592 244.6335 357.1366 C.2            1 RES1               0.0000
      5 C5         120.2010 246.9638 357.8668 C.3            1 RES1               0.0000
      6 C6         118.2845 243.7148 358.7945 C.ar           1 RES1               0.0000
      7 C7         117.5225 245.8710 358.1160 C.ar           1 RES1               0.0000
      8 N8         121.5638 244.2160 359.7491 N.am           1 RES1               0.0000
      9 O9         120.4156 245.9693 360.5763 O.2            1 RES1               0.0000
     10 N10        121.6590 243.7565 357.4666 N.am           1 RES1               0.0000
     11 O11        120.2718 244.7108 355.9772 O.2            1 RES1               0.0000
     12 C12        121.6450 247.4354 357.7997 C.3            1 RES1               0.0000
     13 C13        116.9720 243.2923 358.9251 C.ar           1 RES1               0.0000
     14 C14        116.2106 245.4464 358.2470 C.ar           1 RES1               0.0000
     15 C15        122.1178 243.4875 358.7273 C.2            1 RES1               0.0000
     16 C16        115.9342 244.1578 358.6519 C.ar           1 RES1               0.0000
     17 O17        122.9824 242.6449 358.9502 O.2            1 RES1               0.0000
     18 H18        119.7311 247.1248 356.8887 H              1 RES1               0.0000
     19 H19        119.6636 247.5756 358.6017 H              1 RES1               0.0000
     20 H20        119.0880 243.0188 359.0115 H              1 RES1               0.0000
     21 H21        117.7161 246.8888 357.7950 H              1 RES1               0.0000
     22 H22        121.8260 243.9535 360.6939 H              1 RES1               0.0000
     23 H23        122.1024 243.2580 356.7016 H              1 RES1               0.0000
     24 H24        121.6950 248.4870 357.5249 H              1 RES1               0.0000
     25 H25        122.1359 247.3132 358.7629 H              1 RES1               0.0000
     26 H26        122.2031 246.8650 357.0600 H              1 RES1               0.0000
     27 H27        116.7598 242.2768 359.2427 H              1 RES1               0.0000
     28 H28        115.3970 246.1307 358.0303 H              1 RES1               0.0000
     29 H29        114.9061 243.8267 358.7546 H              1 RES1               0.0000
@<TRIPOS>BOND
    1    1    2 1     
    2    1    3 1     
    3    1    4 1     
    4    1    5 1     
    5    2    6 ar    
    6    2    7 ar    
    7    3    8 1     
    8    3    9 2     
    9    4   10 1     
   10    4   11 2     
   11    5   12 1     
   12    5   18 1     
   13    5   19 1     
   14    6   13 ar    
   15    6   20 1     
   16    7   14 ar    
   17    7   21 1     
   18    8   15 1     
   19    8   22 1     
   20   10   15 1     
   21   10   23 1     
   22   12   24 1     
   23   12   25 1     
   24   12   26 1     
   25   13   16 ar    
   26   13   27 1     
   27   14   16 ar    
   28   14   28 1     
   29   15   17 2     
   30   16   29 1     
@<TRIPOS>SUBSTRUCTURE
      1 RES1           1
@<TRIPOS>SET
DONOR_HYDROGENS      STATIC     ATOMS    <user>   **** ""
2 22 23
ATOM$RED        STATIC     ATOMS    COLORGROUP SYSTEM
2 22 23
@<TRIPOS>COMMENT
> <Gold.Version>
2022.3.0

> <Gold.Id.Protein>
unknown|4uch_clean|pdb

> <Gold.Protein.RotatedTorsions>
[ 12874 12851 12850 12848 ] final  -51.58 input   59.98 | X-H torsion
[ 13435 13409 13408 13404 ] final    0.54 input   59.99 | X-H torsion
[ 5555 5539 5538 5535 ] final  -96.41 input   60.02 | X-H torsion
[ 9091 9061 9060 9058 ] final  -37.69 input   59.99 | X-H torsion
[ 8987 8971 8970 8967 ] final -177.59 input   60.01 | X-H torsion
[ 8337 8307 8306 8304 ] final  -55.13 input   59.99 | X-H torsion
[ 13456 13411 13410 13408 ] final   32.09 input   60.01 | X-H torsion

> <Gold.Protein.ActiveResidues>
 TRP311  MET341  HIS342  TRP414  ALA417  ARG419  CYS420  VAL421  GLY422  ARG423 
 SER462  ALA463  SER482  GLN483  LEU484  ILE485  ARG486  TRP566  TYR567  LEU569 
 PRO570  ALA571  VAL572  SER573  ASN574  MET575  PHE589  SER590  GLY591  TRP592 
 TYR593  MET594  GLU597  ILE598  ARG601  ASP602  ARG608  TRP683  PHE696  HIS697 
 GLU710  TYR711  GLN712  ASP714  HEM750  H4B760 

> <Gold.Protein.RotatedAtoms>
  127.9255  249.6990  361.8652 H   0  0  0  0  0  0  0  0  0  0  0  0  # atno 5555 bound_to 5539
  123.8949  242.0602  360.6033 H   0  0  0  0  0  0  0  0  0  0  0  0  # atno 8337 bound_to 8307
  115.3306  244.2252  368.2198 H   0  0  0  0  0  0  0  0  0  0  0  0  # atno 8987 bound_to 8971
  122.4071  241.1618  359.2906 H   0  0  0  0  0  0  0  0  0  0  0  0  # atno 9091 bound_to 9061
  120.6025  253.7445  354.2001 H   0  0  0  0  0  0  0  0  0  0  0  0  # atno 12874 bound_to 12851
  123.6360  249.1762  345.9316 H   0  0  0  0  0  0  0  0  0  0  0  0  # atno 13435 bound_to 13409
  121.8812  253.1560  346.1105 H   0  0  0  0  0  0  0  0  0  0  0  0  # atno 13456 bound_to 13411
  119.7470  254.6392  353.1441 LP  0  0  0  0  0  0  0  0  0  0  0  0  # atno 13471 bound_to 12851
  119.0201  254.0141  354.4661 LP  0  0  0  0  0  0  0  0  0  0  0  0  # atno 13472 bound_to 12851
  124.8664  250.2135  346.1710 LP  0  0  0  0  0  0  0  0  0  0  0  0  # atno 13488 bound_to 13409
  124.1651  250.0992  344.7007 LP  0  0  0  0  0  0  0  0  0  0  0  0  # atno 13489 bound_to 13409
  126.8261  249.3400  360.7212 LP  0  0  0  0  0  0  0  0  0  0  0  0  # atno 13492 bound_to 5539
  126.5327  248.9706  362.2846 LP  0  0  0  0  0  0  0  0  0  0  0  0  # atno 13493 bound_to 5539
  122.4723  240.4153  360.7352 LP  0  0  0  0  0  0  0  0  0  0  0  0  # atno 13518 bound_to 9061
  121.7173  241.8560  360.5909 LP  0  0  0  0  0  0  0  0  0  0  0  0  # atno 13519 bound_to 9061
  114.1146  244.1672  367.1401 LP  0  0  0  0  0  0  0  0  0  0  0  0  # atno 13520 bound_to 8971
  114.4927  245.5765  367.8734 LP  0  0  0  0  0  0  0  0  0  0  0  0  # atno 13521 bound_to 8971
  125.4801  242.1612  360.9564 LP  0  0  0  0  0  0  0  0  0  0  0  0  # atno 13526 bound_to 8307
  124.3957  243.0495  361.7942 LP  0  0  0  0  0  0  0  0  0  0  0  0  # atno 13527 bound_to 8307

> <Gold.Score>
     Fitness  S(hb_ext) S(vdw_ext)  S(hb_int)    S(int)      intcor
     43.74       1.06      31.08       0.00      -0.06      -0.78

> <Gold.Goldscore.Fitness>
43.7380

> <Gold.Goldscore.Internal.Vdw>
-0.4510

> <Gold.Goldscore.Internal.Torsion>
-0.3813

> <Gold.Goldscore.External.Vdw>
31.0806

> <Gold.Goldscore.Internal.HBond>
0.0000

> <Gold.Goldscore.External.HBond>
1.0576

> <Gold.Goldscore.Internal.Correction>
-0.7769

> <Gold.Goldscore.Hbonds>
donor molecule, donor type, donor heavy atom, donor atom, acceptor molecule, acceptor atom, score
      P1  H  9061  9091       L1    17  0.02
      P1  H  8307  8337       L1    17  0.41
      P1  H  8258  8294       L1    17  0.07
      L1  H     8    22       P1  5564  0.03

> <Gold.Goldscore.Internal.Vdw.Weighted>
-0.4510

> <Gold.Goldscore.Internal.Torsion.Weighted>
-0.3813

> <Gold.Goldscore.External.Vdw.Weighted>
42.7358

> <Gold.Goldscore.Internal.HBond.Weighted>
0.0000

> <Gold.Goldscore.External.HBond.Weighted>
1.0576

> <Gold.Goldscore.Internal.Correction.Weighted>
-0.7769

> <Gold.Rescore>
     Score     S(PLP)   S(hbond)     S(cho)   S(metal)  DE(clash)   DE(tors)     intcor
     33.79     -31.15       0.92       0.00       0.00       0.00       0.07       ----

> <Gold.PLP.Fitness>
33.7900

> <Gold.PLP.PLP>
-31.1509

> <Gold.PLP.part.hbond>
-4.4893

> <Gold.PLP.part.metal>
0.0000

> <Gold.PLP.part.buried>
6.1332

> <Gold.PLP.part.nonpolar>
-35.5207

> <Gold.PLP.part.repulsive>
2.5847

> <Gold.PLP.ligand.clash>
0.0000

> <Gold.PLP.ligand.torsion>
0.0661

> <Gold.PLP.Chemscore.Hbond>
0.9238

> <Gold.PLP.Chemscore.CHOScore>
0.0000

> <Gold.PLP.Chemscore.Metal>
0.0000

> <Gold.Chemscore.Hbonds>
donor molecule, donor type, donor heavy atom, donor atom, acceptor molecule, acceptor atom, score
      L1  H     8    22       P1  5564  0.53
      P1  H  9061  9091       L1    17  0.42
      P1  H  8307  8337       L1    17  1.00

> <Gold.PLP.Chemscore.Internal.Correction>
   9.000000E+99

#       Name:                CT1002167954
#       Creating user name   hitesit
#       Creation time:       Sun Apr 16 22:51:11 2023


#       File generated by GOLD software.
#

@<TRIPOS>MOLECULE
CT1002167954|ligand_prepared|mol2|1|dock7
    29    30     1
SMALL
NO_CHARGES


@<TRIPOS>ATOM
      1 C1         119.5308 245.4418 358.5613 C.3            1 RES1               0.0000
      2 C2         118.0823 244.9125 358.5838 C.ar           1 RES1               0.0000
      3 C3         120.0027 245.4607 360.0122 C.2            1 RES1               0.0000
      4 C4         120.3177 244.4935 357.6634 C.2            1 RES1               0.0000
      5 C5         119.6653 246.8696 357.9824 C.3            1 RES1               0.0000
      6 C6         117.8268 243.5541 358.7462 C.ar           1 RES1               0.0000
      7 C7         116.9933 245.7690 358.4463 C.ar           1 RES1               0.0000
      8 N8         120.8929 244.5029 360.3996 N.am           1 RES1               0.0000
      9 O9         119.5701 246.2791 360.8143 O.2            1 RES1               0.0000
     10 N10        121.3042 243.7357 358.2381 N.am           1 RES1               0.0000
     11 O11        120.0812 244.3835 356.4667 O.2            1 RES1               0.0000
     12 C12        121.1048 247.3283 357.8105 C.3            1 RES1               0.0000
     13 C13        116.5294 243.0699 358.7732 C.ar           1 RES1               0.0000
     14 C14        115.6967 245.2826 358.4733 C.ar           1 RES1               0.0000
     15 C15        121.6069 243.6749 359.5711 C.2            1 RES1               0.0000
     16 C16        115.4636 243.9337 358.6372 C.ar           1 RES1               0.0000
     17 O17        122.4718 242.9277 360.0191 O.2            1 RES1               0.0000
     18 H18        119.1649 246.9036 357.0068 H              1 RES1               0.0000
     19 H19        119.1485 247.5710 358.6490 H              1 RES1               0.0000
     20 H20        118.6529 242.8589 358.8523 H              1 RES1               0.0000
     21 H21        117.1528 246.8339 358.3152 H              1 RES1               0.0000
     22 H22        121.0415 244.3920 361.3975 H              1 RES1               0.0000
     23 H23        121.8650 243.1640 357.6143 H              1 RES1               0.0000
     24 H24        121.1423 248.3358 357.4015 H              1 RES1               0.0000
     25 H25        121.6256 247.3308 358.7658 H              1 RES1               0.0000
     26 H26        121.6419 246.6675 357.1333 H              1 RES1               0.0000
     27 H27        116.3514 242.0073 358.9010 H              1 RES1               0.0000
     28 H28        114.8609 245.9660 358.3653 H              1 RES1               0.0000
     29 H29        114.4474 243.5542 358.6588 H              1 RES1               0.0000
@<TRIPOS>BOND
    1    1    2 1     
    2    1    3 1     
    3    1    4 1     
    4    1    5 1     
    5    2    6 ar    
    6    2    7 ar    
    7    3    8 1     
    8    3    9 2     
    9    4   10 1     
   10    4   11 2     
   11    5   12 1     
   12    5   18 1     
   13    5   19 1     
   14    6   13 ar    
   15    6   20 1     
   16    7   14 ar    
   17    7   21 1     
   18    8   15 1     
   19    8   22 1     
   20   10   15 1     
   21   10   23 1     
   22   12   24 1     
   23   12   25 1     
   24   12   26 1     
   25   13   16 ar    
   26   13   27 1     
   27   14   16 ar    
   28   14   28 1     
   29   15   17 2     
   30   16   29 1     
@<TRIPOS>SUBSTRUCTURE
      1 RES1           1
@<TRIPOS>SET
DONOR_HYDROGENS      STATIC     ATOMS    <user>   **** ""
2 22 23
ATOM$RED        STATIC     ATOMS    COLORGROUP SYSTEM
2 22 23
@<TRIPOS>COMMENT
> <Gold.Version>
2022.3.0

> <Gold.Id.Protein>
unknown|4uch_clean|pdb

> <Gold.Protein.RotatedTorsions>
[ 12874 12851 12850 12848 ] final   14.95 input   59.98 | X-H torsion
[ 13435 13409 13408 13404 ] final  -80.86 input   59.99 | X-H torsion
[ 5555 5539 5538 5535 ] final   68.00 input   60.02 | X-H torsion
[ 9091 9061 9060 9058 ] final  -64.94 input   59.99 | X-H torsion
[ 8987 8971 8970 8967 ] final  -10.35 input   60.01 | X-H torsion
[ 8337 8307 8306 8304 ] final  -16.22 input   59.99 | X-H torsion
[ 13456 13411 13410 13408 ] final -147.46 input   60.01 | X-H torsion

> <Gold.Protein.ActiveResidues>
 TRP311  MET341  HIS342  TRP414  ALA417  ARG419  CYS420  VAL421  GLY422  ARG423 
 SER462  ALA463  SER482  GLN483  LEU484  ILE485  ARG486  TRP566  TYR567  LEU569 
 PRO570  ALA571  VAL572  SER573  ASN574  MET575  PHE589  SER590  GLY591  TRP592 
 TYR593  MET594  GLU597  ILE598  ARG601  ASP602  ARG608  TRP683  PHE696  HIS697 
 GLU710  TYR711  GLN712  ASP714  HEM750  H4B760 

> <Gold.Protein.RotatedAtoms>
  126.2524  248.9350  361.6333 H   0  0  0  0  0  0  0  0  0  0  0  0  # atno 5555 bound_to 5539
  123.6583  242.4602  361.0191 H   0  0  0  0  0  0  0  0  0  0  0  0  # atno 8337 bound_to 8307
  114.0311  245.2536  367.3739 H   0  0  0  0  0  0  0  0  0  0  0  0  # atno 8987 bound_to 8971
  122.5821  240.7815  359.4297 H   0  0  0  0  0  0  0  0  0  0  0  0  # atno 9091 bound_to 9061
  119.7327  253.6498  354.7377 H   0  0  0  0  0  0  0  0  0  0  0  0  # atno 12874 bound_to 12851
  124.5299  249.7965  346.4848 H   0  0  0  0  0  0  0  0  0  0  0  0  # atno 13435 bound_to 13409
  121.1003  253.0123  344.4137 H   0  0  0  0  0  0  0  0  0  0  0  0  # atno 13456 bound_to 13411
  120.6146  254.1876  353.4805 LP  0  0  0  0  0  0  0  0  0  0  0  0  # atno 13471 bound_to 12851
  119.0285  254.5610  353.5882 LP  0  0  0  0  0  0  0  0  0  0  0  0  # atno 13472 bound_to 12851
  124.6216  250.4160  344.9832 LP  0  0  0  0  0  0  0  0  0  0  0  0  # atno 13488 bound_to 13409
  123.5096  249.2719  345.3312 LP  0  0  0  0  0  0  0  0  0  0  0  0  # atno 13489 bound_to 13409
  127.5757  249.4468  362.4292 LP  0  0  0  0  0  0  0  0  0  0  0  0  # atno 13492 bound_to 5539
  127.4693  249.6338  360.8104 LP  0  0  0  0  0  0  0  0  0  0  0  0  # atno 13493 bound_to 5539
  122.2589  240.6794  361.0215 LP  0  0  0  0  0  0  0  0  0  0  0  0  # atno 13518 bound_to 9061
  121.7546  241.9748  360.1645 LP  0  0  0  0  0  0  0  0  0  0  0  0  # atno 13519 bound_to 9061
  115.2739  244.9583  368.3819 LP  0  0  0  0  0  0  0  0  0  0  0  0  # atno 13520 bound_to 8971
  114.6424  243.7496  367.4836 LP  0  0  0  0  0  0  0  0  0  0  0  0  # atno 13521 bound_to 8971
  125.0989  241.8603  360.5581 LP  0  0  0  0  0  0  0  0  0  0  0  0  # atno 13526 bound_to 8307
  125.0151  242.9475  361.7737 LP  0  0  0  0  0  0  0  0  0  0  0  0  # atno 13527 bound_to 8307

> <Gold.Score>
     Fitness  S(hb_ext) S(vdw_ext)  S(hb_int)    S(int)      intcor
     43.18       1.71      30.24       0.00      -0.11      -0.76

> <Gold.Goldscore.Fitness>
43.1840

> <Gold.Goldscore.Internal.Vdw>
-0.4313

> <Gold.Goldscore.Internal.Torsion>
-0.4373

> <Gold.Goldscore.External.Vdw>
30.2436

> <Gold.Goldscore.Internal.HBond>
0.0000

> <Gold.Goldscore.External.HBond>
1.7119

> <Gold.Goldscore.Internal.Correction>
-0.7558

> <Gold.Goldscore.Hbonds>
donor molecule, donor type, donor heavy atom, donor atom, acceptor molecule, acceptor atom, score
      P1  H  8307  8337       L1    17  0.81
      P1  H  8258  8294       L1    17  0.04

> <Gold.Goldscore.Internal.Vdw.Weighted>
-0.4313

> <Gold.Goldscore.Internal.Torsion.Weighted>
-0.4373

> <Gold.Goldscore.External.Vdw.Weighted>
41.5849

> <Gold.Goldscore.Internal.HBond.Weighted>
0.0000

> <Gold.Goldscore.External.HBond.Weighted>
1.7119

> <Gold.Goldscore.Internal.Correction.Weighted>
-0.7558

> <Gold.Rescore>
     Score     S(PLP)   S(hbond)     S(cho)   S(metal)  DE(clash)   DE(tors)     intcor
     33.26     -32.25       1.00       0.00       0.00       0.00       1.00       ----

> <Gold.PLP.Fitness>
33.2558

> <Gold.PLP.PLP>
-32.2470

> <Gold.PLP.part.hbond>
-4.6464

> <Gold.PLP.part.metal>
0.0000

> <Gold.PLP.part.buried>
7.7890

> <Gold.PLP.part.nonpolar>
-39.2353

> <Gold.PLP.part.repulsive>
3.4723

> <Gold.PLP.ligand.clash>
0.0000

> <Gold.PLP.ligand.torsion>
1.0006

> <Gold.PLP.Chemscore.Hbond>
1.0033

> <Gold.PLP.Chemscore.CHOScore>
0.0000

> <Gold.PLP.Chemscore.Metal>
0.0000

> <Gold.Chemscore.Hbonds>
donor molecule, donor type, donor heavy atom, donor atom, acceptor molecule, acceptor atom, score
      L1  H     8    22       P1  5564  0.04
      P1  H  8307  8337       L1    17  1.00

> <Gold.PLP.Chemscore.Internal.Correction>
   9.000000E+99

#       Name:                CT1002167954
#       Creating user name   hitesit
#       Creation time:       Sun Apr 16 22:51:07 2023


#       File generated by GOLD software.
#

@<TRIPOS>MOLECULE
CT1002167954|ligand_prepared|mol2|1|dock2
    29    30     1
SMALL
NO_CHARGES


@<TRIPOS>ATOM
      1 C1         122.3967 244.8398 356.3564 C.3            1 RES1               0.0000
      2 C2         121.9132 246.1853 356.9349 C.ar           1 RES1               0.0000
      3 C3         123.9012 244.9805 356.1443 C.2            1 RES1               0.0000
      4 C4         122.0090 243.7736 357.3750 C.2            1 RES1               0.0000
      5 C5         121.7426 244.4697 355.0049 C.3            1 RES1               0.0000
      6 C6         120.5544 246.4757 357.0132 C.ar           1 RES1               0.0000
      7 C7         122.8124 247.1433 357.3958 C.ar           1 RES1               0.0000
      8 N8         124.7254 244.3281 357.0131 N.am           1 RES1               0.0000
      9 O9         124.3576 245.6850 355.2524 O.2            1 RES1               0.0000
     10 N10        123.0165 243.1045 358.0192 N.am           1 RES1               0.0000
     11 O11        120.8401 243.5185 357.6378 O.2            1 RES1               0.0000
     12 C12        122.3290 243.2233 354.3609 C.3            1 RES1               0.0000
     13 C13        120.1104 247.6789 357.5361 C.ar           1 RES1               0.0000
     14 C14        122.3662 248.3461 357.9182 C.ar           1 RES1               0.0000
     15 C15        124.3570 243.3548 357.9068 C.2            1 RES1               0.0000
     16 C16        121.0158 248.6146 357.9893 C.ar           1 RES1               0.0000
     17 O17        125.1999 242.7470 358.5604 O.2            1 RES1               0.0000
     18 H18        120.6685 244.3131 355.1636 H              1 RES1               0.0000
     19 H19        121.8599 245.3130 354.3131 H              1 RES1               0.0000
     20 H20        119.8272 245.7526 356.6593 H              1 RES1               0.0000
     21 H21        123.8794 246.9541 357.3487 H              1 RES1               0.0000
     22 H22        125.7065 244.5879 356.9969 H              1 RES1               0.0000
     23 H23        122.7417 242.3497 358.6398 H              1 RES1               0.0000
     24 H24        121.8346 243.0084 353.4158 H              1 RES1               0.0000
     25 H25        123.3914 243.3533 354.1657 H              1 RES1               0.0000
     26 H26        122.2071 242.3594 355.0111 H              1 RES1               0.0000
     27 H27        119.0466 247.8860 357.5886 H              1 RES1               0.0000
     28 H28        123.0823 249.0798 358.2731 H              1 RES1               0.0000
     29 H29        120.6677 249.5570 358.3992 H              1 RES1               0.0000
@<TRIPOS>BOND
    1    1    2 1     
    2    1    3 1     
    3    1    4 1     
    4    1    5 1     
    5    2    6 ar    
    6    2    7 ar    
    7    3    8 1     
    8    3    9 2     
    9    4   10 1     
   10    4   11 2     
   11    5   12 1     
   12    5   18 1     
   13    5   19 1     
   14    6   13 ar    
   15    6   20 1     
   16    7   14 ar    
   17    7   21 1     
   18    8   15 1     
   19    8   22 1     
   20   10   15 1     
   21   10   23 1     
   22   12   24 1     
   23   12   25 1     
   24   12   26 1     
   25   13   16 ar    
   26   13   27 1     
   27   14   16 ar    
   28   14   28 1     
   29   15   17 2     
   30   16   29 1     
@<TRIPOS>SUBSTRUCTURE
      1 RES1           1
@<TRIPOS>SET
DONOR_HYDROGENS      STATIC     ATOMS    <user>   **** ""
2 22 23
ATOM$RED        STATIC     ATOMS    COLORGROUP SYSTEM
2 22 23
@<TRIPOS>COMMENT
> <Gold.Version>
2022.3.0

> <Gold.Id.Protein>
unknown|4uch_clean|pdb

> <Gold.Protein.RotatedTorsions>
[ 12874 12851 12850 12848 ] final -111.57 input   59.98 | X-H torsion
[ 13435 13409 13408 13404 ] final -172.47 input   59.99 | X-H torsion
[ 5555 5539 5538 5535 ] final -171.05 input   60.02 | X-H torsion
[ 9091 9061 9060 9058 ] final -165.13 input   59.99 | X-H torsion
[ 8987 8971 8970 8967 ] final   97.15 input   60.01 | X-H torsion
[ 8337 8307 8306 8304 ] final   70.65 input   59.99 | X-H torsion
[ 13456 13411 13410 13408 ] final -171.71 input   60.01 | X-H torsion

> <Gold.Protein.ActiveResidues>
 TRP311  MET341  HIS342  TRP414  ALA417  ARG419  CYS420  VAL421  GLY422  ARG423 
 SER462  ALA463  SER482  GLN483  LEU484  ILE485  ARG486  TRP566  TYR567  LEU569 
 PRO570  ALA571  VAL572  SER573  ASN574  MET575  PHE589  SER590  GLY591  TRP592 
 TYR593  MET594  GLU597  ILE598  ARG601  ASP602  ARG608  TRP683  PHE696  HIS697 
 GLU710  TYR711  GLN712  ASP714  HEM750  H4B760 

> <Gold.Protein.RotatedAtoms>
  127.4780  249.6383  360.8245 H   0  0  0  0  0  0  0  0  0  0  0  0  # atno 5555 bound_to 5539
  124.4896  243.0459  361.8082 H   0  0  0  0  0  0  0  0  0  0  0  0  # atno 8337 bound_to 8307
  114.4889  243.8149  367.3649 H   0  0  0  0  0  0  0  0  0  0  0  0  # atno 8987 bound_to 8971
  122.4146  240.4767  360.8237 H   0  0  0  0  0  0  0  0  0  0  0  0  # atno 9091 bound_to 9061
  120.5583  254.2492  353.4131 H   0  0  0  0  0  0  0  0  0  0  0  0  # atno 12874 bound_to 12851
  124.8482  250.4858  345.3781 H   0  0  0  0  0  0  0  0  0  0  0  0  # atno 13435 bound_to 13409
  121.3652  253.2975  344.3572 H   0  0  0  0  0  0  0  0  0  0  0  0  # atno 13456 bound_to 13411
  118.9756  254.5226  353.6731 LP  0  0  0  0  0  0  0  0  0  0  0  0  # atno 13471 bound_to 12851
  119.8361  253.6225  354.7296 LP  0  0  0  0  0  0  0  0  0  0  0  0  # atno 13472 bound_to 12851
  123.6193  249.5094  344.9499 LP  0  0  0  0  0  0  0  0  0  0  0  0  # atno 13488 bound_to 13409
  124.1913  249.4842  346.4792 LP  0  0  0  0  0  0  0  0  0  0  0  0  # atno 13489 bound_to 13409
  126.2459  248.9317  361.6177 LP  0  0  0  0  0  0  0  0  0  0  0  0  # atno 13492 bound_to 5539
  127.5639  249.4400  362.4369 LP  0  0  0  0  0  0  0  0  0  0  0  0  # atno 13493 bound_to 5539
  121.7168  241.9059  360.4792 LP  0  0  0  0  0  0  0  0  0  0  0  0  # atno 13518 bound_to 9061
  122.4653  241.0552  359.3034 LP  0  0  0  0  0  0  0  0  0  0  0  0  # atno 13519 bound_to 9061
  114.1190  245.3943  367.4939 LP  0  0  0  0  0  0  0  0  0  0  0  0  # atno 13520 bound_to 8971
  115.3362  244.7627  368.3806 LP  0  0  0  0  0  0  0  0  0  0  0  0  # atno 13521 bound_to 8971
  123.8307  242.1129  360.6493 LP  0  0  0  0  0  0  0  0  0  0  0  0  # atno 13526 bound_to 8307
  125.4462  242.1050  360.8877 LP  0  0  0  0  0  0  0  0  0  0  0  0  # atno 13527 bound_to 8307

> <Gold.Score>
     Fitness  S(hb_ext) S(vdw_ext)  S(hb_int)    S(int)      intcor
     39.24       6.12      25.11       0.00      -1.42      -0.78

> <Gold.Goldscore.Fitness>
39.2377

> <Gold.Goldscore.Internal.Vdw>
-1.7605

> <Gold.Goldscore.Internal.Torsion>
-0.4355

> <Gold.Goldscore.External.Vdw>
25.1149

> <Gold.Goldscore.Internal.HBond>
0.0000

> <Gold.Goldscore.External.HBond>
6.1238

> <Gold.Goldscore.Internal.Correction>
-0.7769

> <Gold.Goldscore.Hbonds>
donor molecule, donor type, donor heavy atom, donor atom, acceptor molecule, acceptor atom, score
      P1  H  9502  9538       L1    17  0.69
      L1  H    10    23       P1  9061  1.00

> <Gold.Goldscore.Internal.Vdw.Weighted>
-1.7605

> <Gold.Goldscore.Internal.Torsion.Weighted>
-0.4355

> <Gold.Goldscore.External.Vdw.Weighted>
34.5330

> <Gold.Goldscore.Internal.HBond.Weighted>
0.0000

> <Gold.Goldscore.External.HBond.Weighted>
6.1238

> <Gold.Goldscore.Internal.Correction.Weighted>
-0.7769

> <Gold.Rescore>
     Score     S(PLP)   S(hbond)     S(cho)   S(metal)  DE(clash)   DE(tors)     intcor
     26.41     -25.00       1.33       0.00       0.00       1.38       0.61       ----

> <Gold.PLP.Fitness>
26.4061

> <Gold.PLP.PLP>
-25.0009

> <Gold.PLP.part.hbond>
-4.7845

> <Gold.PLP.part.metal>
0.0000

> <Gold.PLP.part.buried>
1.4848

> <Gold.PLP.part.nonpolar>
-23.6708

> <Gold.PLP.part.repulsive>
2.0578

> <Gold.PLP.ligand.clash>
1.3816

> <Gold.PLP.ligand.torsion>
0.6058

> <Gold.PLP.Chemscore.Hbond>
1.3328

> <Gold.PLP.Chemscore.CHOScore>
0.0000

> <Gold.PLP.Chemscore.Metal>
0.0000

> <Gold.Chemscore.Hbonds>
donor molecule, donor type, donor heavy atom, donor atom, acceptor molecule, acceptor atom, score
      L1  H    10    23       P1  9061  0.78
      P1  H  9502  9538       L1    17  0.32

> <Gold.PLP.Chemscore.Internal.Correction>
   9.000000E+99

#       Name:                CT1002167954
#       Creating user name   hitesit
#       Creation time:       Sun Apr 16 22:51:07 2023


#       File generated by GOLD software.
#

@<TRIPOS>MOLECULE
CT1002167954|ligand_prepared|mol2|1|dock3
    29    30     1
SMALL
NO_CHARGES


@<TRIPOS>ATOM
      1 C1         122.5605 245.0804 356.3509 C.3            1 RES1               0.0000
      2 C2         122.1727 246.4206 357.0084 C.ar           1 RES1               0.0000
      3 C3         124.0578 245.1595 356.0679 C.2            1 RES1               0.0000
      4 C4         122.1717 243.9901 357.3433 C.2            1 RES1               0.0000
      5 C5         121.8232 244.8006 355.0206 C.3            1 RES1               0.0000
      6 C6         123.1449 247.2394 357.5752 C.ar           1 RES1               0.0000
      7 C7         120.8497 246.8521 357.0534 C.ar           1 RES1               0.0000
      8 N8         124.8909 244.4319 356.8656 N.am           1 RES1               0.0000
      9 O9         124.5037 245.8801 355.1835 O.2            1 RES1               0.0000
     10 N10        123.1757 243.2470 357.9068 N.am           1 RES1               0.0000
     11 O11        121.0061 243.7789 357.6550 O.2            1 RES1               0.0000
     12 C12        122.3604 243.5963 354.2635 C.3            1 RES1               0.0000
     13 C13        122.8071 248.4471 358.1630 C.ar           1 RES1               0.0000
     14 C14        120.5141 248.0602 357.6419 C.ar           1 RES1               0.0000
     15 C15        124.5197 243.4389 357.7362 C.2            1 RES1               0.0000
     16 C16        121.4918 248.8586 358.1964 C.ar           1 RES1               0.0000
     17 O17        125.3631 242.7644 358.3201 O.2            1 RES1               0.0000
     18 H18        120.7595 244.6379 355.2339 H              1 RES1               0.0000
     19 H19        121.9048 245.6864 354.3786 H              1 RES1               0.0000
     20 H20        124.1850 246.9311 357.5605 H              1 RES1               0.0000
     21 H21        120.0637 246.2399 356.6244 H              1 RES1               0.0000
     22 H22        125.8816 244.6459 356.8098 H              1 RES1               0.0000
     23 H23        122.8952 242.4797 358.5091 H              1 RES1               0.0000
     24 H24        121.8083 243.4447 353.3383 H              1 RES1               0.0000
     25 H25        123.4100 243.7350 354.0129 H              1 RES1               0.0000
     26 H26        122.2715 242.6927 354.8631 H              1 RES1               0.0000
     27 H27        123.5802 249.0712 358.5992 H              1 RES1               0.0000
     28 H28        119.4775 248.3797 357.6665 H              1 RES1               0.0000
     29 H29        121.2275 249.8049 358.6566 H              1 RES1               0.0000
@<TRIPOS>BOND
    1    1    2 1     
    2    1    3 1     
    3    1    4 1     
    4    1    5 1     
    5    2    6 ar    
    6    2    7 ar    
    7    3    8 1     
    8    3    9 2     
    9    4   10 1     
   10    4   11 2     
   11    5   12 1     
   12    5   18 1     
   13    5   19 1     
   14    6   13 ar    
   15    6   20 1     
   16    7   14 ar    
   17    7   21 1     
   18    8   15 1     
   19    8   22 1     
   20   10   15 1     
   21   10   23 1     
   22   12   24 1     
   23   12   25 1     
   24   12   26 1     
   25   13   16 ar    
   26   13   27 1     
   27   14   16 ar    
   28   14   28 1     
   29   15   17 2     
   30   16   29 1     
@<TRIPOS>SUBSTRUCTURE
      1 RES1           1
@<TRIPOS>SET
DONOR_HYDROGENS      STATIC     ATOMS    <user>   **** ""
2 22 23
ATOM$RED        STATIC     ATOMS    COLORGROUP SYSTEM
2 22 23
@<TRIPOS>COMMENT
> <Gold.Version>
2022.3.0

> <Gold.Id.Protein>
unknown|4uch_clean|pdb

> <Gold.Protein.RotatedTorsions>
[ 12874 12851 12850 12848 ] final -141.58 input   59.98 | X-H torsion
[ 13435 13409 13408 13404 ] final -152.85 input   59.99 | X-H torsion
[ 5555 5539 5538 5535 ] final   54.46 input   60.02 | X-H torsion
[ 9091 9061 9060 9058 ] final -153.87 input   59.99 | X-H torsion
[ 8987 8971 8970 8967 ] final  -45.33 input   60.01 | X-H torsion
[ 8337 8307 8306 8304 ] final  -69.50 input   59.99 | X-H torsion
[ 13456 13411 13410 13408 ] final   14.22 input   60.01 | X-H torsion

> <Gold.Protein.ActiveResidues>
 TRP311  MET341  HIS342  TRP414  ALA417  ARG419  CYS420  VAL421  GLY422  ARG423 
 SER462  ALA463  SER482  GLN483  LEU484  ILE485  ARG486  TRP566  TYR567  LEU569 
 PRO570  ALA571  VAL572  SER573  ASN574  MET575  PHE589  SER590  GLY591  TRP592 
 TYR593  MET594  GLU597  ILE598  ARG601  ASP602  ARG608  TRP683  PHE696  HIS697 
 GLU710  TYR711  GLN712  ASP714  HEM750  H4B760 

> <Gold.Protein.RotatedAtoms>
  126.2901  248.9211  361.8503 H   0  0  0  0  0  0  0  0  0  0  0  0  # atno 5555 bound_to 5539
  124.0708  241.9452  360.5002 H   0  0  0  0  0  0  0  0  0  0  0  0  # atno 8337 bound_to 8307
  114.3501  245.5428  367.7361 H   0  0  0  0  0  0  0  0  0  0  0  0  # atno 8987 bound_to 8971
  122.4942  240.3943  360.6801 H   0  0  0  0  0  0  0  0  0  0  0  0  # atno 9091 bound_to 9061
  120.2090  254.4916  353.1807 H   0  0  0  0  0  0  0  0  0  0  0  0  # atno 12874 bound_to 12851
  124.9218  250.4428  345.6855 H   0  0  0  0  0  0  0  0  0  0  0  0  # atno 13435 bound_to 13409
  121.6894  252.9442  346.1655 H   0  0  0  0  0  0  0  0  0  0  0  0  # atno 13456 bound_to 13411
  118.8750  254.2896  354.0901 LP  0  0  0  0  0  0  0  0  0  0  0  0  # atno 13471 bound_to 12851
  120.2885  253.6112  354.5467 LP  0  0  0  0  0  0  0  0  0  0  0  0  # atno 13472 bound_to 12851
  123.7829  249.7226  344.7738 LP  0  0  0  0  0  0  0  0  0  0  0  0  # atno 13488 bound_to 13409
  123.9535  249.3143  346.3457 LP  0  0  0  0  0  0  0  0  0  0  0  0  # atno 13489 bound_to 13409
  127.7277  249.5389  362.2955 LP  0  0  0  0  0  0  0  0  0  0  0  0  # atno 13492 bound_to 5539
  127.2793  249.5556  360.7254 LP  0  0  0  0  0  0  0  0  0  0  0  0  # atno 13493 bound_to 5539
  121.7208  241.8257  360.6457 LP  0  0  0  0  0  0  0  0  0  0  0  0  # atno 13518 bound_to 9061
  122.3811  241.2183  359.2813 LP  0  0  0  0  0  0  0  0  0  0  0  0  # atno 13519 bound_to 9061
  115.3649  244.4044  368.3037 LP  0  0  0  0  0  0  0  0  0  0  0  0  # atno 13520 bound_to 8971
  114.2300  244.0121  367.1970 LP  0  0  0  0  0  0  0  0  0  0  0  0  # atno 13521 bound_to 8971
  125.5246  242.3112  361.1328 LP  0  0  0  0  0  0  0  0  0  0  0  0  # atno 13526 bound_to 8307
  124.1740  243.0153  361.7216 LP  0  0  0  0  0  0  0  0  0  0  0  0  # atno 13527 bound_to 8307

> <Gold.Score>
     Fitness  S(hb_ext) S(vdw_ext)  S(hb_int)    S(int)      intcor
     38.49       7.49      23.48       0.00      -1.29      -0.78

> <Gold.Goldscore.Fitness>
38.4894

> <Gold.Goldscore.Internal.Vdw>
-1.5611

> <Gold.Goldscore.Internal.Torsion>
-0.5035

> <Gold.Goldscore.External.Vdw>
23.4838

> <Gold.Goldscore.Internal.HBond>
0.0000

> <Gold.Goldscore.External.HBond>
7.4869

> <Gold.Goldscore.Internal.Correction>
-0.7769

> <Gold.Goldscore.Hbonds>
donor molecule, donor type, donor heavy atom, donor atom, acceptor molecule, acceptor atom, score
      P1  H  9502  9538       L1    17  0.99
      L1  H    10    23       P1  9061  0.76

> <Gold.Goldscore.Internal.Vdw.Weighted>
-1.5611

> <Gold.Goldscore.Internal.Torsion.Weighted>
-0.5035

> <Gold.Goldscore.External.Vdw.Weighted>
32.2902

> <Gold.Goldscore.Internal.HBond.Weighted>
0.0000

> <Gold.Goldscore.External.HBond.Weighted>
7.4869

> <Gold.Goldscore.Internal.Correction.Weighted>
-0.7769

> <Gold.Rescore>
     Score     S(PLP)   S(hbond)     S(cho)   S(metal)  DE(clash)   DE(tors)     intcor
     24.79     -23.19       1.32       0.00       0.00       2.06       0.15       ----

> <Gold.PLP.Fitness>
24.7902

> <Gold.PLP.PLP>
-23.1927

> <Gold.PLP.part.hbond>
-4.8490

> <Gold.PLP.part.metal>
0.0000

> <Gold.PLP.part.buried>
3.9377

> <Gold.PLP.part.nonpolar>
-24.4681

> <Gold.PLP.part.repulsive>
1.9426

> <Gold.PLP.ligand.clash>
2.0605

> <Gold.PLP.ligand.torsion>
0.1545

> <Gold.PLP.Chemscore.Hbond>
1.3224

> <Gold.PLP.Chemscore.CHOScore>
0.0000

> <Gold.PLP.Chemscore.Metal>
0.0000

> <Gold.Chemscore.Hbonds>
donor molecule, donor type, donor heavy atom, donor atom, acceptor molecule, acceptor atom, score
      L1  H    10    23       P1  9061  0.21
      P1  H  9502  9538       L1    17  0.99

> <Gold.PLP.Chemscore.Internal.Correction>
   9.000000E+99

#       Name:                CT1002167954
#       Creating user name   hitesit
#       Creation time:       Sun Apr 16 22:51:06 2023


#       File generated by GOLD software.
#

@<TRIPOS>MOLECULE
CT1002167954|ligand_prepared|mol2|1|dock1
    29    30     1
SMALL
NO_CHARGES


@<TRIPOS>ATOM
      1 C1         120.8217 247.6369 357.7031 C.3            1 RES1               0.0000
      2 C2         119.4186 247.0990 358.0507 C.ar           1 RES1               0.0000
      3 C3         120.6037 248.9291 356.9215 C.2            1 RES1               0.0000
      4 C4         121.5465 247.8276 359.0309 C.2            1 RES1               0.0000
      5 C5         121.6627 246.6731 356.8339 C.3            1 RES1               0.0000
      6 C6         118.3224 247.9552 358.0949 C.ar           1 RES1               0.0000
      7 C7         119.2047 245.7511 358.3263 C.ar           1 RES1               0.0000
      8 N8         120.8625 250.1056 357.5609 N.am           1 RES1               0.0000
      9 O9         120.1734 248.9174 355.7748 O.2            1 RES1               0.0000
     10 N10        121.8733 249.1043 359.4063 N.am           1 RES1               0.0000
     11 O11        121.8226 246.8854 359.7632 O.2            1 RES1               0.0000
     12 C12        122.9867 247.2611 356.3721 C.3            1 RES1               0.0000
     13 C13        117.0577 247.4807 358.4007 C.ar           1 RES1               0.0000
     14 C14        117.9391 245.2787 358.6321 C.ar           1 RES1               0.0000
     15 C15        121.5369 250.2546 358.7461 C.2            1 RES1               0.0000
     16 C16        116.8651 246.1422 358.6691 C.ar           1 RES1               0.0000
     17 O17        121.8195 251.3697 359.1749 O.2            1 RES1               0.0000
     18 H18        121.8631 245.7615 357.4104 H              1 RES1               0.0000
     19 H19        121.0755 246.3896 355.9518 H              1 RES1               0.0000
     20 H20        118.4551 249.0121 357.8890 H              1 RES1               0.0000
     21 H21        120.0352 245.0536 358.3041 H              1 RES1               0.0000
     22 H22        120.5232 250.9529 357.1168 H              1 RES1               0.0000
     23 H23        122.4180 249.2067 360.2568 H              1 RES1               0.0000
     24 H24        123.5368 246.5441 355.7663 H              1 RES1               0.0000
     25 H25        122.8240 248.1555 355.7743 H              1 RES1               0.0000
     26 H26        123.6070 247.5312 357.2242 H              1 RES1               0.0000
     27 H27        116.2159 248.1647 358.4298 H              1 RES1               0.0000
     28 H28        117.7923 244.2246 358.8433 H              1 RES1               0.0000
     29 H29        115.8741 245.7707 358.9082 H              1 RES1               0.0000
@<TRIPOS>BOND
    1    1    2 1     
    2    1    3 1     
    3    1    4 1     
    4    1    5 1     
    5    2    6 ar    
    6    2    7 ar    
    7    3    8 1     
    8    3    9 2     
    9    4   10 1     
   10    4   11 2     
   11    5   12 1     
   12    5   18 1     
   13    5   19 1     
   14    6   13 ar    
   15    6   20 1     
   16    7   14 ar    
   17    7   21 1     
   18    8   15 1     
   19    8   22 1     
   20   10   15 1     
   21   10   23 1     
   22   12   24 1     
   23   12   25 1     
   24   12   26 1     
   25   13   16 ar    
   26   13   27 1     
   27   14   16 ar    
   28   14   28 1     
   29   15   17 2     
   30   16   29 1     
@<TRIPOS>SUBSTRUCTURE
      1 RES1           1
@<TRIPOS>SET
DONOR_HYDROGENS      STATIC     ATOMS    <user>   **** ""
2 22 23
ATOM$RED        STATIC     ATOMS    COLORGROUP SYSTEM
2 22 23
@<TRIPOS>COMMENT
> <Gold.Version>
2022.3.0

> <Gold.Id.Protein>
unknown|4uch_clean|pdb

> <Gold.Protein.RotatedTorsions>
[ 12874 12851 12850 12848 ] final -151.92 input   59.98 | X-H torsion
[ 13435 13409 13408 13404 ] final  143.07 input   59.99 | X-H torsion
[ 5555 5539 5538 5535 ] final   95.29 input   60.02 | X-H torsion
[ 9091 9061 9060 9058 ] final -173.26 input   59.99 | X-H torsion
[ 8987 8971 8970 8967 ] final -134.94 input   60.01 | X-H torsion
[ 8337 8307 8306 8304 ] final  132.44 input   59.99 | X-H torsion
[ 13456 13411 13410 13408 ] final  128.86 input   60.01 | X-H torsion

> <Gold.Protein.ActiveResidues>
 TRP311  MET341  HIS342  TRP414  ALA417  ARG419  CYS420  VAL421  GLY422  ARG423 
 SER462  ALA463  SER482  GLN483  LEU484  ILE485  ARG486  TRP566  TYR567  LEU569 
 PRO570  ALA571  VAL572  SER573  ASN574  MET575  PHE589  SER590  GLY591  TRP592 
 TYR593  MET594  GLU597  ILE598  ARG601  ASP602  ARG608  TRP683  PHE696  HIS697 
 GLU710  TYR711  GLN712  ASP714  HEM750  H4B760 

> <Gold.Protein.RotatedAtoms>
  126.3183  249.0290  361.2072 H   0  0  0  0  0  0  0  0  0  0  0  0  # atno 5555 bound_to 5539
  125.3577  242.7127  361.5646 H   0  0  0  0  0  0  0  0  0  0  0  0  # atno 8337 bound_to 8307
  115.2971  244.8864  368.3789 H   0  0  0  0  0  0  0  0  0  0  0  0  # atno 8987 bound_to 8971
  122.3518  240.5524  360.9128 H   0  0  0  0  0  0  0  0  0  0  0  0  # atno 9091 bound_to 9061
  120.0568  254.5556  353.1460 H   0  0  0  0  0  0  0  0  0  0  0  0  # atno 12874 bound_to 12851
  124.4387  250.3080  344.8284 H   0  0  0  0  0  0  0  0  0  0  0  0  # atno 13435 bound_to 13409
  122.0071  253.7532  344.8499 H   0  0  0  0  0  0  0  0  0  0  0  0  # atno 13456 bound_to 13411
  118.8978  254.1958  354.2299 LP  0  0  0  0  0  0  0  0  0  0  0  0  # atno 13471 bound_to 12851
  120.4188  253.6406  354.4418 LP  0  0  0  0  0  0  0  0  0  0  0  0  # atno 13472 bound_to 12851
  123.5234  249.1943  345.5827 LP  0  0  0  0  0  0  0  0  0  0  0  0  # atno 13488 bound_to 13409
  124.6996  249.9784  346.4001 LP  0  0  0  0  0  0  0  0  0  0  0  0  # atno 13489 bound_to 13409
  127.1989  249.2483  362.5574 LP  0  0  0  0  0  0  0  0  0  0  0  0  # atno 13492 bound_to 5539
  127.7796  249.7375  361.1117 LP  0  0  0  0  0  0  0  0  0  0  0  0  # atno 13493 bound_to 5539
  121.7255  241.9458  360.3519 LP  0  0  0  0  0  0  0  0  0  0  0  0  # atno 13518 bound_to 9061
  122.5199  240.9391  359.3409 LP  0  0  0  0  0  0  0  0  0  0  0  0  # atno 13519 bound_to 9061
  114.5846  243.7663  367.4377 LP  0  0  0  0  0  0  0  0  0  0  0  0  # atno 13520 bound_to 8971
  114.0565  245.3114  367.4154 LP  0  0  0  0  0  0  0  0  0  0  0  0  # atno 13521 bound_to 8971
  123.7434  242.7585  361.3655 LP  0  0  0  0  0  0  0  0  0  0  0  0  # atno 13526 bound_to 8307
  124.6590  241.7949  360.4169 LP  0  0  0  0  0  0  0  0  0  0  0  0  # atno 13527 bound_to 8307

> <Gold.Score>
     Fitness  S(hb_ext) S(vdw_ext)  S(hb_int)    S(int)      intcor
     36.15       5.48      23.14       0.00      -1.14      -0.78

> <Gold.Goldscore.Fitness>
36.1463

> <Gold.Goldscore.Internal.Vdw>
-1.4941

> <Gold.Goldscore.Internal.Torsion>
-0.4259

> <Gold.Goldscore.External.Vdw>
23.1353

> <Gold.Goldscore.Internal.HBond>
0.0000

> <Gold.Goldscore.External.HBond>
5.4783

> <Gold.Goldscore.Internal.Correction>
-0.7769

> <Gold.Goldscore.Hbonds>
donor molecule, donor type, donor heavy atom, donor atom, acceptor molecule, acceptor atom, score
      L1  H     8    22       P1 13268  0.90
      L1  H    10    23       P1  5537  0.05

> <Gold.Goldscore.Internal.Vdw.Weighted>
-1.4941

> <Gold.Goldscore.Internal.Torsion.Weighted>
-0.4259

> <Gold.Goldscore.External.Vdw.Weighted>
31.8111

> <Gold.Goldscore.Internal.HBond.Weighted>
0.0000

> <Gold.Goldscore.External.HBond.Weighted>
5.4783

> <Gold.Goldscore.Internal.Correction.Weighted>
-0.7769

> <Gold.Rescore>
     Score     S(PLP)   S(hbond)     S(cho)   S(metal)  DE(clash)   DE(tors)     intcor
     18.82     -18.43       0.84       0.00       0.00       0.00       1.07       ----

> <Gold.PLP.Fitness>
18.8237

> <Gold.PLP.PLP>
-18.4293

> <Gold.PLP.part.hbond>
-1.8743

> <Gold.PLP.part.metal>
0.0000

> <Gold.PLP.part.buried>
13.2356

> <Gold.PLP.part.nonpolar>
-37.4458

> <Gold.PLP.part.repulsive>
6.5016

> <Gold.PLP.ligand.clash>
0.0000

> <Gold.PLP.ligand.torsion>
1.0703

> <Gold.PLP.Chemscore.Hbond>
0.8450

> <Gold.PLP.Chemscore.CHOScore>
0.0000

> <Gold.PLP.Chemscore.Metal>
0.0000

> <Gold.Chemscore.Hbonds>
donor molecule, donor type, donor heavy atom, donor atom, acceptor molecule, acceptor atom, score
      L1  H     8    22       P1 13268  1.00

> <Gold.PLP.Chemscore.Internal.Correction>
   9.000000E+99

#       Name:                CT1002167954
#       Creating user name   hitesit
#       Creation time:       Sun Apr 16 22:51:13 2023


#       File generated by GOLD software.
#

@<TRIPOS>MOLECULE
CT1002167954|ligand_prepared|mol2|1|dock9
    29    30     1
SMALL
NO_CHARGES


@<TRIPOS>ATOM
      1 C1         120.2755 246.0264 358.5223 C.3            1 RES1               0.0000
      2 C2         118.8408 246.2828 359.0270 C.ar           1 RES1               0.0000
      3 C3         120.2332 246.1959 357.0064 C.2            1 RES1               0.0000
      4 C4         121.1661 247.0369 359.2367 C.2            1 RES1               0.0000
      5 C5         120.8070 244.6101 358.8434 C.3            1 RES1               0.0000
      6 C6         117.9368 247.0063 358.2549 C.ar           1 RES1               0.0000
      7 C7         118.4067 245.8009 360.2590 C.ar           1 RES1               0.0000
      8 N8         120.7895 247.3249 356.4812 N.am           1 RES1               0.0000
      9 O9         119.6849 245.3707 356.2862 O.2            1 RES1               0.0000
     10 N10        121.7793 248.0005 358.4796 N.am           1 RES1               0.0000
     11 O11        121.3290 247.0176 360.4505 O.2            1 RES1               0.0000
     12 C12        121.9961 244.1938 357.9921 C.3            1 RES1               0.0000
     13 C13        116.6447 247.2372 358.6971 C.ar           1 RES1               0.0000
     14 C14        117.1142 246.0331 360.6994 C.ar           1 RES1               0.0000
     15 C15        121.6070 248.2090 357.1383 C.2            1 RES1               0.0000
     16 C16        116.2324 246.7504 359.9193 C.ar           1 RES1               0.0000
     17 O17        122.1509 249.1310 356.5374 O.2            1 RES1               0.0000
     18 H18        121.0994 244.5739 359.9001 H              1 RES1               0.0000
     19 H19        119.9959 243.8865 358.6950 H              1 RES1               0.0000
     20 H20        118.2440 247.3994 357.2915 H              1 RES1               0.0000
     21 H21        119.0836 245.2349 360.8900 H              1 RES1               0.0000
     22 H22        120.5781 247.5308 355.5100 H              1 RES1               0.0000
     23 H23        122.4241 248.6196 358.9604 H              1 RES1               0.0000
     24 H24        122.3293 243.1928 358.2579 H              1 RES1               0.0000
     25 H25        121.7336 244.1942 356.9362 H              1 RES1               0.0000
     26 H26        122.8304 244.8776 358.1342 H              1 RES1               0.0000
     27 H27        115.9550 247.8035 358.0800 H              1 RES1               0.0000
     28 H28        116.7942 245.6486 361.6623 H              1 RES1               0.0000
     29 H29        115.2201 246.9310 360.2653 H              1 RES1               0.0000
@<TRIPOS>BOND
    1    1    2 1     
    2    1    3 1     
    3    1    4 1     
    4    1    5 1     
    5    2    6 ar    
    6    2    7 ar    
    7    3    8 1     
    8    3    9 2     
    9    4   10 1     
   10    4   11 2     
   11    5   12 1     
   12    5   18 1     
   13    5   19 1     
   14    6   13 ar    
   15    6   20 1     
   16    7   14 ar    
   17    7   21 1     
   18    8   15 1     
   19    8   22 1     
   20   10   15 1     
   21   10   23 1     
   22   12   24 1     
   23   12   25 1     
   24   12   26 1     
   25   13   16 ar    
   26   13   27 1     
   27   14   16 ar    
   28   14   28 1     
   29   15   17 2     
   30   16   29 1     
@<TRIPOS>SUBSTRUCTURE
      1 RES1           1
@<TRIPOS>SET
DONOR_HYDROGENS      STATIC     ATOMS    <user>   **** ""
2 22 23
ATOM$RED        STATIC     ATOMS    COLORGROUP SYSTEM
2 22 23
@<TRIPOS>COMMENT
> <Gold.Version>
2022.3.0

> <Gold.Id.Protein>
unknown|4uch_clean|pdb

> <Gold.Protein.RotatedTorsions>
[ 12874 12851 12850 12848 ] final  138.44 input   59.98 | X-H torsion
[ 13435 13409 13408 13404 ] final  143.90 input   59.99 | X-H torsion
[ 5555 5539 5538 5535 ] final  -19.54 input   60.02 | X-H torsion
[ 9091 9061 9060 9058 ] final   68.12 input   59.99 | X-H torsion
[ 8987 8971 8970 8967 ] final    4.43 input   60.01 | X-H torsion
[ 8337 8307 8306 8304 ] final   33.46 input   59.99 | X-H torsion
[ 13456 13411 13410 13408 ] final  -38.01 input   60.01 | X-H torsion

> <Gold.Protein.ActiveResidues>
 TRP311  MET341  HIS342  TRP414  ALA417  ARG419  CYS420  VAL421  GLY422  ARG423 
 SER462  ALA463  SER482  GLN483  LEU484  ILE485  ARG486  TRP566  TYR567  LEU569 
 PRO570  ALA571  VAL572  SER573  ASN574  MET575  PHE589  SER590  GLY591  TRP592 
 TYR593  MET594  GLU597  ILE598  ARG601  ASP602  ARG608  TRP683  PHE696  HIS697 
 GLU710  TYR711  GLN712  ASP714  HEM750  H4B760 

> <Gold.Protein.RotatedAtoms>
  127.1210  249.2145  362.5515 H   0  0  0  0  0  0  0  0  0  0  0  0  # atno 5555 bound_to 5539
  123.9500  242.9217  361.5852 H   0  0  0  0  0  0  0  0  0  0  0  0  # atno 8337 bound_to 8307
  113.9592  245.0571  367.2548 H   0  0  0  0  0  0  0  0  0  0  0  0  # atno 8987 bound_to 8971
  121.7245  241.9336  360.3722 H   0  0  0  0  0  0  0  0  0  0  0  0  # atno 9091 bound_to 9061
  119.0669  254.5787  353.5488 H   0  0  0  0  0  0  0  0  0  0  0  0  # atno 12874 bound_to 12851
  124.4484  250.3145  344.8353 H   0  0  0  0  0  0  0  0  0  0  0  0  # atno 13435 bound_to 13409
  121.0948  252.4716  345.8444 H   0  0  0  0  0  0  0  0  0  0  0  0  # atno 13456 bound_to 13411
  119.6758  253.6579  354.7441 LP  0  0  0  0  0  0  0  0  0  0  0  0  # atno 13471 bound_to 12851
  120.6377  254.1554  353.5219 LP  0  0  0  0  0  0  0  0  0  0  0  0  # atno 13472 bound_to 12851
  123.5214  249.1971  345.5695 LP  0  0  0  0  0  0  0  0  0  0  0  0  # atno 13488 bound_to 13409
  124.6919  249.9691  346.4064 LP  0  0  0  0  0  0  0  0  0  0  0  0  # atno 13489 bound_to 13409
  127.8229  249.7475  361.1841 LP  0  0  0  0  0  0  0  0  0  0  0  0  # atno 13492 bound_to 5539
  126.3467  249.0514  361.1301 LP  0  0  0  0  0  0  0  0  0  0  0  0  # atno 13493 bound_to 5539
  122.5110  240.9586  359.3333 LP  0  0  0  0  0  0  0  0  0  0  0  0  # atno 13518 bound_to 9061
  122.3659  240.5356  360.9039 LP  0  0  0  0  0  0  0  0  0  0  0  0  # atno 13519 bound_to 9061
  115.1624  245.1703  368.3445 LP  0  0  0  0  0  0  0  0  0  0  0  0  # atno 13520 bound_to 8971
  114.8264  243.7355  367.6409 LP  0  0  0  0  0  0  0  0  0  0  0  0  # atno 13521 bound_to 8971
  124.3187  241.8455  360.4219 LP  0  0  0  0  0  0  0  0  0  0  0  0  # atno 13526 bound_to 8307
  125.5016  242.4975  361.3397 LP  0  0  0  0  0  0  0  0  0  0  0  0  # atno 13527 bound_to 8307

> <Gold.Score>
     Fitness  S(hb_ext) S(vdw_ext)  S(hb_int)    S(int)      intcor
     35.11       3.69      24.20       0.00      -1.85      -0.76

> <Gold.Goldscore.Fitness>
35.1081

> <Gold.Goldscore.Internal.Vdw>
-1.7157

> <Gold.Goldscore.Internal.Torsion>
-0.8904

> <Gold.Goldscore.External.Vdw>
24.1952

> <Gold.Goldscore.Internal.HBond>
0.0000

> <Gold.Goldscore.External.HBond>
3.6900

> <Gold.Goldscore.Internal.Correction>
-0.7558

> <Gold.Goldscore.Hbonds>
donor molecule, donor type, donor heavy atom, donor atom, acceptor molecule, acceptor atom, score
      L1  H     8    22       P1 13273  0.61

> <Gold.Goldscore.Internal.Vdw.Weighted>
-1.7157

> <Gold.Goldscore.Internal.Torsion.Weighted>
-0.8904

> <Gold.Goldscore.External.Vdw.Weighted>
33.2684

> <Gold.Goldscore.Internal.HBond.Weighted>
0.0000

> <Gold.Goldscore.External.HBond.Weighted>
3.6900

> <Gold.Goldscore.Internal.Correction.Weighted>
-0.7558

> <Gold.Rescore>
     Score     S(PLP)   S(hbond)     S(cho)   S(metal)  DE(clash)   DE(tors)     intcor
     27.52     -26.94       1.00       0.00       0.00       0.01       1.20       ----

> <Gold.PLP.Fitness>
27.5213

> <Gold.PLP.PLP>
-26.9403

> <Gold.PLP.part.hbond>
-1.0000

> <Gold.PLP.part.metal>
0.0000

> <Gold.PLP.part.buried>
10.2931

> <Gold.PLP.part.nonpolar>
-44.8345

> <Gold.PLP.part.repulsive>
7.7487

> <Gold.PLP.ligand.clash>
0.0121

> <Gold.PLP.ligand.torsion>
1.2035

> <Gold.PLP.Chemscore.Hbond>
1.0000

> <Gold.PLP.Chemscore.CHOScore>
0.0000

> <Gold.PLP.Chemscore.Metal>
0.0000

> <Gold.Chemscore.Hbonds>
donor molecule, donor type, donor heavy atom, donor atom, acceptor molecule, acceptor atom, score
      L1  H     8    22       P1 13273  0.55

> <Gold.PLP.Chemscore.Internal.Correction>
   9.000000E+99

#       Name:                CT1002167954
#       Creating user name   hitesit
#       Creation time:       Sun Apr 16 22:51:12 2023


#       File generated by GOLD software.
#

@<TRIPOS>MOLECULE
CT1002167954|ligand_prepared|mol2|1|dock8
    29    30     1
SMALL
NO_CHARGES


@<TRIPOS>ATOM
      1 C1         122.8631 248.4475 357.4463 C.3            1 RES1               0.0000
      2 C2         121.9987 247.2056 357.7453 C.ar           1 RES1               0.0000
      3 C3         121.9548 249.4377 356.7233 C.2            1 RES1               0.0000
      4 C4         123.3771 248.9438 358.7932 C.2            1 RES1               0.0000
      5 C5         124.0863 248.1554 356.5464 C.3            1 RES1               0.0000
      6 C6         121.4477 247.0132 359.0087 C.ar           1 RES1               0.0000
      7 C7         121.7418 246.2468 356.7690 C.ar           1 RES1               0.0000
      8 N8         121.5256 250.5276 357.4217 N.am           1 RES1               0.0000
      9 O9         121.5887 249.2447 355.5705 O.2            1 RES1               0.0000
     10 N10        122.9454 250.1674 359.2339 N.am           1 RES1               0.0000
     11 O11        124.1389 248.2790 359.4846 O.2            1 RES1               0.0000
     12 C12        125.0926 249.2940 356.4911 C.3            1 RES1               0.0000
     13 C13        120.6657 245.9040 359.2853 C.ar           1 RES1               0.0000
     14 C14        120.9597 245.1381 357.0478 C.ar           1 RES1               0.0000
     15 C15        122.0190 250.9682 358.6234 C.2            1 RES1               0.0000
     16 C16        120.4208 244.9661 358.3051 C.ar           1 RES1               0.0000
     17 O17        121.6409 252.0305 359.1090 O.2            1 RES1               0.0000
     18 H18        124.5913 247.2554 356.9182 H              1 RES1               0.0000
     19 H19        123.7340 247.9460 355.5288 H              1 RES1               0.0000
     20 H20        121.6315 247.7394 359.7934 H              1 RES1               0.0000
     21 H21        122.1562 246.3609 355.7731 H              1 RES1               0.0000
     22 H22        120.7675 251.0646 357.0127 H              1 RES1               0.0000
     23 H23        123.3526 250.5135 360.0969 H              1 RES1               0.0000
     24 H24        125.9306 249.0372 355.8464 H              1 RES1               0.0000
     25 H25        124.6305 250.1988 356.1019 H              1 RES1               0.0000
     26 H26        125.4828 249.5123 357.4831 H              1 RES1               0.0000
     27 H27        120.2450 245.7725 360.2767 H              1 RES1               0.0000
     28 H28        120.7700 244.4021 356.2734 H              1 RES1               0.0000
     29 H29        119.8078 244.0974 358.5219 H              1 RES1               0.0000
@<TRIPOS>BOND
    1    1    2 1     
    2    1    3 1     
    3    1    4 1     
    4    1    5 1     
    5    2    6 ar    
    6    2    7 ar    
    7    3    8 1     
    8    3    9 2     
    9    4   10 1     
   10    4   11 2     
   11    5   12 1     
   12    5   18 1     
   13    5   19 1     
   14    6   13 ar    
   15    6   20 1     
   16    7   14 ar    
   17    7   21 1     
   18    8   15 1     
   19    8   22 1     
   20   10   15 1     
   21   10   23 1     
   22   12   24 1     
   23   12   25 1     
   24   12   26 1     
   25   13   16 ar    
   26   13   27 1     
   27   14   16 ar    
   28   14   28 1     
   29   15   17 2     
   30   16   29 1     
@<TRIPOS>SUBSTRUCTURE
      1 RES1           1
@<TRIPOS>SET
DONOR_HYDROGENS      STATIC     ATOMS    <user>   **** ""
2 22 23
ATOM$RED        STATIC     ATOMS    COLORGROUP SYSTEM
2 22 23
@<TRIPOS>COMMENT
> <Gold.Version>
2022.3.0

> <Gold.Id.Protein>
unknown|4uch_clean|pdb

> <Gold.Protein.RotatedTorsions>
[ 12874 12851 12850 12848 ] final   -2.96 input   59.98 | X-H torsion
[ 13435 13409 13408 13404 ] final  -56.94 input   59.99 | X-H torsion
[ 5555 5539 5538 5535 ] final   97.31 input   60.02 | X-H torsion
[ 9091 9061 9060 9058 ] final   78.51 input   59.99 | X-H torsion
[ 8987 8971 8970 8967 ] final  -43.37 input   60.01 | X-H torsion
[ 8337 8307 8306 8304 ] final  158.19 input   59.99 | X-H torsion
[ 13456 13411 13410 13408 ] final  -47.37 input   60.01 | X-H torsion

> <Gold.Protein.ActiveResidues>
 TRP311  MET341  HIS342  TRP414  ALA417  ARG419  CYS420  VAL421  GLY422  ARG423 
 SER462  ALA463  SER482  GLN483  LEU484  ILE485  ARG486  TRP566  TYR567  LEU569 
 PRO570  ALA571  VAL572  SER573  ASN574  MET575  PHE589  SER590  GLY591  TRP592 
 TYR593  MET594  GLU597  ILE598  ARG601  ASP602  ARG608  TRP683  PHE696  HIS697 
 GLU710  TYR711  GLN712  ASP714  HEM750  H4B760 

> <Gold.Protein.RotatedAtoms>
  126.3306  249.0391  361.1782 H   0  0  0  0  0  0  0  0  0  0  0  0  # atno 5555 bound_to 5539
  125.5093  242.4439  361.2840 H   0  0  0  0  0  0  0  0  0  0  0  0  # atno 8337 bound_to 8307
  114.3281  245.5346  367.7144 H   0  0  0  0  0  0  0  0  0  0  0  0  # atno 8987 bound_to 8971
  121.7172  241.8770  360.5317 H   0  0  0  0  0  0  0  0  0  0  0  0  # atno 9091 bound_to 9061
  120.0152  253.6074  354.6799 H   0  0  0  0  0  0  0  0  0  0  0  0  # atno 12874 bound_to 12851
  124.2448  249.5335  346.4899 H   0  0  0  0  0  0  0  0  0  0  0  0  # atno 13435 bound_to 13409
  121.0095  252.4316  345.7240 H   0  0  0  0  0  0  0  0  0  0  0  0  # atno 13456 bound_to 13411
  120.4498  254.3478  353.2978 LP  0  0  0  0  0  0  0  0  0  0  0  0  # atno 13471 bound_to 12851
  118.9087  254.4436  353.8291 LP  0  0  0  0  0  0  0  0  0  0  0  0  # atno 13472 bound_to 12851
  124.8271  250.4877  345.3077 LP  0  0  0  0  0  0  0  0  0  0  0  0  # atno 13488 bound_to 13409
  123.5912  249.4652  345.0016 LP  0  0  0  0  0  0  0  0  0  0  0  0  # atno 13489 bound_to 13409
  127.1690  249.2338  362.5587 LP  0  0  0  0  0  0  0  0  0  0  0  0  # atno 13492 bound_to 5539
  127.7972  249.7418  361.1396 LP  0  0  0  0  0  0  0  0  0  0  0  0  # atno 13493 bound_to 5539
  122.4390  241.1078  359.2924 LP  0  0  0  0  0  0  0  0  0  0  0  0  # atno 13518 bound_to 9061
  122.4452  240.4434  360.7841 LP  0  0  0  0  0  0  0  0  0  0  0  0  # atno 13519 bound_to 9061
  115.3668  244.4348  368.3140 LP  0  0  0  0  0  0  0  0  0  0  0  0  # atno 13520 bound_to 8971
  114.2503  243.9900  367.2085 LP  0  0  0  0  0  0  0  0  0  0  0  0  # atno 13521 bound_to 8971
  124.0041  242.9564  361.6290 LP  0  0  0  0  0  0  0  0  0  0  0  0  # atno 13526 bound_to 8307
  124.2457  241.8678  360.4360 LP  0  0  0  0  0  0  0  0  0  0  0  0  # atno 13527 bound_to 8307

> <Gold.Score>
     Fitness  S(hb_ext) S(vdw_ext)  S(hb_int)    S(int)      intcor
     31.76       5.11      20.22       0.00      -1.16      -0.76

> <Gold.Goldscore.Fitness>
31.7630

> <Gold.Goldscore.Internal.Vdw>
-1.3140

> <Gold.Goldscore.Internal.Torsion>
-0.5986

> <Gold.Goldscore.External.Vdw>
20.2218

> <Gold.Goldscore.Internal.HBond>
0.0000

> <Gold.Goldscore.External.HBond>
5.1147

> <Gold.Goldscore.Internal.Correction>
-0.7558

> <Gold.Goldscore.Hbonds>
donor molecule, donor type, donor heavy atom, donor atom, acceptor molecule, acceptor atom, score
      P1  H  5563  5589       L1    11  0.18
      P1  H  5539  5555       L1    11  0.15
      L1  H     8    22       P1 13268  0.73
      L1  H    10    23       P1  5537  0.03

> <Gold.Goldscore.Internal.Vdw.Weighted>
-1.3140

> <Gold.Goldscore.Internal.Torsion.Weighted>
-0.5986

> <Gold.Goldscore.External.Vdw.Weighted>
27.8050

> <Gold.Goldscore.Internal.HBond.Weighted>
0.0000

> <Gold.Goldscore.External.HBond.Weighted>
5.1147

> <Gold.Goldscore.Internal.Correction.Weighted>
-0.7558

> <Gold.Rescore>
     Score     S(PLP)   S(hbond)     S(cho)   S(metal)  DE(clash)   DE(tors)     intcor
     23.81     -19.53       1.99       0.00       0.00       0.00       0.85       ----

> <Gold.PLP.Fitness>
23.8129

> <Gold.PLP.PLP>
-19.5286

> <Gold.PLP.part.hbond>
-2.0000

> <Gold.PLP.part.metal>
0.0000

> <Gold.PLP.part.buried>
-5.1154

> <Gold.PLP.part.nonpolar>
-15.4405

> <Gold.PLP.part.repulsive>
2.3476

> <Gold.PLP.ligand.clash>
0.0000

> <Gold.PLP.ligand.torsion>
0.8458

> <Gold.PLP.Chemscore.Hbond>
1.9920

> <Gold.PLP.Chemscore.CHOScore>
0.0000

> <Gold.PLP.Chemscore.Metal>
0.0000

> <Gold.Chemscore.Hbonds>
donor molecule, donor type, donor heavy atom, donor atom, acceptor molecule, acceptor atom, score
      L1  H     8    22       P1 13268  1.00
      P1  H  5563  5589       L1    11  0.73

> <Gold.PLP.Chemscore.Internal.Correction>
   9.000000E+99

#       Name:                CT1002167954
#       Creating user name   hitesit
#       Creation time:       Sun Apr 16 22:51:09 2023


#       File generated by GOLD software.
#

@<TRIPOS>MOLECULE
CT1002167954|ligand_prepared|mol2|1|dock5
    29    30     1
SMALL
NO_CHARGES


@<TRIPOS>ATOM
      1 C1         123.8973 249.1858 357.7794 C.3            1 RES1               0.0000
      2 C2         123.4146 247.7427 357.5277 C.ar           1 RES1               0.0000
      3 C3         122.9324 250.0976 357.0271 C.2            1 RES1               0.0000
      4 C4         123.8871 249.3814 359.2914 C.2            1 RES1               0.0000
      5 C5         125.3315 249.4624 357.2715 C.3            1 RES1               0.0000
      6 C6         122.1083 247.3696 357.8297 C.ar           1 RES1               0.0000
      7 C7         124.2617 246.7759 356.9926 C.ar           1 RES1               0.0000
      8 N8         122.0299 250.8072 357.7632 N.am           1 RES1               0.0000
      9 O9         122.9372 250.1629 355.8040 O.2            1 RES1               0.0000
     10 N10        123.0039 250.2886 359.8156 N.am           1 RES1               0.0000
     11 O11        124.6243 248.7460 360.0352 O.2            1 RES1               0.0000
     12 C12        125.7882 250.8983 357.4763 C.3            1 RES1               0.0000
     13 C13        121.6640 246.0776 357.6021 C.ar           1 RES1               0.0000
     14 C14        123.8154 245.4844 356.7660 C.ar           1 RES1               0.0000
     15 C15        122.0536 250.9880 359.1228 C.2            1 RES1               0.0000
     16 C16        122.5170 245.1344 357.0698 C.ar           1 RES1               0.0000
     17 O17        121.2586 251.7452 359.6722 O.2            1 RES1               0.0000
     18 H18        126.0263 248.7931 357.7937 H              1 RES1               0.0000
     19 H19        125.3789 249.2261 356.2013 H              1 RES1               0.0000
     20 H20        121.4234 248.0976 358.2515 H              1 RES1               0.0000
     21 H21        125.2876 247.0284 356.7469 H              1 RES1               0.0000
     22 H22        121.2669 251.2438 357.2558 H              1 RES1               0.0000
     23 H23        123.0602 250.4584 360.8147 H              1 RES1               0.0000
     24 H24        126.8004 251.0381 357.1028 H              1 RES1               0.0000
     25 H25        125.1340 251.5899 356.9495 H              1 RES1               0.0000
     26 H26        125.7775 251.1595 358.5325 H              1 RES1               0.0000
     27 H27        120.6416 245.8069 357.8442 H              1 RES1               0.0000
     28 H28        124.4904 244.7451 356.3475 H              1 RES1               0.0000
     29 H29        122.1686 244.1225 356.8913 H              1 RES1               0.0000
@<TRIPOS>BOND
    1    1    2 1     
    2    1    3 1     
    3    1    4 1     
    4    1    5 1     
    5    2    6 ar    
    6    2    7 ar    
    7    3    8 1     
    8    3    9 2     
    9    4   10 1     
   10    4   11 2     
   11    5   12 1     
   12    5   18 1     
   13    5   19 1     
   14    6   13 ar    
   15    6   20 1     
   16    7   14 ar    
   17    7   21 1     
   18    8   15 1     
   19    8   22 1     
   20   10   15 1     
   21   10   23 1     
   22   12   24 1     
   23   12   25 1     
   24   12   26 1     
   25   13   16 ar    
   26   13   27 1     
   27   14   16 ar    
   28   14   28 1     
   29   15   17 2     
   30   16   29 1     
@<TRIPOS>SUBSTRUCTURE
      1 RES1           1
@<TRIPOS>SET
DONOR_HYDROGENS      STATIC     ATOMS    <user>   **** ""
2 22 23
ATOM$RED        STATIC     ATOMS    COLORGROUP SYSTEM
2 22 23
@<TRIPOS>COMMENT
> <Gold.Version>
2022.3.0

> <Gold.Id.Protein>
unknown|4uch_clean|pdb

> <Gold.Protein.RotatedTorsions>
[ 12874 12851 12850 12848 ] final  122.29 input   59.98 | X-H torsion
[ 13435 13409 13408 13404 ] final  -14.89 input   59.99 | X-H torsion
[ 5555 5539 5538 5535 ] final  162.24 input   60.02 | X-H torsion
[ 9091 9061 9060 9058 ] final   75.33 input   59.99 | X-H torsion
[ 8987 8971 8970 8967 ] final   66.85 input   60.01 | X-H torsion
[ 8337 8307 8306 8304 ] final   49.96 input   59.99 | X-H torsion
[ 13456 13411 13410 13408 ] final  -82.57 input   60.01 | X-H torsion

> <Gold.Protein.ActiveResidues>
 TRP311  MET341  HIS342  TRP414  ALA417  ARG419  CYS420  VAL421  GLY422  ARG423 
 SER462  ALA463  SER482  GLN483  LEU484  ILE485  ARG486  TRP566  TYR567  LEU569 
 PRO570  ALA571  VAL572  SER573  ASN574  MET575  PHE589  SER590  GLY591  TRP592 
 TYR593  MET594  GLU597  ILE598  ARG601  ASP602  ARG608  TRP683  PHE696  HIS697 
 GLU710  TYR711  GLN712  ASP714  HEM750  H4B760 

> <Gold.Protein.RotatedAtoms>
  127.0979  249.4754  360.6989 H   0  0  0  0  0  0  0  0  0  0  0  0  # atno 5555 bound_to 5539
  124.1688  243.0073  361.7154 H   0  0  0  0  0  0  0  0  0  0  0  0  # atno 8337 bound_to 8307
  114.1587  244.1124  367.1603 H   0  0  0  0  0  0  0  0  0  0  0  0  # atno 8987 bound_to 8971
  121.7178  241.8969  360.4839 H   0  0  0  0  0  0  0  0  0  0  0  0  # atno 9091 bound_to 9061
  118.9422  254.4818  353.7591 H   0  0  0  0  0  0  0  0  0  0  0  0  # atno 12874 bound_to 12851
  123.7640  249.2172  346.1439 H   0  0  0  0  0  0  0  0  0  0  0  0  # atno 13435 bound_to 13409
  120.8184  252.4406  345.1908 H   0  0  0  0  0  0  0  0  0  0  0  0  # atno 13456 bound_to 13411
  119.9336  253.6085  354.7087 LP  0  0  0  0  0  0  0  0  0  0  0  0  # atno 13471 bound_to 12851
  120.5055  254.3024  353.3456 LP  0  0  0  0  0  0  0  0  0  0  0  0  # atno 13472 bound_to 12851
  124.9248  250.3424  345.9612 LP  0  0  0  0  0  0  0  0  0  0  0  0  # atno 13488 bound_to 13409
  123.9779  249.9290  344.6966 LP  0  0  0  0  0  0  0  0  0  0  0  0  # atno 13489 bound_to 13409
  126.3580  248.9234  362.0385 LP  0  0  0  0  0  0  0  0  0  0  0  0  # atno 13492 bound_to 5539
  127.8348  249.6125  362.1427 LP  0  0  0  0  0  0  0  0  0  0  0  0  # atno 13493 bound_to 5539
  122.4620  241.0619  359.3018 LP  0  0  0  0  0  0  0  0  0  0  0  0  # atno 13518 bound_to 9061
  122.4217  240.4693  360.8229 LP  0  0  0  0  0  0  0  0  0  0  0  0  # atno 13519 bound_to 9061
  114.4387  245.5712  367.8245 LP  0  0  0  0  0  0  0  0  0  0  0  0  # atno 13520 bound_to 8971
  115.3491  244.2861  368.2561 LP  0  0  0  0  0  0  0  0  0  0  0  0  # atno 13521 bound_to 8971
  124.0747  241.9397  360.4910 LP  0  0  0  0  0  0  0  0  0  0  0  0  # atno 13526 bound_to 8307
  125.5252  242.3171  361.1395 LP  0  0  0  0  0  0  0  0  0  0  0  0  # atno 13527 bound_to 8307

> <Gold.Score>
     Fitness  S(hb_ext) S(vdw_ext)  S(hb_int)    S(int)      intcor
     31.51       4.53      19.67       0.00      -0.07      -0.78

> <Gold.Goldscore.Fitness>
31.5126

> <Gold.Goldscore.Internal.Vdw>
-0.4686

> <Gold.Goldscore.Internal.Torsion>
-0.3744

> <Gold.Goldscore.External.Vdw>
19.6711

> <Gold.Goldscore.Internal.HBond>
0.0000

> <Gold.Goldscore.External.HBond>
4.5309

> <Gold.Goldscore.Internal.Correction>
-0.7769

> <Gold.Goldscore.Hbonds>
donor molecule, donor type, donor heavy atom, donor atom, acceptor molecule, acceptor atom, score
      P1  H  5563  5589       L1    11  0.10
      L1  H     8    22       P1 13268  0.70
      L1  H    10    23       P1  5537  0.06

> <Gold.Goldscore.Internal.Vdw.Weighted>
-0.4686

> <Gold.Goldscore.Internal.Torsion.Weighted>
-0.3744

> <Gold.Goldscore.External.Vdw.Weighted>
27.0477

> <Gold.Goldscore.Internal.HBond.Weighted>
0.0000

> <Gold.Goldscore.External.HBond.Weighted>
4.5309

> <Gold.Goldscore.Internal.Correction.Weighted>
-0.7769

> <Gold.Rescore>
     Score     S(PLP)   S(hbond)     S(cho)   S(metal)  DE(clash)   DE(tors)     intcor
     27.14     -21.27       1.99       0.00       0.00       0.00       0.05       ----

> <Gold.PLP.Fitness>
27.1431

> <Gold.PLP.PLP>
-21.2730

> <Gold.PLP.part.hbond>
-3.7759

> <Gold.PLP.part.metal>
0.0000

> <Gold.PLP.part.buried>
-7.2826

> <Gold.PLP.part.nonpolar>
-11.1485

> <Gold.PLP.part.repulsive>
0.4413

> <Gold.PLP.ligand.clash>
0.0000

> <Gold.PLP.ligand.torsion>
0.0518

> <Gold.PLP.Chemscore.Hbond>
1.9913

> <Gold.PLP.Chemscore.CHOScore>
0.0000

> <Gold.PLP.Chemscore.Metal>
0.0000

> <Gold.Chemscore.Hbonds>
donor molecule, donor type, donor heavy atom, donor atom, acceptor molecule, acceptor atom, score
      L1  H     8    22       P1 13268  1.00
      L1  H    10    23       P1  5537  0.54
      P1  H  5563  5589       L1    11  1.00

> <Gold.PLP.Chemscore.Internal.Correction>
   9.000000E+99

#       Name:                CT1002167954
#       Creating user name   hitesit
#       Creation time:       Sun Apr 16 22:51:10 2023


#       File generated by GOLD software.
#

@<TRIPOS>MOLECULE
CT1002167954|ligand_prepared|mol2|1|dock6
    29    30     1
SMALL
NO_CHARGES


@<TRIPOS>ATOM
      1 C1         123.6773 246.4649 355.6852 C.3            1 RES1               0.0000
      2 C2         122.4858 246.1851 356.6237 C.ar           1 RES1               0.0000
      3 C3         124.2177 245.1025 355.2609 C.2            1 RES1               0.0000
      4 C4         123.1274 247.3016 354.5354 C.2            1 RES1               0.0000
      5 C5         124.8231 247.2621 356.3509 C.3            1 RES1               0.0000
      6 C6         121.9926 244.8928 356.7767 C.ar           1 RES1               0.0000
      7 C7         121.8722 247.2067 357.3437 C.ar           1 RES1               0.0000
      8 N8         123.9605 244.6896 353.9868 N.am           1 RES1               0.0000
      9 O9         124.8261 244.3841 356.0445 O.2            1 RES1               0.0000
     10 N10        123.1226 246.7467 353.2825 N.am           1 RES1               0.0000
     11 O11        122.6829 248.4302 354.7059 O.2            1 RES1               0.0000
     12 C12        126.0411 247.4454 355.4592 C.3            1 RES1               0.0000
     13 C13        120.9266 244.6307 357.6212 C.ar           1 RES1               0.0000
     14 C14        120.8061 246.9424 358.1876 C.ar           1 RES1               0.0000
     15 C15        123.4858 245.4672 352.9613 C.2            1 RES1               0.0000
     16 C16        120.3329 245.6551 358.3275 C.ar           1 RES1               0.0000
     17 O17        123.4021 245.0232 351.8198 O.2            1 RES1               0.0000
     18 H18        124.4445 248.2506 356.6391 H              1 RES1               0.0000
     19 H19        125.1307 246.7410 357.2659 H              1 RES1               0.0000
     20 H20        122.4454 244.0742 356.2272 H              1 RES1               0.0000
     21 H21        122.2270 248.2273 357.2485 H              1 RES1               0.0000
     22 H22        124.1374 243.7124 353.7771 H              1 RES1               0.0000
     23 H23        122.8203 247.3428 352.5184 H              1 RES1               0.0000
     24 H24        126.8147 248.0109 355.9744 H              1 RES1               0.0000
     25 H25        126.4588 246.4821 355.1739 H              1 RES1               0.0000
     26 H26        125.7768 247.9826 354.5508 H              1 RES1               0.0000
     27 H27        120.5570 243.6160 357.7268 H              1 RES1               0.0000
     28 H28        120.3416 247.7518 358.7410 H              1 RES1               0.0000
     29 H29        119.4981 245.4494 358.9893 H              1 RES1               0.0000
@<TRIPOS>BOND
    1    1    2 1     
    2    1    3 1     
    3    1    4 1     
    4    1    5 1     
    5    2    6 ar    
    6    2    7 ar    
    7    3    8 1     
    8    3    9 2     
    9    4   10 1     
   10    4   11 2     
   11    5   12 1     
   12    5   18 1     
   13    5   19 1     
   14    6   13 ar    
   15    6   20 1     
   16    7   14 ar    
   17    7   21 1     
   18    8   15 1     
   19    8   22 1     
   20   10   15 1     
   21   10   23 1     
   22   12   24 1     
   23   12   25 1     
   24   12   26 1     
   25   13   16 ar    
   26   13   27 1     
   27   14   16 ar    
   28   14   28 1     
   29   15   17 2     
   30   16   29 1     
@<TRIPOS>SUBSTRUCTURE
      1 RES1           1
@<TRIPOS>SET
DONOR_HYDROGENS      STATIC     ATOMS    <user>   **** ""
2 22 23
ATOM$RED        STATIC     ATOMS    COLORGROUP SYSTEM
2 22 23
@<TRIPOS>COMMENT
> <Gold.Version>
2022.3.0

> <Gold.Id.Protein>
unknown|4uch_clean|pdb

> <Gold.Protein.RotatedTorsions>
[ 12874 12851 12850 12848 ] final  152.00 input   59.98 | X-H torsion
[ 13435 13409 13408 13404 ] final  -68.86 input   59.99 | X-H torsion
[ 5555 5539 5538 5535 ] final  143.27 input   60.02 | X-H torsion
[ 9091 9061 9060 9058 ] final   19.15 input   59.99 | X-H torsion
[ 8987 8971 8970 8967 ] final -156.63 input   60.01 | X-H torsion
[ 8337 8307 8306 8304 ] final  -40.37 input   59.99 | X-H torsion
[ 13456 13411 13410 13408 ] final -102.24 input   60.01 | X-H torsion

> <Gold.Protein.ActiveResidues>
 TRP311  MET341  HIS342  TRP414  ALA417  ARG419  CYS420  VAL421  GLY422  ARG423 
 SER462  ALA463  SER482  GLN483  LEU484  ILE485  ARG486  TRP566  TYR567  LEU569 
 PRO570  ALA571  VAL572  SER573  ASN574  MET575  PHE589  SER590  GLY591  TRP592 
 TYR593  MET594  GLU597  ILE598  ARG601  ASP602  ARG608  TRP683  PHE696  HIS697 
 GLU710  TYR711  GLN712  ASP714  HEM750  H4B760 

> <Gold.Protein.RotatedAtoms>
  126.8228  249.3397  360.7298 H   0  0  0  0  0  0  0  0  0  0  0  0  # atno 5555 bound_to 5539
  123.7594  242.2018  360.7426 H   0  0  0  0  0  0  0  0  0  0  0  0  # atno 8337 bound_to 8307
  115.3630  244.5426  368.3387 H   0  0  0  0  0  0  0  0  0  0  0  0  # atno 8987 bound_to 8971
  121.9499  241.8452  359.6346 H   0  0  0  0  0  0  0  0  0  0  0  0  # atno 9091 bound_to 9061
  119.2163  254.6331  353.3955 H   0  0  0  0  0  0  0  0  0  0  0  0  # atno 12874 bound_to 12851
  124.3906  249.6609  346.5070 H   0  0  0  0  0  0  0  0  0  0  0  0  # atno 13435 bound_to 13409
  120.8182  252.5525  344.8910 H   0  0  0  0  0  0  0  0  0  0  0  0  # atno 13456 bound_to 13411
  119.4657  253.7285  354.7247 LP  0  0  0  0  0  0  0  0  0  0  0  0  # atno 13471 bound_to 12851
  120.6974  254.0300  353.6958 LP  0  0  0  0  0  0  0  0  0  0  0  0  # atno 13472 bound_to 12851
  124.7359  250.4658  345.1359 LP  0  0  0  0  0  0  0  0  0  0  0  0  # atno 13488 bound_to 13409
  123.5357  249.3587  345.1561 LP  0  0  0  0  0  0  0  0  0  0  0  0  # atno 13489 bound_to 13409
  126.5363  248.9717  362.2883 LP  0  0  0  0  0  0  0  0  0  0  0  0  # atno 13492 bound_to 5539
  127.9338  249.7009  361.8619 LP  0  0  0  0  0  0  0  0  0  0  0  0  # atno 13493 bound_to 5539
  122.6841  240.4108  359.8632 LP  0  0  0  0  0  0  0  0  0  0  0  0  # atno 13518 bound_to 9061
  121.9658  241.1725  361.1165 LP  0  0  0  0  0  0  0  0  0  0  0  0  # atno 13519 bound_to 9061
  114.3236  243.9197  367.2527 LP  0  0  0  0  0  0  0  0  0  0  0  0  # atno 13520 bound_to 8971
  114.2511  245.5042  367.6410 LP  0  0  0  0  0  0  0  0  0  0  0  0  # atno 13521 bound_to 8971
  125.3763  242.0242  360.7858 LP  0  0  0  0  0  0  0  0  0  0  0  0  # atno 13526 bound_to 8307
  124.6359  243.0438  361.8245 LP  0  0  0  0  0  0  0  0  0  0  0  0  # atno 13527 bound_to 8307

> <Gold.Score>
     Fitness  S(hb_ext) S(vdw_ext)  S(hb_int)    S(int)      intcor
     29.55       4.57      19.78       0.00      -2.23      -0.78

> <Gold.Goldscore.Fitness>
29.5467

> <Gold.Goldscore.Internal.Vdw>
-2.6074

> <Gold.Goldscore.Internal.Torsion>
-0.4002

> <Gold.Goldscore.External.Vdw>
19.7845

> <Gold.Goldscore.Internal.HBond>
0.0000

> <Gold.Goldscore.External.HBond>
4.5738

> <Gold.Goldscore.Internal.Correction>
-0.7769

> <Gold.Goldscore.Hbonds>
donor molecule, donor type, donor heavy atom, donor atom, acceptor molecule, acceptor atom, score
      P1  H  9501  9536       L1     9  0.02
      L1  H    10    23       P1 13402  0.74

> <Gold.Goldscore.Internal.Vdw.Weighted>
-2.6074

> <Gold.Goldscore.Internal.Torsion.Weighted>
-0.4002

> <Gold.Goldscore.External.Vdw.Weighted>
27.2037

> <Gold.Goldscore.Internal.HBond.Weighted>
0.0000

> <Gold.Goldscore.External.HBond.Weighted>
4.5738

> <Gold.Goldscore.Internal.Correction.Weighted>
-0.7769

> <Gold.Rescore>
     Score     S(PLP)   S(hbond)     S(cho)   S(metal)  DE(clash)   DE(tors)     intcor
     19.93     -20.87       0.39       0.00       0.00       2.04       0.03       ----

> <Gold.PLP.Fitness>
19.9331

> <Gold.PLP.PLP>
-20.8673

> <Gold.PLP.part.hbond>
-3.7766

> <Gold.PLP.part.metal>
0.0000

> <Gold.PLP.part.buried>
-3.2725

> <Gold.PLP.part.nonpolar>
-14.5468

> <Gold.PLP.part.repulsive>
0.4940

> <Gold.PLP.ligand.clash>
2.0366

> <Gold.PLP.ligand.torsion>
0.0338

> <Gold.PLP.Chemscore.Hbond>
0.3900

> <Gold.PLP.Chemscore.CHOScore>
0.0000

> <Gold.PLP.Chemscore.Metal>
0.0000

> <Gold.Chemscore.Hbonds>
donor molecule, donor type, donor heavy atom, donor atom, acceptor molecule, acceptor atom, score
      P1  H  9501  9536       L1     9  0.88

> <Gold.PLP.Chemscore.Internal.Correction>
   9.000000E+99

