#       Name:                CT1002167954
#       Creating user name   hitesit
#       Creation time:       Sun Apr 16 22:51:14 2023


#       File generated by GOLD software.
#

@<TRIPOS>MOLECULE
CT1002167954|ligand_prepared|mol2|1|dock10
    29    30     1
SMALL
NO_CHARGES


@<TRIPOS>ATOM
      1 C1         116.3920 245.4848 359.1422 C.3            1 RES1               0.0000
      2 C2         117.5278 246.2939 358.4833 C.ar           1 RES1               0.0000
      3 C3         116.6904 245.4676 360.6385 C.2            1 RES1               0.0000
      4 C4         115.0938 246.1949 358.7748 C.2            1 RES1               0.0000
      5 C5         116.2951 244.0240 358.6438 C.3            1 RES1               0.0000
      6 C6         117.3785 247.6560 358.2399 C.ar           1 RES1               0.0000
      7 C7         118.7295 245.6938 358.1166 C.ar           1 RES1               0.0000
      8 N8         115.9193 246.2511 361.4456 N.am           1 RES1               0.0000
      9 O9         117.6138 244.8072 361.0984 O.2            1 RES1               0.0000
     10 N10        114.3719 246.7760 359.7842 N.am           1 RES1               0.0000
     11 O11        114.6979 246.2708 357.6182 O.2            1 RES1               0.0000
     12 C12        115.0225 243.3122 359.0751 C.3            1 RES1               0.0000
     13 C13        118.3948 248.3921 357.6537 C.ar           1 RES1               0.0000
     14 C14        119.7444 246.4319 357.5303 C.ar           1 RES1               0.0000
     15 C15        114.7414 246.8628 361.0988 C.2            1 RES1               0.0000
     16 C16        119.5784 247.7808 357.2990 C.ar           1 RES1               0.0000
     17 O17        114.0645 247.4494 361.9383 O.2            1 RES1               0.0000
     18 H18        116.3477 244.0205 357.5481 H              1 RES1               0.0000
     19 H19        117.1588 243.4637 359.0227 H              1 RES1               0.0000
     20 H20        116.4532 248.1538 358.5100 H              1 RES1               0.0000
     21 H21        118.8819 244.6337 358.2880 H              1 RES1               0.0000
     22 H22        116.2488 246.3956 362.3947 H              1 RES1               0.0000
     23 H23        113.4760 247.1813 359.5324 H              1 RES1               0.0000
     24 H24        115.0052 242.2914 358.6991 H              1 RES1               0.0000
     25 H25        114.9501 243.2750 360.1600 H              1 RES1               0.0000
     26 H26        114.1438 243.8286 358.6942 H              1 RES1               0.0000
     27 H27        118.2587 249.4532 357.4725 H              1 RES1               0.0000
     28 H28        120.6741 245.9465 357.2521 H              1 RES1               0.0000
     29 H29        120.3745 248.3578 356.8401 H              1 RES1               0.0000
@<TRIPOS>BOND
    1    1    2 1     
    2    1    3 1     
    3    1    4 1     
    4    1    5 1     
    5    2    6 ar    
    6    2    7 ar    
    7    3    8 1     
    8    3    9 2     
    9    4   10 1     
   10    4   11 2     
   11    5   12 1     
   12    5   18 1     
   13    5   19 1     
   14    6   13 ar    
   15    6   20 1     
   16    7   14 ar    
   17    7   21 1     
   18    8   15 1     
   19    8   22 1     
   20   10   15 1     
   21   10   23 1     
   22   12   24 1     
   23   12   25 1     
   24   12   26 1     
   25   13   16 ar    
   26   13   27 1     
   27   14   16 ar    
   28   14   28 1     
   29   15   17 2     
   30   16   29 1     
@<TRIPOS>SUBSTRUCTURE
      1 RES1           1
@<TRIPOS>SET
DONOR_HYDROGENS      STATIC     ATOMS    <user>   **** ""
2 22 23
ATOM$RED        STATIC     ATOMS    COLORGROUP SYSTEM
2 22 23
@<TRIPOS>COMMENT
> <Gold.Version>
2022.3.0

> <Gold.Id.Protein>
unknown|4uch_clean|pdb

> <Gold.Protein.RotatedTorsions>
[ 12874 12851 12850 12848 ] final  155.30 input   59.98 | X-H torsion
[ 13435 13409 13408 13404 ] final  125.66 input   59.99 | X-H torsion
[ 5555 5539 5538 5535 ] final  -69.26 input   60.02 | X-H torsion
[ 9091 9061 9060 9058 ] final   25.57 input   59.99 | X-H torsion
[ 8987 8971 8970 8967 ] final -164.28 input   60.01 | X-H torsion
[ 8337 8307 8306 8304 ] final  -14.94 input   59.99 | X-H torsion
[ 13456 13411 13410 13408 ] final -166.42 input   60.01 | X-H torsion

> <Gold.Protein.ActiveResidues>
 TRP311  MET341  HIS342  TRP414  ALA417  ARG419  CYS420  VAL421  GLY422  ARG423 
 SER462  ALA463  SER482  GLN483  LEU484  ILE485  ARG486  TRP566  TYR567  LEU569 
 PRO570  ALA571  VAL572  SER573  ASN574  MET575  PHE589  SER590  GLY591  TRP592 
 TYR593  MET594  GLU597  ILE598  ARG601  ASP602  ARG608  TRP683  PHE696  HIS697 
 GLU710  TYR711  GLN712  ASP714  HEM750  H4B760 

> <Gold.Protein.RotatedAtoms>
  127.7575  249.5627  362.2475 H   0  0  0  0  0  0  0  0  0  0  0  0  # atno 5555 bound_to 5539
  123.6575  242.4742  361.0347 H   0  0  0  0  0  0  0  0  0  0  0  0  # atno 8337 bound_to 8307
  115.3622  244.4228  368.3038 H   0  0  0  0  0  0  0  0  0  0  0  0  # atno 8987 bound_to 8971
  121.9055  241.8896  359.7185 H   0  0  0  0  0  0  0  0  0  0  0  0  # atno 9091 bound_to 9061
  119.2580  254.6422  353.3624 H   0  0  0  0  0  0  0  0  0  0  0  0  # atno 12874 bound_to 12851
  124.2270  250.1516  344.7237 H   0  0  0  0  0  0  0  0  0  0  0  0  # atno 13435 bound_to 13409
  121.3037  253.2368  344.3558 H   0  0  0  0  0  0  0  0  0  0  0  0  # atno 13456 bound_to 13411
  119.4168  253.7492  354.7132 LP  0  0  0  0  0  0  0  0  0  0  0  0  # atno 13471 bound_to 12851
  120.7043  254.0000  353.7405 LP  0  0  0  0  0  0  0  0  0  0  0  0  # atno 13472 bound_to 12851
  123.5999  249.1661  345.8562 LP  0  0  0  0  0  0  0  0  0  0  0  0  # atno 13488 bound_to 13409
  124.8365  250.1641  346.2321 LP  0  0  0  0  0  0  0  0  0  0  0  0  # atno 13489 bound_to 13409
  127.2249  249.5318  360.7106 LP  0  0  0  0  0  0  0  0  0  0  0  0  # atno 13492 bound_to 5539
  126.3033  248.9161  361.9100 LP  0  0  0  0  0  0  0  0  0  0  0  0  # atno 13493 bound_to 5539
  122.6800  240.4592  359.7695 LP  0  0  0  0  0  0  0  0  0  0  0  0  # atno 13518 bound_to 9061
  122.0146  241.0794  361.1257 LP  0  0  0  0  0  0  0  0  0  0  0  0  # atno 13519 bound_to 9061
  114.2408  244.0002  367.2030 LP  0  0  0  0  0  0  0  0  0  0  0  0  # atno 13520 bound_to 8971
  114.3347  245.5444  367.7258 LP  0  0  0  0  0  0  0  0  0  0  0  0  # atno 13521 bound_to 8971
  125.0812  241.8542  360.5485 LP  0  0  0  0  0  0  0  0  0  0  0  0  # atno 13526 bound_to 8307
  125.0337  242.9396  361.7676 LP  0  0  0  0  0  0  0  0  0  0  0  0  # atno 13527 bound_to 8307

> <Gold.Score>
     Fitness  S(hb_ext) S(vdw_ext)  S(hb_int)    S(int)      intcor
     46.21      10.22      26.69       0.00      -0.71      -0.76

> <Gold.Goldscore.Fitness>
46.2077

> <Gold.Goldscore.Internal.Vdw>
-0.8966

> <Gold.Goldscore.Internal.Torsion>
-0.5728

> <Gold.Goldscore.External.Vdw>
26.6929

> <Gold.Goldscore.Internal.HBond>
0.0000

> <Gold.Goldscore.External.HBond>
10.2186

> <Gold.Goldscore.Internal.Correction>
-0.7558

> <Gold.Goldscore.Hbonds>
donor molecule, donor type, donor heavy atom, donor atom, acceptor molecule, acceptor atom, score
      P1  H  8438  8461       L1    17  0.28
      P1  M 13284 13534       L1    11  0.96

> <Gold.Goldscore.Internal.Vdw.Weighted>
-0.8966

> <Gold.Goldscore.Internal.Torsion.Weighted>
-0.5728

> <Gold.Goldscore.External.Vdw.Weighted>
36.7027

> <Gold.Goldscore.Internal.HBond.Weighted>
0.0000

> <Gold.Goldscore.External.HBond.Weighted>
10.2186

> <Gold.Goldscore.Internal.Correction.Weighted>
-0.7558

> <Gold.Rescore>
     Score     S(PLP)   S(hbond)     S(cho)   S(metal)  DE(clash)   DE(tors)     intcor
     35.17     -28.54       1.00       0.00       1.00       2.10       0.13       ----

> <Gold.PLP.Fitness>
35.1657

> <Gold.PLP.PLP>
-28.5364

> <Gold.PLP.part.hbond>
-2.4117

> <Gold.PLP.part.metal>
-1.0000

> <Gold.PLP.part.buried>
20.8599

> <Gold.PLP.part.nonpolar>
-54.6579

> <Gold.PLP.part.repulsive>
7.3109

> <Gold.PLP.ligand.clash>
2.1014

> <Gold.PLP.ligand.torsion>
0.1347

> <Gold.PLP.Chemscore.Hbond>
1.0000

> <Gold.PLP.Chemscore.CHOScore>
0.0000

> <Gold.PLP.Chemscore.Metal>
1.0000

> <Gold.Chemscore.Hbonds>
donor molecule, donor type, donor heavy atom, donor atom, acceptor molecule, acceptor atom, score
      P1  M 13284 13284       L1    11  1.00

> <Gold.PLP.Chemscore.Internal.Correction>
   9.000000E+99

