#       Name:                CT1002167954
#       Creating user name   hitesit
#       Creation time:       Sun Apr 16 22:51:07 2023


#       File generated by GOLD software.
#

@<TRIPOS>MOLECULE
CT1002167954|ligand_prepared|mol2|1|dock2
    29    30     1
SMALL
NO_CHARGES


@<TRIPOS>ATOM
      1 C1         122.3967 244.8398 356.3564 C.3            1 RES1               0.0000
      2 C2         121.9132 246.1853 356.9349 C.ar           1 RES1               0.0000
      3 C3         123.9012 244.9805 356.1443 C.2            1 RES1               0.0000
      4 C4         122.0090 243.7736 357.3750 C.2            1 RES1               0.0000
      5 C5         121.7426 244.4697 355.0049 C.3            1 RES1               0.0000
      6 C6         120.5544 246.4757 357.0132 C.ar           1 RES1               0.0000
      7 C7         122.8124 247.1433 357.3958 C.ar           1 RES1               0.0000
      8 N8         124.7254 244.3281 357.0131 N.am           1 RES1               0.0000
      9 O9         124.3576 245.6850 355.2524 O.2            1 RES1               0.0000
     10 N10        123.0165 243.1045 358.0192 N.am           1 RES1               0.0000
     11 O11        120.8401 243.5185 357.6378 O.2            1 RES1               0.0000
     12 C12        122.3290 243.2233 354.3609 C.3            1 RES1               0.0000
     13 C13        120.1104 247.6789 357.5361 C.ar           1 RES1               0.0000
     14 C14        122.3662 248.3461 357.9182 C.ar           1 RES1               0.0000
     15 C15        124.3570 243.3548 357.9068 C.2            1 RES1               0.0000
     16 C16        121.0158 248.6146 357.9893 C.ar           1 RES1               0.0000
     17 O17        125.1999 242.7470 358.5604 O.2            1 RES1               0.0000
     18 H18        120.6685 244.3131 355.1636 H              1 RES1               0.0000
     19 H19        121.8599 245.3130 354.3131 H              1 RES1               0.0000
     20 H20        119.8272 245.7526 356.6593 H              1 RES1               0.0000
     21 H21        123.8794 246.9541 357.3487 H              1 RES1               0.0000
     22 H22        125.7065 244.5879 356.9969 H              1 RES1               0.0000
     23 H23        122.7417 242.3497 358.6398 H              1 RES1               0.0000
     24 H24        121.8346 243.0084 353.4158 H              1 RES1               0.0000
     25 H25        123.3914 243.3533 354.1657 H              1 RES1               0.0000
     26 H26        122.2071 242.3594 355.0111 H              1 RES1               0.0000
     27 H27        119.0466 247.8860 357.5886 H              1 RES1               0.0000
     28 H28        123.0823 249.0798 358.2731 H              1 RES1               0.0000
     29 H29        120.6677 249.5570 358.3992 H              1 RES1               0.0000
@<TRIPOS>BOND
    1    1    2 1     
    2    1    3 1     
    3    1    4 1     
    4    1    5 1     
    5    2    6 ar    
    6    2    7 ar    
    7    3    8 1     
    8    3    9 2     
    9    4   10 1     
   10    4   11 2     
   11    5   12 1     
   12    5   18 1     
   13    5   19 1     
   14    6   13 ar    
   15    6   20 1     
   16    7   14 ar    
   17    7   21 1     
   18    8   15 1     
   19    8   22 1     
   20   10   15 1     
   21   10   23 1     
   22   12   24 1     
   23   12   25 1     
   24   12   26 1     
   25   13   16 ar    
   26   13   27 1     
   27   14   16 ar    
   28   14   28 1     
   29   15   17 2     
   30   16   29 1     
@<TRIPOS>SUBSTRUCTURE
      1 RES1           1
@<TRIPOS>SET
DONOR_HYDROGENS      STATIC     ATOMS    <user>   **** ""
2 22 23
ATOM$RED        STATIC     ATOMS    COLORGROUP SYSTEM
2 22 23
@<TRIPOS>COMMENT
> <Gold.Version>
2022.3.0

> <Gold.Id.Protein>
unknown|4uch_clean|pdb

> <Gold.Protein.RotatedTorsions>
[ 12874 12851 12850 12848 ] final -111.57 input   59.98 | X-H torsion
[ 13435 13409 13408 13404 ] final -172.47 input   59.99 | X-H torsion
[ 5555 5539 5538 5535 ] final -171.05 input   60.02 | X-H torsion
[ 9091 9061 9060 9058 ] final -165.13 input   59.99 | X-H torsion
[ 8987 8971 8970 8967 ] final   97.15 input   60.01 | X-H torsion
[ 8337 8307 8306 8304 ] final   70.65 input   59.99 | X-H torsion
[ 13456 13411 13410 13408 ] final -171.71 input   60.01 | X-H torsion

> <Gold.Protein.ActiveResidues>
 TRP311  MET341  HIS342  TRP414  ALA417  ARG419  CYS420  VAL421  GLY422  ARG423 
 SER462  ALA463  SER482  GLN483  LEU484  ILE485  ARG486  TRP566  TYR567  LEU569 
 PRO570  ALA571  VAL572  SER573  ASN574  MET575  PHE589  SER590  GLY591  TRP592 
 TYR593  MET594  GLU597  ILE598  ARG601  ASP602  ARG608  TRP683  PHE696  HIS697 
 GLU710  TYR711  GLN712  ASP714  HEM750  H4B760 

> <Gold.Protein.RotatedAtoms>
  127.4780  249.6383  360.8245 H   0  0  0  0  0  0  0  0  0  0  0  0  # atno 5555 bound_to 5539
  124.4896  243.0459  361.8082 H   0  0  0  0  0  0  0  0  0  0  0  0  # atno 8337 bound_to 8307
  114.4889  243.8149  367.3649 H   0  0  0  0  0  0  0  0  0  0  0  0  # atno 8987 bound_to 8971
  122.4146  240.4767  360.8237 H   0  0  0  0  0  0  0  0  0  0  0  0  # atno 9091 bound_to 9061
  120.5583  254.2492  353.4131 H   0  0  0  0  0  0  0  0  0  0  0  0  # atno 12874 bound_to 12851
  124.8482  250.4858  345.3781 H   0  0  0  0  0  0  0  0  0  0  0  0  # atno 13435 bound_to 13409
  121.3652  253.2975  344.3572 H   0  0  0  0  0  0  0  0  0  0  0  0  # atno 13456 bound_to 13411
  118.9756  254.5226  353.6731 LP  0  0  0  0  0  0  0  0  0  0  0  0  # atno 13471 bound_to 12851
  119.8361  253.6225  354.7296 LP  0  0  0  0  0  0  0  0  0  0  0  0  # atno 13472 bound_to 12851
  123.6193  249.5094  344.9499 LP  0  0  0  0  0  0  0  0  0  0  0  0  # atno 13488 bound_to 13409
  124.1913  249.4842  346.4792 LP  0  0  0  0  0  0  0  0  0  0  0  0  # atno 13489 bound_to 13409
  126.2459  248.9317  361.6177 LP  0  0  0  0  0  0  0  0  0  0  0  0  # atno 13492 bound_to 5539
  127.5639  249.4400  362.4369 LP  0  0  0  0  0  0  0  0  0  0  0  0  # atno 13493 bound_to 5539
  121.7168  241.9059  360.4792 LP  0  0  0  0  0  0  0  0  0  0  0  0  # atno 13518 bound_to 9061
  122.4653  241.0552  359.3034 LP  0  0  0  0  0  0  0  0  0  0  0  0  # atno 13519 bound_to 9061
  114.1190  245.3943  367.4939 LP  0  0  0  0  0  0  0  0  0  0  0  0  # atno 13520 bound_to 8971
  115.3362  244.7627  368.3806 LP  0  0  0  0  0  0  0  0  0  0  0  0  # atno 13521 bound_to 8971
  123.8307  242.1129  360.6493 LP  0  0  0  0  0  0  0  0  0  0  0  0  # atno 13526 bound_to 8307
  125.4462  242.1050  360.8877 LP  0  0  0  0  0  0  0  0  0  0  0  0  # atno 13527 bound_to 8307

> <Gold.Score>
     Fitness  S(hb_ext) S(vdw_ext)  S(hb_int)    S(int)      intcor
     39.24       6.12      25.11       0.00      -1.42      -0.78

> <Gold.Goldscore.Fitness>
39.2377

> <Gold.Goldscore.Internal.Vdw>
-1.7605

> <Gold.Goldscore.Internal.Torsion>
-0.4355

> <Gold.Goldscore.External.Vdw>
25.1149

> <Gold.Goldscore.Internal.HBond>
0.0000

> <Gold.Goldscore.External.HBond>
6.1238

> <Gold.Goldscore.Internal.Correction>
-0.7769

> <Gold.Goldscore.Hbonds>
donor molecule, donor type, donor heavy atom, donor atom, acceptor molecule, acceptor atom, score
      P1  H  9502  9538       L1    17  0.69
      L1  H    10    23       P1  9061  1.00

> <Gold.Goldscore.Internal.Vdw.Weighted>
-1.7605

> <Gold.Goldscore.Internal.Torsion.Weighted>
-0.4355

> <Gold.Goldscore.External.Vdw.Weighted>
34.5330

> <Gold.Goldscore.Internal.HBond.Weighted>
0.0000

> <Gold.Goldscore.External.HBond.Weighted>
6.1238

> <Gold.Goldscore.Internal.Correction.Weighted>
-0.7769

> <Gold.Rescore>
     Score     S(PLP)   S(hbond)     S(cho)   S(metal)  DE(clash)   DE(tors)     intcor
     26.41     -25.00       1.33       0.00       0.00       1.38       0.61       ----

> <Gold.PLP.Fitness>
26.4061

> <Gold.PLP.PLP>
-25.0009

> <Gold.PLP.part.hbond>
-4.7845

> <Gold.PLP.part.metal>
0.0000

> <Gold.PLP.part.buried>
1.4848

> <Gold.PLP.part.nonpolar>
-23.6708

> <Gold.PLP.part.repulsive>
2.0578

> <Gold.PLP.ligand.clash>
1.3816

> <Gold.PLP.ligand.torsion>
0.6058

> <Gold.PLP.Chemscore.Hbond>
1.3328

> <Gold.PLP.Chemscore.CHOScore>
0.0000

> <Gold.PLP.Chemscore.Metal>
0.0000

> <Gold.Chemscore.Hbonds>
donor molecule, donor type, donor heavy atom, donor atom, acceptor molecule, acceptor atom, score
      L1  H    10    23       P1  9061  0.78
      P1  H  9502  9538       L1    17  0.32

> <Gold.PLP.Chemscore.Internal.Correction>
   9.000000E+99

