#       Name:                CT1002167954
#       Creating user name   hitesit
#       Creation time:       Sun Apr 16 22:51:06 2023


#       File generated by GOLD software.
#

@<TRIPOS>MOLECULE
CT1002167954|ligand_prepared|mol2|1|dock1
    29    30     1
SMALL
NO_CHARGES


@<TRIPOS>ATOM
      1 C1         120.8217 247.6369 357.7031 C.3            1 RES1               0.0000
      2 C2         119.4186 247.0990 358.0507 C.ar           1 RES1               0.0000
      3 C3         120.6037 248.9291 356.9215 C.2            1 RES1               0.0000
      4 C4         121.5465 247.8276 359.0309 C.2            1 RES1               0.0000
      5 C5         121.6627 246.6731 356.8339 C.3            1 RES1               0.0000
      6 C6         118.3224 247.9552 358.0949 C.ar           1 RES1               0.0000
      7 C7         119.2047 245.7511 358.3263 C.ar           1 RES1               0.0000
      8 N8         120.8625 250.1056 357.5609 N.am           1 RES1               0.0000
      9 O9         120.1734 248.9174 355.7748 O.2            1 RES1               0.0000
     10 N10        121.8733 249.1043 359.4063 N.am           1 RES1               0.0000
     11 O11        121.8226 246.8854 359.7632 O.2            1 RES1               0.0000
     12 C12        122.9867 247.2611 356.3721 C.3            1 RES1               0.0000
     13 C13        117.0577 247.4807 358.4007 C.ar           1 RES1               0.0000
     14 C14        117.9391 245.2787 358.6321 C.ar           1 RES1               0.0000
     15 C15        121.5369 250.2546 358.7461 C.2            1 RES1               0.0000
     16 C16        116.8651 246.1422 358.6691 C.ar           1 RES1               0.0000
     17 O17        121.8195 251.3697 359.1749 O.2            1 RES1               0.0000
     18 H18        121.8631 245.7615 357.4104 H              1 RES1               0.0000
     19 H19        121.0755 246.3896 355.9518 H              1 RES1               0.0000
     20 H20        118.4551 249.0121 357.8890 H              1 RES1               0.0000
     21 H21        120.0352 245.0536 358.3041 H              1 RES1               0.0000
     22 H22        120.5232 250.9529 357.1168 H              1 RES1               0.0000
     23 H23        122.4180 249.2067 360.2568 H              1 RES1               0.0000
     24 H24        123.5368 246.5441 355.7663 H              1 RES1               0.0000
     25 H25        122.8240 248.1555 355.7743 H              1 RES1               0.0000
     26 H26        123.6070 247.5312 357.2242 H              1 RES1               0.0000
     27 H27        116.2159 248.1647 358.4298 H              1 RES1               0.0000
     28 H28        117.7923 244.2246 358.8433 H              1 RES1               0.0000
     29 H29        115.8741 245.7707 358.9082 H              1 RES1               0.0000
@<TRIPOS>BOND
    1    1    2 1     
    2    1    3 1     
    3    1    4 1     
    4    1    5 1     
    5    2    6 ar    
    6    2    7 ar    
    7    3    8 1     
    8    3    9 2     
    9    4   10 1     
   10    4   11 2     
   11    5   12 1     
   12    5   18 1     
   13    5   19 1     
   14    6   13 ar    
   15    6   20 1     
   16    7   14 ar    
   17    7   21 1     
   18    8   15 1     
   19    8   22 1     
   20   10   15 1     
   21   10   23 1     
   22   12   24 1     
   23   12   25 1     
   24   12   26 1     
   25   13   16 ar    
   26   13   27 1     
   27   14   16 ar    
   28   14   28 1     
   29   15   17 2     
   30   16   29 1     
@<TRIPOS>SUBSTRUCTURE
      1 RES1           1
@<TRIPOS>SET
DONOR_HYDROGENS      STATIC     ATOMS    <user>   **** ""
2 22 23
ATOM$RED        STATIC     ATOMS    COLORGROUP SYSTEM
2 22 23
@<TRIPOS>COMMENT
> <Gold.Version>
2022.3.0

> <Gold.Id.Protein>
unknown|4uch_clean|pdb

> <Gold.Protein.RotatedTorsions>
[ 12874 12851 12850 12848 ] final -151.92 input   59.98 | X-H torsion
[ 13435 13409 13408 13404 ] final  143.07 input   59.99 | X-H torsion
[ 5555 5539 5538 5535 ] final   95.29 input   60.02 | X-H torsion
[ 9091 9061 9060 9058 ] final -173.26 input   59.99 | X-H torsion
[ 8987 8971 8970 8967 ] final -134.94 input   60.01 | X-H torsion
[ 8337 8307 8306 8304 ] final  132.44 input   59.99 | X-H torsion
[ 13456 13411 13410 13408 ] final  128.86 input   60.01 | X-H torsion

> <Gold.Protein.ActiveResidues>
 TRP311  MET341  HIS342  TRP414  ALA417  ARG419  CYS420  VAL421  GLY422  ARG423 
 SER462  ALA463  SER482  GLN483  LEU484  ILE485  ARG486  TRP566  TYR567  LEU569 
 PRO570  ALA571  VAL572  SER573  ASN574  MET575  PHE589  SER590  GLY591  TRP592 
 TYR593  MET594  GLU597  ILE598  ARG601  ASP602  ARG608  TRP683  PHE696  HIS697 
 GLU710  TYR711  GLN712  ASP714  HEM750  H4B760 

> <Gold.Protein.RotatedAtoms>
  126.3183  249.0290  361.2072 H   0  0  0  0  0  0  0  0  0  0  0  0  # atno 5555 bound_to 5539
  125.3577  242.7127  361.5646 H   0  0  0  0  0  0  0  0  0  0  0  0  # atno 8337 bound_to 8307
  115.2971  244.8864  368.3789 H   0  0  0  0  0  0  0  0  0  0  0  0  # atno 8987 bound_to 8971
  122.3518  240.5524  360.9128 H   0  0  0  0  0  0  0  0  0  0  0  0  # atno 9091 bound_to 9061
  120.0568  254.5556  353.1460 H   0  0  0  0  0  0  0  0  0  0  0  0  # atno 12874 bound_to 12851
  124.4387  250.3080  344.8284 H   0  0  0  0  0  0  0  0  0  0  0  0  # atno 13435 bound_to 13409
  122.0071  253.7532  344.8499 H   0  0  0  0  0  0  0  0  0  0  0  0  # atno 13456 bound_to 13411
  118.8978  254.1958  354.2299 LP  0  0  0  0  0  0  0  0  0  0  0  0  # atno 13471 bound_to 12851
  120.4188  253.6406  354.4418 LP  0  0  0  0  0  0  0  0  0  0  0  0  # atno 13472 bound_to 12851
  123.5234  249.1943  345.5827 LP  0  0  0  0  0  0  0  0  0  0  0  0  # atno 13488 bound_to 13409
  124.6996  249.9784  346.4001 LP  0  0  0  0  0  0  0  0  0  0  0  0  # atno 13489 bound_to 13409
  127.1989  249.2483  362.5574 LP  0  0  0  0  0  0  0  0  0  0  0  0  # atno 13492 bound_to 5539
  127.7796  249.7375  361.1117 LP  0  0  0  0  0  0  0  0  0  0  0  0  # atno 13493 bound_to 5539
  121.7255  241.9458  360.3519 LP  0  0  0  0  0  0  0  0  0  0  0  0  # atno 13518 bound_to 9061
  122.5199  240.9391  359.3409 LP  0  0  0  0  0  0  0  0  0  0  0  0  # atno 13519 bound_to 9061
  114.5846  243.7663  367.4377 LP  0  0  0  0  0  0  0  0  0  0  0  0  # atno 13520 bound_to 8971
  114.0565  245.3114  367.4154 LP  0  0  0  0  0  0  0  0  0  0  0  0  # atno 13521 bound_to 8971
  123.7434  242.7585  361.3655 LP  0  0  0  0  0  0  0  0  0  0  0  0  # atno 13526 bound_to 8307
  124.6590  241.7949  360.4169 LP  0  0  0  0  0  0  0  0  0  0  0  0  # atno 13527 bound_to 8307

> <Gold.Score>
     Fitness  S(hb_ext) S(vdw_ext)  S(hb_int)    S(int)      intcor
     36.15       5.48      23.14       0.00      -1.14      -0.78

> <Gold.Goldscore.Fitness>
36.1463

> <Gold.Goldscore.Internal.Vdw>
-1.4941

> <Gold.Goldscore.Internal.Torsion>
-0.4259

> <Gold.Goldscore.External.Vdw>
23.1353

> <Gold.Goldscore.Internal.HBond>
0.0000

> <Gold.Goldscore.External.HBond>
5.4783

> <Gold.Goldscore.Internal.Correction>
-0.7769

> <Gold.Goldscore.Hbonds>
donor molecule, donor type, donor heavy atom, donor atom, acceptor molecule, acceptor atom, score
      L1  H     8    22       P1 13268  0.90
      L1  H    10    23       P1  5537  0.05

> <Gold.Goldscore.Internal.Vdw.Weighted>
-1.4941

> <Gold.Goldscore.Internal.Torsion.Weighted>
-0.4259

> <Gold.Goldscore.External.Vdw.Weighted>
31.8111

> <Gold.Goldscore.Internal.HBond.Weighted>
0.0000

> <Gold.Goldscore.External.HBond.Weighted>
5.4783

> <Gold.Goldscore.Internal.Correction.Weighted>
-0.7769

> <Gold.Rescore>
     Score     S(PLP)   S(hbond)     S(cho)   S(metal)  DE(clash)   DE(tors)     intcor
     18.82     -18.43       0.84       0.00       0.00       0.00       1.07       ----

> <Gold.PLP.Fitness>
18.8237

> <Gold.PLP.PLP>
-18.4293

> <Gold.PLP.part.hbond>
-1.8743

> <Gold.PLP.part.metal>
0.0000

> <Gold.PLP.part.buried>
13.2356

> <Gold.PLP.part.nonpolar>
-37.4458

> <Gold.PLP.part.repulsive>
6.5016

> <Gold.PLP.ligand.clash>
0.0000

> <Gold.PLP.ligand.torsion>
1.0703

> <Gold.PLP.Chemscore.Hbond>
0.8450

> <Gold.PLP.Chemscore.CHOScore>
0.0000

> <Gold.PLP.Chemscore.Metal>
0.0000

> <Gold.Chemscore.Hbonds>
donor molecule, donor type, donor heavy atom, donor atom, acceptor molecule, acceptor atom, score
      L1  H     8    22       P1 13268  1.00

> <Gold.PLP.Chemscore.Internal.Correction>
   9.000000E+99

