#       Name:                CT1002167954
#       Creating user name   hitesit
#       Creation time:       Sun Apr 16 22:51:09 2023


#       File generated by GOLD software.
#

@<TRIPOS>MOLECULE
CT1002167954|ligand_prepared|mol2|1|dock5
    29    30     1
SMALL
NO_CHARGES


@<TRIPOS>ATOM
      1 C1         123.8973 249.1858 357.7794 C.3            1 RES1               0.0000
      2 C2         123.4146 247.7427 357.5277 C.ar           1 RES1               0.0000
      3 C3         122.9324 250.0976 357.0271 C.2            1 RES1               0.0000
      4 C4         123.8871 249.3814 359.2914 C.2            1 RES1               0.0000
      5 C5         125.3315 249.4624 357.2715 C.3            1 RES1               0.0000
      6 C6         122.1083 247.3696 357.8297 C.ar           1 RES1               0.0000
      7 C7         124.2617 246.7759 356.9926 C.ar           1 RES1               0.0000
      8 N8         122.0299 250.8072 357.7632 N.am           1 RES1               0.0000
      9 O9         122.9372 250.1629 355.8040 O.2            1 RES1               0.0000
     10 N10        123.0039 250.2886 359.8156 N.am           1 RES1               0.0000
     11 O11        124.6243 248.7460 360.0352 O.2            1 RES1               0.0000
     12 C12        125.7882 250.8983 357.4763 C.3            1 RES1               0.0000
     13 C13        121.6640 246.0776 357.6021 C.ar           1 RES1               0.0000
     14 C14        123.8154 245.4844 356.7660 C.ar           1 RES1               0.0000
     15 C15        122.0536 250.9880 359.1228 C.2            1 RES1               0.0000
     16 C16        122.5170 245.1344 357.0698 C.ar           1 RES1               0.0000
     17 O17        121.2586 251.7452 359.6722 O.2            1 RES1               0.0000
     18 H18        126.0263 248.7931 357.7937 H              1 RES1               0.0000
     19 H19        125.3789 249.2261 356.2013 H              1 RES1               0.0000
     20 H20        121.4234 248.0976 358.2515 H              1 RES1               0.0000
     21 H21        125.2876 247.0284 356.7469 H              1 RES1               0.0000
     22 H22        121.2669 251.2438 357.2558 H              1 RES1               0.0000
     23 H23        123.0602 250.4584 360.8147 H              1 RES1               0.0000
     24 H24        126.8004 251.0381 357.1028 H              1 RES1               0.0000
     25 H25        125.1340 251.5899 356.9495 H              1 RES1               0.0000
     26 H26        125.7775 251.1595 358.5325 H              1 RES1               0.0000
     27 H27        120.6416 245.8069 357.8442 H              1 RES1               0.0000
     28 H28        124.4904 244.7451 356.3475 H              1 RES1               0.0000
     29 H29        122.1686 244.1225 356.8913 H              1 RES1               0.0000
@<TRIPOS>BOND
    1    1    2 1     
    2    1    3 1     
    3    1    4 1     
    4    1    5 1     
    5    2    6 ar    
    6    2    7 ar    
    7    3    8 1     
    8    3    9 2     
    9    4   10 1     
   10    4   11 2     
   11    5   12 1     
   12    5   18 1     
   13    5   19 1     
   14    6   13 ar    
   15    6   20 1     
   16    7   14 ar    
   17    7   21 1     
   18    8   15 1     
   19    8   22 1     
   20   10   15 1     
   21   10   23 1     
   22   12   24 1     
   23   12   25 1     
   24   12   26 1     
   25   13   16 ar    
   26   13   27 1     
   27   14   16 ar    
   28   14   28 1     
   29   15   17 2     
   30   16   29 1     
@<TRIPOS>SUBSTRUCTURE
      1 RES1           1
@<TRIPOS>SET
DONOR_HYDROGENS      STATIC     ATOMS    <user>   **** ""
2 22 23
ATOM$RED        STATIC     ATOMS    COLORGROUP SYSTEM
2 22 23
@<TRIPOS>COMMENT
> <Gold.Version>
2022.3.0

> <Gold.Id.Protein>
unknown|4uch_clean|pdb

> <Gold.Protein.RotatedTorsions>
[ 12874 12851 12850 12848 ] final  122.29 input   59.98 | X-H torsion
[ 13435 13409 13408 13404 ] final  -14.89 input   59.99 | X-H torsion
[ 5555 5539 5538 5535 ] final  162.24 input   60.02 | X-H torsion
[ 9091 9061 9060 9058 ] final   75.33 input   59.99 | X-H torsion
[ 8987 8971 8970 8967 ] final   66.85 input   60.01 | X-H torsion
[ 8337 8307 8306 8304 ] final   49.96 input   59.99 | X-H torsion
[ 13456 13411 13410 13408 ] final  -82.57 input   60.01 | X-H torsion

> <Gold.Protein.ActiveResidues>
 TRP311  MET341  HIS342  TRP414  ALA417  ARG419  CYS420  VAL421  GLY422  ARG423 
 SER462  ALA463  SER482  GLN483  LEU484  ILE485  ARG486  TRP566  TYR567  LEU569 
 PRO570  ALA571  VAL572  SER573  ASN574  MET575  PHE589  SER590  GLY591  TRP592 
 TYR593  MET594  GLU597  ILE598  ARG601  ASP602  ARG608  TRP683  PHE696  HIS697 
 GLU710  TYR711  GLN712  ASP714  HEM750  H4B760 

> <Gold.Protein.RotatedAtoms>
  127.0979  249.4754  360.6989 H   0  0  0  0  0  0  0  0  0  0  0  0  # atno 5555 bound_to 5539
  124.1688  243.0073  361.7154 H   0  0  0  0  0  0  0  0  0  0  0  0  # atno 8337 bound_to 8307
  114.1587  244.1124  367.1603 H   0  0  0  0  0  0  0  0  0  0  0  0  # atno 8987 bound_to 8971
  121.7178  241.8969  360.4839 H   0  0  0  0  0  0  0  0  0  0  0  0  # atno 9091 bound_to 9061
  118.9422  254.4818  353.7591 H   0  0  0  0  0  0  0  0  0  0  0  0  # atno 12874 bound_to 12851
  123.7640  249.2172  346.1439 H   0  0  0  0  0  0  0  0  0  0  0  0  # atno 13435 bound_to 13409
  120.8184  252.4406  345.1908 H   0  0  0  0  0  0  0  0  0  0  0  0  # atno 13456 bound_to 13411
  119.9336  253.6085  354.7087 LP  0  0  0  0  0  0  0  0  0  0  0  0  # atno 13471 bound_to 12851
  120.5055  254.3024  353.3456 LP  0  0  0  0  0  0  0  0  0  0  0  0  # atno 13472 bound_to 12851
  124.9248  250.3424  345.9612 LP  0  0  0  0  0  0  0  0  0  0  0  0  # atno 13488 bound_to 13409
  123.9779  249.9290  344.6966 LP  0  0  0  0  0  0  0  0  0  0  0  0  # atno 13489 bound_to 13409
  126.3580  248.9234  362.0385 LP  0  0  0  0  0  0  0  0  0  0  0  0  # atno 13492 bound_to 5539
  127.8348  249.6125  362.1427 LP  0  0  0  0  0  0  0  0  0  0  0  0  # atno 13493 bound_to 5539
  122.4620  241.0619  359.3018 LP  0  0  0  0  0  0  0  0  0  0  0  0  # atno 13518 bound_to 9061
  122.4217  240.4693  360.8229 LP  0  0  0  0  0  0  0  0  0  0  0  0  # atno 13519 bound_to 9061
  114.4387  245.5712  367.8245 LP  0  0  0  0  0  0  0  0  0  0  0  0  # atno 13520 bound_to 8971
  115.3491  244.2861  368.2561 LP  0  0  0  0  0  0  0  0  0  0  0  0  # atno 13521 bound_to 8971
  124.0747  241.9397  360.4910 LP  0  0  0  0  0  0  0  0  0  0  0  0  # atno 13526 bound_to 8307
  125.5252  242.3171  361.1395 LP  0  0  0  0  0  0  0  0  0  0  0  0  # atno 13527 bound_to 8307

> <Gold.Score>
     Fitness  S(hb_ext) S(vdw_ext)  S(hb_int)    S(int)      intcor
     31.51       4.53      19.67       0.00      -0.07      -0.78

> <Gold.Goldscore.Fitness>
31.5126

> <Gold.Goldscore.Internal.Vdw>
-0.4686

> <Gold.Goldscore.Internal.Torsion>
-0.3744

> <Gold.Goldscore.External.Vdw>
19.6711

> <Gold.Goldscore.Internal.HBond>
0.0000

> <Gold.Goldscore.External.HBond>
4.5309

> <Gold.Goldscore.Internal.Correction>
-0.7769

> <Gold.Goldscore.Hbonds>
donor molecule, donor type, donor heavy atom, donor atom, acceptor molecule, acceptor atom, score
      P1  H  5563  5589       L1    11  0.10
      L1  H     8    22       P1 13268  0.70
      L1  H    10    23       P1  5537  0.06

> <Gold.Goldscore.Internal.Vdw.Weighted>
-0.4686

> <Gold.Goldscore.Internal.Torsion.Weighted>
-0.3744

> <Gold.Goldscore.External.Vdw.Weighted>
27.0477

> <Gold.Goldscore.Internal.HBond.Weighted>
0.0000

> <Gold.Goldscore.External.HBond.Weighted>
4.5309

> <Gold.Goldscore.Internal.Correction.Weighted>
-0.7769

> <Gold.Rescore>
     Score     S(PLP)   S(hbond)     S(cho)   S(metal)  DE(clash)   DE(tors)     intcor
     27.14     -21.27       1.99       0.00       0.00       0.00       0.05       ----

> <Gold.PLP.Fitness>
27.1431

> <Gold.PLP.PLP>
-21.2730

> <Gold.PLP.part.hbond>
-3.7759

> <Gold.PLP.part.metal>
0.0000

> <Gold.PLP.part.buried>
-7.2826

> <Gold.PLP.part.nonpolar>
-11.1485

> <Gold.PLP.part.repulsive>
0.4413

> <Gold.PLP.ligand.clash>
0.0000

> <Gold.PLP.ligand.torsion>
0.0518

> <Gold.PLP.Chemscore.Hbond>
1.9913

> <Gold.PLP.Chemscore.CHOScore>
0.0000

> <Gold.PLP.Chemscore.Metal>
0.0000

> <Gold.Chemscore.Hbonds>
donor molecule, donor type, donor heavy atom, donor atom, acceptor molecule, acceptor atom, score
      L1  H     8    22       P1 13268  1.00
      L1  H    10    23       P1  5537  0.54
      P1  H  5563  5589       L1    11  1.00

> <Gold.PLP.Chemscore.Internal.Correction>
   9.000000E+99

