#       Name:                CT1002167954
#       Creating user name   hitesit
#       Creation time:       Sun Apr 16 22:51:11 2023


#       File generated by GOLD software.
#

@<TRIPOS>MOLECULE
CT1002167954|ligand_prepared|mol2|1|dock7
    29    30     1
SMALL
NO_CHARGES


@<TRIPOS>ATOM
      1 C1         119.5308 245.4418 358.5613 C.3            1 RES1               0.0000
      2 C2         118.0823 244.9125 358.5838 C.ar           1 RES1               0.0000
      3 C3         120.0027 245.4607 360.0122 C.2            1 RES1               0.0000
      4 C4         120.3177 244.4935 357.6634 C.2            1 RES1               0.0000
      5 C5         119.6653 246.8696 357.9824 C.3            1 RES1               0.0000
      6 C6         117.8268 243.5541 358.7462 C.ar           1 RES1               0.0000
      7 C7         116.9933 245.7690 358.4463 C.ar           1 RES1               0.0000
      8 N8         120.8929 244.5029 360.3996 N.am           1 RES1               0.0000
      9 O9         119.5701 246.2791 360.8143 O.2            1 RES1               0.0000
     10 N10        121.3042 243.7357 358.2381 N.am           1 RES1               0.0000
     11 O11        120.0812 244.3835 356.4667 O.2            1 RES1               0.0000
     12 C12        121.1048 247.3283 357.8105 C.3            1 RES1               0.0000
     13 C13        116.5294 243.0699 358.7732 C.ar           1 RES1               0.0000
     14 C14        115.6967 245.2826 358.4733 C.ar           1 RES1               0.0000
     15 C15        121.6069 243.6749 359.5711 C.2            1 RES1               0.0000
     16 C16        115.4636 243.9337 358.6372 C.ar           1 RES1               0.0000
     17 O17        122.4718 242.9277 360.0191 O.2            1 RES1               0.0000
     18 H18        119.1649 246.9036 357.0068 H              1 RES1               0.0000
     19 H19        119.1485 247.5710 358.6490 H              1 RES1               0.0000
     20 H20        118.6529 242.8589 358.8523 H              1 RES1               0.0000
     21 H21        117.1528 246.8339 358.3152 H              1 RES1               0.0000
     22 H22        121.0415 244.3920 361.3975 H              1 RES1               0.0000
     23 H23        121.8650 243.1640 357.6143 H              1 RES1               0.0000
     24 H24        121.1423 248.3358 357.4015 H              1 RES1               0.0000
     25 H25        121.6256 247.3308 358.7658 H              1 RES1               0.0000
     26 H26        121.6419 246.6675 357.1333 H              1 RES1               0.0000
     27 H27        116.3514 242.0073 358.9010 H              1 RES1               0.0000
     28 H28        114.8609 245.9660 358.3653 H              1 RES1               0.0000
     29 H29        114.4474 243.5542 358.6588 H              1 RES1               0.0000
@<TRIPOS>BOND
    1    1    2 1     
    2    1    3 1     
    3    1    4 1     
    4    1    5 1     
    5    2    6 ar    
    6    2    7 ar    
    7    3    8 1     
    8    3    9 2     
    9    4   10 1     
   10    4   11 2     
   11    5   12 1     
   12    5   18 1     
   13    5   19 1     
   14    6   13 ar    
   15    6   20 1     
   16    7   14 ar    
   17    7   21 1     
   18    8   15 1     
   19    8   22 1     
   20   10   15 1     
   21   10   23 1     
   22   12   24 1     
   23   12   25 1     
   24   12   26 1     
   25   13   16 ar    
   26   13   27 1     
   27   14   16 ar    
   28   14   28 1     
   29   15   17 2     
   30   16   29 1     
@<TRIPOS>SUBSTRUCTURE
      1 RES1           1
@<TRIPOS>SET
DONOR_HYDROGENS      STATIC     ATOMS    <user>   **** ""
2 22 23
ATOM$RED        STATIC     ATOMS    COLORGROUP SYSTEM
2 22 23
@<TRIPOS>COMMENT
> <Gold.Version>
2022.3.0

> <Gold.Id.Protein>
unknown|4uch_clean|pdb

> <Gold.Protein.RotatedTorsions>
[ 12874 12851 12850 12848 ] final   14.95 input   59.98 | X-H torsion
[ 13435 13409 13408 13404 ] final  -80.86 input   59.99 | X-H torsion
[ 5555 5539 5538 5535 ] final   68.00 input   60.02 | X-H torsion
[ 9091 9061 9060 9058 ] final  -64.94 input   59.99 | X-H torsion
[ 8987 8971 8970 8967 ] final  -10.35 input   60.01 | X-H torsion
[ 8337 8307 8306 8304 ] final  -16.22 input   59.99 | X-H torsion
[ 13456 13411 13410 13408 ] final -147.46 input   60.01 | X-H torsion

> <Gold.Protein.ActiveResidues>
 TRP311  MET341  HIS342  TRP414  ALA417  ARG419  CYS420  VAL421  GLY422  ARG423 
 SER462  ALA463  SER482  GLN483  LEU484  ILE485  ARG486  TRP566  TYR567  LEU569 
 PRO570  ALA571  VAL572  SER573  ASN574  MET575  PHE589  SER590  GLY591  TRP592 
 TYR593  MET594  GLU597  ILE598  ARG601  ASP602  ARG608  TRP683  PHE696  HIS697 
 GLU710  TYR711  GLN712  ASP714  HEM750  H4B760 

> <Gold.Protein.RotatedAtoms>
  126.2524  248.9350  361.6333 H   0  0  0  0  0  0  0  0  0  0  0  0  # atno 5555 bound_to 5539
  123.6583  242.4602  361.0191 H   0  0  0  0  0  0  0  0  0  0  0  0  # atno 8337 bound_to 8307
  114.0311  245.2536  367.3739 H   0  0  0  0  0  0  0  0  0  0  0  0  # atno 8987 bound_to 8971
  122.5821  240.7815  359.4297 H   0  0  0  0  0  0  0  0  0  0  0  0  # atno 9091 bound_to 9061
  119.7327  253.6498  354.7377 H   0  0  0  0  0  0  0  0  0  0  0  0  # atno 12874 bound_to 12851
  124.5299  249.7965  346.4848 H   0  0  0  0  0  0  0  0  0  0  0  0  # atno 13435 bound_to 13409
  121.1003  253.0123  344.4137 H   0  0  0  0  0  0  0  0  0  0  0  0  # atno 13456 bound_to 13411
  120.6146  254.1876  353.4805 LP  0  0  0  0  0  0  0  0  0  0  0  0  # atno 13471 bound_to 12851
  119.0285  254.5610  353.5882 LP  0  0  0  0  0  0  0  0  0  0  0  0  # atno 13472 bound_to 12851
  124.6216  250.4160  344.9832 LP  0  0  0  0  0  0  0  0  0  0  0  0  # atno 13488 bound_to 13409
  123.5096  249.2719  345.3312 LP  0  0  0  0  0  0  0  0  0  0  0  0  # atno 13489 bound_to 13409
  127.5757  249.4468  362.4292 LP  0  0  0  0  0  0  0  0  0  0  0  0  # atno 13492 bound_to 5539
  127.4693  249.6338  360.8104 LP  0  0  0  0  0  0  0  0  0  0  0  0  # atno 13493 bound_to 5539
  122.2589  240.6794  361.0215 LP  0  0  0  0  0  0  0  0  0  0  0  0  # atno 13518 bound_to 9061
  121.7546  241.9748  360.1645 LP  0  0  0  0  0  0  0  0  0  0  0  0  # atno 13519 bound_to 9061
  115.2739  244.9583  368.3819 LP  0  0  0  0  0  0  0  0  0  0  0  0  # atno 13520 bound_to 8971
  114.6424  243.7496  367.4836 LP  0  0  0  0  0  0  0  0  0  0  0  0  # atno 13521 bound_to 8971
  125.0989  241.8603  360.5581 LP  0  0  0  0  0  0  0  0  0  0  0  0  # atno 13526 bound_to 8307
  125.0151  242.9475  361.7737 LP  0  0  0  0  0  0  0  0  0  0  0  0  # atno 13527 bound_to 8307

> <Gold.Score>
     Fitness  S(hb_ext) S(vdw_ext)  S(hb_int)    S(int)      intcor
     43.18       1.71      30.24       0.00      -0.11      -0.76

> <Gold.Goldscore.Fitness>
43.1840

> <Gold.Goldscore.Internal.Vdw>
-0.4313

> <Gold.Goldscore.Internal.Torsion>
-0.4373

> <Gold.Goldscore.External.Vdw>
30.2436

> <Gold.Goldscore.Internal.HBond>
0.0000

> <Gold.Goldscore.External.HBond>
1.7119

> <Gold.Goldscore.Internal.Correction>
-0.7558

> <Gold.Goldscore.Hbonds>
donor molecule, donor type, donor heavy atom, donor atom, acceptor molecule, acceptor atom, score
      P1  H  8307  8337       L1    17  0.81
      P1  H  8258  8294       L1    17  0.04

> <Gold.Goldscore.Internal.Vdw.Weighted>
-0.4313

> <Gold.Goldscore.Internal.Torsion.Weighted>
-0.4373

> <Gold.Goldscore.External.Vdw.Weighted>
41.5849

> <Gold.Goldscore.Internal.HBond.Weighted>
0.0000

> <Gold.Goldscore.External.HBond.Weighted>
1.7119

> <Gold.Goldscore.Internal.Correction.Weighted>
-0.7558

> <Gold.Rescore>
     Score     S(PLP)   S(hbond)     S(cho)   S(metal)  DE(clash)   DE(tors)     intcor
     33.26     -32.25       1.00       0.00       0.00       0.00       1.00       ----

> <Gold.PLP.Fitness>
33.2558

> <Gold.PLP.PLP>
-32.2470

> <Gold.PLP.part.hbond>
-4.6464

> <Gold.PLP.part.metal>
0.0000

> <Gold.PLP.part.buried>
7.7890

> <Gold.PLP.part.nonpolar>
-39.2353

> <Gold.PLP.part.repulsive>
3.4723

> <Gold.PLP.ligand.clash>
0.0000

> <Gold.PLP.ligand.torsion>
1.0006

> <Gold.PLP.Chemscore.Hbond>
1.0033

> <Gold.PLP.Chemscore.CHOScore>
0.0000

> <Gold.PLP.Chemscore.Metal>
0.0000

> <Gold.Chemscore.Hbonds>
donor molecule, donor type, donor heavy atom, donor atom, acceptor molecule, acceptor atom, score
      L1  H     8    22       P1  5564  0.04
      P1  H  8307  8337       L1    17  1.00

> <Gold.PLP.Chemscore.Internal.Correction>
   9.000000E+99

