#       Name:                CT1002167954
#       Creating user name   hitesit
#       Creation time:       Sun Apr 16 22:51:10 2023


#       File generated by GOLD software.
#

@<TRIPOS>MOLECULE
CT1002167954|ligand_prepared|mol2|1|dock6
    29    30     1
SMALL
NO_CHARGES


@<TRIPOS>ATOM
      1 C1         123.6773 246.4649 355.6852 C.3            1 RES1               0.0000
      2 C2         122.4858 246.1851 356.6237 C.ar           1 RES1               0.0000
      3 C3         124.2177 245.1025 355.2609 C.2            1 RES1               0.0000
      4 C4         123.1274 247.3016 354.5354 C.2            1 RES1               0.0000
      5 C5         124.8231 247.2621 356.3509 C.3            1 RES1               0.0000
      6 C6         121.9926 244.8928 356.7767 C.ar           1 RES1               0.0000
      7 C7         121.8722 247.2067 357.3437 C.ar           1 RES1               0.0000
      8 N8         123.9605 244.6896 353.9868 N.am           1 RES1               0.0000
      9 O9         124.8261 244.3841 356.0445 O.2            1 RES1               0.0000
     10 N10        123.1226 246.7467 353.2825 N.am           1 RES1               0.0000
     11 O11        122.6829 248.4302 354.7059 O.2            1 RES1               0.0000
     12 C12        126.0411 247.4454 355.4592 C.3            1 RES1               0.0000
     13 C13        120.9266 244.6307 357.6212 C.ar           1 RES1               0.0000
     14 C14        120.8061 246.9424 358.1876 C.ar           1 RES1               0.0000
     15 C15        123.4858 245.4672 352.9613 C.2            1 RES1               0.0000
     16 C16        120.3329 245.6551 358.3275 C.ar           1 RES1               0.0000
     17 O17        123.4021 245.0232 351.8198 O.2            1 RES1               0.0000
     18 H18        124.4445 248.2506 356.6391 H              1 RES1               0.0000
     19 H19        125.1307 246.7410 357.2659 H              1 RES1               0.0000
     20 H20        122.4454 244.0742 356.2272 H              1 RES1               0.0000
     21 H21        122.2270 248.2273 357.2485 H              1 RES1               0.0000
     22 H22        124.1374 243.7124 353.7771 H              1 RES1               0.0000
     23 H23        122.8203 247.3428 352.5184 H              1 RES1               0.0000
     24 H24        126.8147 248.0109 355.9744 H              1 RES1               0.0000
     25 H25        126.4588 246.4821 355.1739 H              1 RES1               0.0000
     26 H26        125.7768 247.9826 354.5508 H              1 RES1               0.0000
     27 H27        120.5570 243.6160 357.7268 H              1 RES1               0.0000
     28 H28        120.3416 247.7518 358.7410 H              1 RES1               0.0000
     29 H29        119.4981 245.4494 358.9893 H              1 RES1               0.0000
@<TRIPOS>BOND
    1    1    2 1     
    2    1    3 1     
    3    1    4 1     
    4    1    5 1     
    5    2    6 ar    
    6    2    7 ar    
    7    3    8 1     
    8    3    9 2     
    9    4   10 1     
   10    4   11 2     
   11    5   12 1     
   12    5   18 1     
   13    5   19 1     
   14    6   13 ar    
   15    6   20 1     
   16    7   14 ar    
   17    7   21 1     
   18    8   15 1     
   19    8   22 1     
   20   10   15 1     
   21   10   23 1     
   22   12   24 1     
   23   12   25 1     
   24   12   26 1     
   25   13   16 ar    
   26   13   27 1     
   27   14   16 ar    
   28   14   28 1     
   29   15   17 2     
   30   16   29 1     
@<TRIPOS>SUBSTRUCTURE
      1 RES1           1
@<TRIPOS>SET
DONOR_HYDROGENS      STATIC     ATOMS    <user>   **** ""
2 22 23
ATOM$RED        STATIC     ATOMS    COLORGROUP SYSTEM
2 22 23
@<TRIPOS>COMMENT
> <Gold.Version>
2022.3.0

> <Gold.Id.Protein>
unknown|4uch_clean|pdb

> <Gold.Protein.RotatedTorsions>
[ 12874 12851 12850 12848 ] final  152.00 input   59.98 | X-H torsion
[ 13435 13409 13408 13404 ] final  -68.86 input   59.99 | X-H torsion
[ 5555 5539 5538 5535 ] final  143.27 input   60.02 | X-H torsion
[ 9091 9061 9060 9058 ] final   19.15 input   59.99 | X-H torsion
[ 8987 8971 8970 8967 ] final -156.63 input   60.01 | X-H torsion
[ 8337 8307 8306 8304 ] final  -40.37 input   59.99 | X-H torsion
[ 13456 13411 13410 13408 ] final -102.24 input   60.01 | X-H torsion

> <Gold.Protein.ActiveResidues>
 TRP311  MET341  HIS342  TRP414  ALA417  ARG419  CYS420  VAL421  GLY422  ARG423 
 SER462  ALA463  SER482  GLN483  LEU484  ILE485  ARG486  TRP566  TYR567  LEU569 
 PRO570  ALA571  VAL572  SER573  ASN574  MET575  PHE589  SER590  GLY591  TRP592 
 TYR593  MET594  GLU597  ILE598  ARG601  ASP602  ARG608  TRP683  PHE696  HIS697 
 GLU710  TYR711  GLN712  ASP714  HEM750  H4B760 

> <Gold.Protein.RotatedAtoms>
  126.8228  249.3397  360.7298 H   0  0  0  0  0  0  0  0  0  0  0  0  # atno 5555 bound_to 5539
  123.7594  242.2018  360.7426 H   0  0  0  0  0  0  0  0  0  0  0  0  # atno 8337 bound_to 8307
  115.3630  244.5426  368.3387 H   0  0  0  0  0  0  0  0  0  0  0  0  # atno 8987 bound_to 8971
  121.9499  241.8452  359.6346 H   0  0  0  0  0  0  0  0  0  0  0  0  # atno 9091 bound_to 9061
  119.2163  254.6331  353.3955 H   0  0  0  0  0  0  0  0  0  0  0  0  # atno 12874 bound_to 12851
  124.3906  249.6609  346.5070 H   0  0  0  0  0  0  0  0  0  0  0  0  # atno 13435 bound_to 13409
  120.8182  252.5525  344.8910 H   0  0  0  0  0  0  0  0  0  0  0  0  # atno 13456 bound_to 13411
  119.4657  253.7285  354.7247 LP  0  0  0  0  0  0  0  0  0  0  0  0  # atno 13471 bound_to 12851
  120.6974  254.0300  353.6958 LP  0  0  0  0  0  0  0  0  0  0  0  0  # atno 13472 bound_to 12851
  124.7359  250.4658  345.1359 LP  0  0  0  0  0  0  0  0  0  0  0  0  # atno 13488 bound_to 13409
  123.5357  249.3587  345.1561 LP  0  0  0  0  0  0  0  0  0  0  0  0  # atno 13489 bound_to 13409
  126.5363  248.9717  362.2883 LP  0  0  0  0  0  0  0  0  0  0  0  0  # atno 13492 bound_to 5539
  127.9338  249.7009  361.8619 LP  0  0  0  0  0  0  0  0  0  0  0  0  # atno 13493 bound_to 5539
  122.6841  240.4108  359.8632 LP  0  0  0  0  0  0  0  0  0  0  0  0  # atno 13518 bound_to 9061
  121.9658  241.1725  361.1165 LP  0  0  0  0  0  0  0  0  0  0  0  0  # atno 13519 bound_to 9061
  114.3236  243.9197  367.2527 LP  0  0  0  0  0  0  0  0  0  0  0  0  # atno 13520 bound_to 8971
  114.2511  245.5042  367.6410 LP  0  0  0  0  0  0  0  0  0  0  0  0  # atno 13521 bound_to 8971
  125.3763  242.0242  360.7858 LP  0  0  0  0  0  0  0  0  0  0  0  0  # atno 13526 bound_to 8307
  124.6359  243.0438  361.8245 LP  0  0  0  0  0  0  0  0  0  0  0  0  # atno 13527 bound_to 8307

> <Gold.Score>
     Fitness  S(hb_ext) S(vdw_ext)  S(hb_int)    S(int)      intcor
     29.55       4.57      19.78       0.00      -2.23      -0.78

> <Gold.Goldscore.Fitness>
29.5467

> <Gold.Goldscore.Internal.Vdw>
-2.6074

> <Gold.Goldscore.Internal.Torsion>
-0.4002

> <Gold.Goldscore.External.Vdw>
19.7845

> <Gold.Goldscore.Internal.HBond>
0.0000

> <Gold.Goldscore.External.HBond>
4.5738

> <Gold.Goldscore.Internal.Correction>
-0.7769

> <Gold.Goldscore.Hbonds>
donor molecule, donor type, donor heavy atom, donor atom, acceptor molecule, acceptor atom, score
      P1  H  9501  9536       L1     9  0.02
      L1  H    10    23       P1 13402  0.74

> <Gold.Goldscore.Internal.Vdw.Weighted>
-2.6074

> <Gold.Goldscore.Internal.Torsion.Weighted>
-0.4002

> <Gold.Goldscore.External.Vdw.Weighted>
27.2037

> <Gold.Goldscore.Internal.HBond.Weighted>
0.0000

> <Gold.Goldscore.External.HBond.Weighted>
4.5738

> <Gold.Goldscore.Internal.Correction.Weighted>
-0.7769

> <Gold.Rescore>
     Score     S(PLP)   S(hbond)     S(cho)   S(metal)  DE(clash)   DE(tors)     intcor
     19.93     -20.87       0.39       0.00       0.00       2.04       0.03       ----

> <Gold.PLP.Fitness>
19.9331

> <Gold.PLP.PLP>
-20.8673

> <Gold.PLP.part.hbond>
-3.7766

> <Gold.PLP.part.metal>
0.0000

> <Gold.PLP.part.buried>
-3.2725

> <Gold.PLP.part.nonpolar>
-14.5468

> <Gold.PLP.part.repulsive>
0.4940

> <Gold.PLP.ligand.clash>
2.0366

> <Gold.PLP.ligand.torsion>
0.0338

> <Gold.PLP.Chemscore.Hbond>
0.3900

> <Gold.PLP.Chemscore.CHOScore>
0.0000

> <Gold.PLP.Chemscore.Metal>
0.0000

> <Gold.Chemscore.Hbonds>
donor molecule, donor type, donor heavy atom, donor atom, acceptor molecule, acceptor atom, score
      P1  H  9501  9536       L1     9  0.88

> <Gold.PLP.Chemscore.Internal.Correction>
   9.000000E+99

