#       Name:                CT1002167954
#       Creating user name   hitesit
#       Creation time:       Sun Apr 16 22:51:13 2023


#       File generated by GOLD software.
#

@<TRIPOS>MOLECULE
CT1002167954|ligand_prepared|mol2|1|dock9
    29    30     1
SMALL
NO_CHARGES


@<TRIPOS>ATOM
      1 C1         120.2755 246.0264 358.5223 C.3            1 RES1               0.0000
      2 C2         118.8408 246.2828 359.0270 C.ar           1 RES1               0.0000
      3 C3         120.2332 246.1959 357.0064 C.2            1 RES1               0.0000
      4 C4         121.1661 247.0369 359.2367 C.2            1 RES1               0.0000
      5 C5         120.8070 244.6101 358.8434 C.3            1 RES1               0.0000
      6 C6         117.9368 247.0063 358.2549 C.ar           1 RES1               0.0000
      7 C7         118.4067 245.8009 360.2590 C.ar           1 RES1               0.0000
      8 N8         120.7895 247.3249 356.4812 N.am           1 RES1               0.0000
      9 O9         119.6849 245.3707 356.2862 O.2            1 RES1               0.0000
     10 N10        121.7793 248.0005 358.4796 N.am           1 RES1               0.0000
     11 O11        121.3290 247.0176 360.4505 O.2            1 RES1               0.0000
     12 C12        121.9961 244.1938 357.9921 C.3            1 RES1               0.0000
     13 C13        116.6447 247.2372 358.6971 C.ar           1 RES1               0.0000
     14 C14        117.1142 246.0331 360.6994 C.ar           1 RES1               0.0000
     15 C15        121.6070 248.2090 357.1383 C.2            1 RES1               0.0000
     16 C16        116.2324 246.7504 359.9193 C.ar           1 RES1               0.0000
     17 O17        122.1509 249.1310 356.5374 O.2            1 RES1               0.0000
     18 H18        121.0994 244.5739 359.9001 H              1 RES1               0.0000
     19 H19        119.9959 243.8865 358.6950 H              1 RES1               0.0000
     20 H20        118.2440 247.3994 357.2915 H              1 RES1               0.0000
     21 H21        119.0836 245.2349 360.8900 H              1 RES1               0.0000
     22 H22        120.5781 247.5308 355.5100 H              1 RES1               0.0000
     23 H23        122.4241 248.6196 358.9604 H              1 RES1               0.0000
     24 H24        122.3293 243.1928 358.2579 H              1 RES1               0.0000
     25 H25        121.7336 244.1942 356.9362 H              1 RES1               0.0000
     26 H26        122.8304 244.8776 358.1342 H              1 RES1               0.0000
     27 H27        115.9550 247.8035 358.0800 H              1 RES1               0.0000
     28 H28        116.7942 245.6486 361.6623 H              1 RES1               0.0000
     29 H29        115.2201 246.9310 360.2653 H              1 RES1               0.0000
@<TRIPOS>BOND
    1    1    2 1     
    2    1    3 1     
    3    1    4 1     
    4    1    5 1     
    5    2    6 ar    
    6    2    7 ar    
    7    3    8 1     
    8    3    9 2     
    9    4   10 1     
   10    4   11 2     
   11    5   12 1     
   12    5   18 1     
   13    5   19 1     
   14    6   13 ar    
   15    6   20 1     
   16    7   14 ar    
   17    7   21 1     
   18    8   15 1     
   19    8   22 1     
   20   10   15 1     
   21   10   23 1     
   22   12   24 1     
   23   12   25 1     
   24   12   26 1     
   25   13   16 ar    
   26   13   27 1     
   27   14   16 ar    
   28   14   28 1     
   29   15   17 2     
   30   16   29 1     
@<TRIPOS>SUBSTRUCTURE
      1 RES1           1
@<TRIPOS>SET
DONOR_HYDROGENS      STATIC     ATOMS    <user>   **** ""
2 22 23
ATOM$RED        STATIC     ATOMS    COLORGROUP SYSTEM
2 22 23
@<TRIPOS>COMMENT
> <Gold.Version>
2022.3.0

> <Gold.Id.Protein>
unknown|4uch_clean|pdb

> <Gold.Protein.RotatedTorsions>
[ 12874 12851 12850 12848 ] final  138.44 input   59.98 | X-H torsion
[ 13435 13409 13408 13404 ] final  143.90 input   59.99 | X-H torsion
[ 5555 5539 5538 5535 ] final  -19.54 input   60.02 | X-H torsion
[ 9091 9061 9060 9058 ] final   68.12 input   59.99 | X-H torsion
[ 8987 8971 8970 8967 ] final    4.43 input   60.01 | X-H torsion
[ 8337 8307 8306 8304 ] final   33.46 input   59.99 | X-H torsion
[ 13456 13411 13410 13408 ] final  -38.01 input   60.01 | X-H torsion

> <Gold.Protein.ActiveResidues>
 TRP311  MET341  HIS342  TRP414  ALA417  ARG419  CYS420  VAL421  GLY422  ARG423 
 SER462  ALA463  SER482  GLN483  LEU484  ILE485  ARG486  TRP566  TYR567  LEU569 
 PRO570  ALA571  VAL572  SER573  ASN574  MET575  PHE589  SER590  GLY591  TRP592 
 TYR593  MET594  GLU597  ILE598  ARG601  ASP602  ARG608  TRP683  PHE696  HIS697 
 GLU710  TYR711  GLN712  ASP714  HEM750  H4B760 

> <Gold.Protein.RotatedAtoms>
  127.1210  249.2145  362.5515 H   0  0  0  0  0  0  0  0  0  0  0  0  # atno 5555 bound_to 5539
  123.9500  242.9217  361.5852 H   0  0  0  0  0  0  0  0  0  0  0  0  # atno 8337 bound_to 8307
  113.9592  245.0571  367.2548 H   0  0  0  0  0  0  0  0  0  0  0  0  # atno 8987 bound_to 8971
  121.7245  241.9336  360.3722 H   0  0  0  0  0  0  0  0  0  0  0  0  # atno 9091 bound_to 9061
  119.0669  254.5787  353.5488 H   0  0  0  0  0  0  0  0  0  0  0  0  # atno 12874 bound_to 12851
  124.4484  250.3145  344.8353 H   0  0  0  0  0  0  0  0  0  0  0  0  # atno 13435 bound_to 13409
  121.0948  252.4716  345.8444 H   0  0  0  0  0  0  0  0  0  0  0  0  # atno 13456 bound_to 13411
  119.6758  253.6579  354.7441 LP  0  0  0  0  0  0  0  0  0  0  0  0  # atno 13471 bound_to 12851
  120.6377  254.1554  353.5219 LP  0  0  0  0  0  0  0  0  0  0  0  0  # atno 13472 bound_to 12851
  123.5214  249.1971  345.5695 LP  0  0  0  0  0  0  0  0  0  0  0  0  # atno 13488 bound_to 13409
  124.6919  249.9691  346.4064 LP  0  0  0  0  0  0  0  0  0  0  0  0  # atno 13489 bound_to 13409
  127.8229  249.7475  361.1841 LP  0  0  0  0  0  0  0  0  0  0  0  0  # atno 13492 bound_to 5539
  126.3467  249.0514  361.1301 LP  0  0  0  0  0  0  0  0  0  0  0  0  # atno 13493 bound_to 5539
  122.5110  240.9586  359.3333 LP  0  0  0  0  0  0  0  0  0  0  0  0  # atno 13518 bound_to 9061
  122.3659  240.5356  360.9039 LP  0  0  0  0  0  0  0  0  0  0  0  0  # atno 13519 bound_to 9061
  115.1624  245.1703  368.3445 LP  0  0  0  0  0  0  0  0  0  0  0  0  # atno 13520 bound_to 8971
  114.8264  243.7355  367.6409 LP  0  0  0  0  0  0  0  0  0  0  0  0  # atno 13521 bound_to 8971
  124.3187  241.8455  360.4219 LP  0  0  0  0  0  0  0  0  0  0  0  0  # atno 13526 bound_to 8307
  125.5016  242.4975  361.3397 LP  0  0  0  0  0  0  0  0  0  0  0  0  # atno 13527 bound_to 8307

> <Gold.Score>
     Fitness  S(hb_ext) S(vdw_ext)  S(hb_int)    S(int)      intcor
     35.11       3.69      24.20       0.00      -1.85      -0.76

> <Gold.Goldscore.Fitness>
35.1081

> <Gold.Goldscore.Internal.Vdw>
-1.7157

> <Gold.Goldscore.Internal.Torsion>
-0.8904

> <Gold.Goldscore.External.Vdw>
24.1952

> <Gold.Goldscore.Internal.HBond>
0.0000

> <Gold.Goldscore.External.HBond>
3.6900

> <Gold.Goldscore.Internal.Correction>
-0.7558

> <Gold.Goldscore.Hbonds>
donor molecule, donor type, donor heavy atom, donor atom, acceptor molecule, acceptor atom, score
      L1  H     8    22       P1 13273  0.61

> <Gold.Goldscore.Internal.Vdw.Weighted>
-1.7157

> <Gold.Goldscore.Internal.Torsion.Weighted>
-0.8904

> <Gold.Goldscore.External.Vdw.Weighted>
33.2684

> <Gold.Goldscore.Internal.HBond.Weighted>
0.0000

> <Gold.Goldscore.External.HBond.Weighted>
3.6900

> <Gold.Goldscore.Internal.Correction.Weighted>
-0.7558

> <Gold.Rescore>
     Score     S(PLP)   S(hbond)     S(cho)   S(metal)  DE(clash)   DE(tors)     intcor
     27.52     -26.94       1.00       0.00       0.00       0.01       1.20       ----

> <Gold.PLP.Fitness>
27.5213

> <Gold.PLP.PLP>
-26.9403

> <Gold.PLP.part.hbond>
-1.0000

> <Gold.PLP.part.metal>
0.0000

> <Gold.PLP.part.buried>
10.2931

> <Gold.PLP.part.nonpolar>
-44.8345

> <Gold.PLP.part.repulsive>
7.7487

> <Gold.PLP.ligand.clash>
0.0121

> <Gold.PLP.ligand.torsion>
1.2035

> <Gold.PLP.Chemscore.Hbond>
1.0000

> <Gold.PLP.Chemscore.CHOScore>
0.0000

> <Gold.PLP.Chemscore.Metal>
0.0000

> <Gold.Chemscore.Hbonds>
donor molecule, donor type, donor heavy atom, donor atom, acceptor molecule, acceptor atom, score
      L1  H     8    22       P1 13273  0.55

> <Gold.PLP.Chemscore.Internal.Correction>
   9.000000E+99

