#       Name:                CT1002167954
#       Creating user name   hitesit
#       Creation time:       Sun Apr 16 22:51:08 2023


#       File generated by GOLD software.
#

@<TRIPOS>MOLECULE
CT1002167954|ligand_prepared|mol2|1|dock4
    29    30     1
SMALL
NO_CHARGES


@<TRIPOS>ATOM
      1 C1         120.0489 245.4740 358.2528 C.3            1 RES1               0.0000
      2 C2         118.5837 245.0121 358.3891 C.ar           1 RES1               0.0000
      3 C3         120.6948 245.2589 359.6184 C.2            1 RES1               0.0000
      4 C4         120.6592 244.6335 357.1366 C.2            1 RES1               0.0000
      5 C5         120.2010 246.9638 357.8668 C.3            1 RES1               0.0000
      6 C6         118.2845 243.7148 358.7945 C.ar           1 RES1               0.0000
      7 C7         117.5225 245.8710 358.1160 C.ar           1 RES1               0.0000
      8 N8         121.5638 244.2160 359.7491 N.am           1 RES1               0.0000
      9 O9         120.4156 245.9693 360.5763 O.2            1 RES1               0.0000
     10 N10        121.6590 243.7565 357.4666 N.am           1 RES1               0.0000
     11 O11        120.2718 244.7108 355.9772 O.2            1 RES1               0.0000
     12 C12        121.6450 247.4354 357.7997 C.3            1 RES1               0.0000
     13 C13        116.9720 243.2923 358.9251 C.ar           1 RES1               0.0000
     14 C14        116.2106 245.4464 358.2470 C.ar           1 RES1               0.0000
     15 C15        122.1178 243.4875 358.7273 C.2            1 RES1               0.0000
     16 C16        115.9342 244.1578 358.6519 C.ar           1 RES1               0.0000
     17 O17        122.9824 242.6449 358.9502 O.2            1 RES1               0.0000
     18 H18        119.7311 247.1248 356.8887 H              1 RES1               0.0000
     19 H19        119.6636 247.5756 358.6017 H              1 RES1               0.0000
     20 H20        119.0880 243.0188 359.0115 H              1 RES1               0.0000
     21 H21        117.7161 246.8888 357.7950 H              1 RES1               0.0000
     22 H22        121.8260 243.9535 360.6939 H              1 RES1               0.0000
     23 H23        122.1024 243.2580 356.7016 H              1 RES1               0.0000
     24 H24        121.6950 248.4870 357.5249 H              1 RES1               0.0000
     25 H25        122.1359 247.3132 358.7629 H              1 RES1               0.0000
     26 H26        122.2031 246.8650 357.0600 H              1 RES1               0.0000
     27 H27        116.7598 242.2768 359.2427 H              1 RES1               0.0000
     28 H28        115.3970 246.1307 358.0303 H              1 RES1               0.0000
     29 H29        114.9061 243.8267 358.7546 H              1 RES1               0.0000
@<TRIPOS>BOND
    1    1    2 1     
    2    1    3 1     
    3    1    4 1     
    4    1    5 1     
    5    2    6 ar    
    6    2    7 ar    
    7    3    8 1     
    8    3    9 2     
    9    4   10 1     
   10    4   11 2     
   11    5   12 1     
   12    5   18 1     
   13    5   19 1     
   14    6   13 ar    
   15    6   20 1     
   16    7   14 ar    
   17    7   21 1     
   18    8   15 1     
   19    8   22 1     
   20   10   15 1     
   21   10   23 1     
   22   12   24 1     
   23   12   25 1     
   24   12   26 1     
   25   13   16 ar    
   26   13   27 1     
   27   14   16 ar    
   28   14   28 1     
   29   15   17 2     
   30   16   29 1     
@<TRIPOS>SUBSTRUCTURE
      1 RES1           1
@<TRIPOS>SET
DONOR_HYDROGENS      STATIC     ATOMS    <user>   **** ""
2 22 23
ATOM$RED        STATIC     ATOMS    COLORGROUP SYSTEM
2 22 23
@<TRIPOS>COMMENT
> <Gold.Version>
2022.3.0

> <Gold.Id.Protein>
unknown|4uch_clean|pdb

> <Gold.Protein.RotatedTorsions>
[ 12874 12851 12850 12848 ] final  -51.58 input   59.98 | X-H torsion
[ 13435 13409 13408 13404 ] final    0.54 input   59.99 | X-H torsion
[ 5555 5539 5538 5535 ] final  -96.41 input   60.02 | X-H torsion
[ 9091 9061 9060 9058 ] final  -37.69 input   59.99 | X-H torsion
[ 8987 8971 8970 8967 ] final -177.59 input   60.01 | X-H torsion
[ 8337 8307 8306 8304 ] final  -55.13 input   59.99 | X-H torsion
[ 13456 13411 13410 13408 ] final   32.09 input   60.01 | X-H torsion

> <Gold.Protein.ActiveResidues>
 TRP311  MET341  HIS342  TRP414  ALA417  ARG419  CYS420  VAL421  GLY422  ARG423 
 SER462  ALA463  SER482  GLN483  LEU484  ILE485  ARG486  TRP566  TYR567  LEU569 
 PRO570  ALA571  VAL572  SER573  ASN574  MET575  PHE589  SER590  GLY591  TRP592 
 TYR593  MET594  GLU597  ILE598  ARG601  ASP602  ARG608  TRP683  PHE696  HIS697 
 GLU710  TYR711  GLN712  ASP714  HEM750  H4B760 

> <Gold.Protein.RotatedAtoms>
  127.9255  249.6990  361.8652 H   0  0  0  0  0  0  0  0  0  0  0  0  # atno 5555 bound_to 5539
  123.8949  242.0602  360.6033 H   0  0  0  0  0  0  0  0  0  0  0  0  # atno 8337 bound_to 8307
  115.3306  244.2252  368.2198 H   0  0  0  0  0  0  0  0  0  0  0  0  # atno 8987 bound_to 8971
  122.4071  241.1618  359.2906 H   0  0  0  0  0  0  0  0  0  0  0  0  # atno 9091 bound_to 9061
  120.6025  253.7445  354.2001 H   0  0  0  0  0  0  0  0  0  0  0  0  # atno 12874 bound_to 12851
  123.6360  249.1762  345.9316 H   0  0  0  0  0  0  0  0  0  0  0  0  # atno 13435 bound_to 13409
  121.8812  253.1560  346.1105 H   0  0  0  0  0  0  0  0  0  0  0  0  # atno 13456 bound_to 13411
  119.7470  254.6392  353.1441 LP  0  0  0  0  0  0  0  0  0  0  0  0  # atno 13471 bound_to 12851
  119.0201  254.0141  354.4661 LP  0  0  0  0  0  0  0  0  0  0  0  0  # atno 13472 bound_to 12851
  124.8664  250.2135  346.1710 LP  0  0  0  0  0  0  0  0  0  0  0  0  # atno 13488 bound_to 13409
  124.1651  250.0992  344.7007 LP  0  0  0  0  0  0  0  0  0  0  0  0  # atno 13489 bound_to 13409
  126.8261  249.3400  360.7212 LP  0  0  0  0  0  0  0  0  0  0  0  0  # atno 13492 bound_to 5539
  126.5327  248.9706  362.2846 LP  0  0  0  0  0  0  0  0  0  0  0  0  # atno 13493 bound_to 5539
  122.4723  240.4153  360.7352 LP  0  0  0  0  0  0  0  0  0  0  0  0  # atno 13518 bound_to 9061
  121.7173  241.8560  360.5909 LP  0  0  0  0  0  0  0  0  0  0  0  0  # atno 13519 bound_to 9061
  114.1146  244.1672  367.1401 LP  0  0  0  0  0  0  0  0  0  0  0  0  # atno 13520 bound_to 8971
  114.4927  245.5765  367.8734 LP  0  0  0  0  0  0  0  0  0  0  0  0  # atno 13521 bound_to 8971
  125.4801  242.1612  360.9564 LP  0  0  0  0  0  0  0  0  0  0  0  0  # atno 13526 bound_to 8307
  124.3957  243.0495  361.7942 LP  0  0  0  0  0  0  0  0  0  0  0  0  # atno 13527 bound_to 8307

> <Gold.Score>
     Fitness  S(hb_ext) S(vdw_ext)  S(hb_int)    S(int)      intcor
     43.74       1.06      31.08       0.00      -0.06      -0.78

> <Gold.Goldscore.Fitness>
43.7380

> <Gold.Goldscore.Internal.Vdw>
-0.4510

> <Gold.Goldscore.Internal.Torsion>
-0.3813

> <Gold.Goldscore.External.Vdw>
31.0806

> <Gold.Goldscore.Internal.HBond>
0.0000

> <Gold.Goldscore.External.HBond>
1.0576

> <Gold.Goldscore.Internal.Correction>
-0.7769

> <Gold.Goldscore.Hbonds>
donor molecule, donor type, donor heavy atom, donor atom, acceptor molecule, acceptor atom, score
      P1  H  9061  9091       L1    17  0.02
      P1  H  8307  8337       L1    17  0.41
      P1  H  8258  8294       L1    17  0.07
      L1  H     8    22       P1  5564  0.03

> <Gold.Goldscore.Internal.Vdw.Weighted>
-0.4510

> <Gold.Goldscore.Internal.Torsion.Weighted>
-0.3813

> <Gold.Goldscore.External.Vdw.Weighted>
42.7358

> <Gold.Goldscore.Internal.HBond.Weighted>
0.0000

> <Gold.Goldscore.External.HBond.Weighted>
1.0576

> <Gold.Goldscore.Internal.Correction.Weighted>
-0.7769

> <Gold.Rescore>
     Score     S(PLP)   S(hbond)     S(cho)   S(metal)  DE(clash)   DE(tors)     intcor
     33.79     -31.15       0.92       0.00       0.00       0.00       0.07       ----

> <Gold.PLP.Fitness>
33.7900

> <Gold.PLP.PLP>
-31.1509

> <Gold.PLP.part.hbond>
-4.4893

> <Gold.PLP.part.metal>
0.0000

> <Gold.PLP.part.buried>
6.1332

> <Gold.PLP.part.nonpolar>
-35.5207

> <Gold.PLP.part.repulsive>
2.5847

> <Gold.PLP.ligand.clash>
0.0000

> <Gold.PLP.ligand.torsion>
0.0661

> <Gold.PLP.Chemscore.Hbond>
0.9238

> <Gold.PLP.Chemscore.CHOScore>
0.0000

> <Gold.PLP.Chemscore.Metal>
0.0000

> <Gold.Chemscore.Hbonds>
donor molecule, donor type, donor heavy atom, donor atom, acceptor molecule, acceptor atom, score
      L1  H     8    22       P1  5564  0.53
      P1  H  9061  9091       L1    17  0.42
      P1  H  8307  8337       L1    17  1.00

> <Gold.PLP.Chemscore.Internal.Correction>
   9.000000E+99

