#       Name:                CT1002167954
#       Creating user name   hitesit
#       Creation time:       Sun Apr 16 22:51:12 2023


#       File generated by GOLD software.
#

@<TRIPOS>MOLECULE
CT1002167954|ligand_prepared|mol2|1|dock8
    29    30     1
SMALL
NO_CHARGES


@<TRIPOS>ATOM
      1 C1         122.8631 248.4475 357.4463 C.3            1 RES1               0.0000
      2 C2         121.9987 247.2056 357.7453 C.ar           1 RES1               0.0000
      3 C3         121.9548 249.4377 356.7233 C.2            1 RES1               0.0000
      4 C4         123.3771 248.9438 358.7932 C.2            1 RES1               0.0000
      5 C5         124.0863 248.1554 356.5464 C.3            1 RES1               0.0000
      6 C6         121.4477 247.0132 359.0087 C.ar           1 RES1               0.0000
      7 C7         121.7418 246.2468 356.7690 C.ar           1 RES1               0.0000
      8 N8         121.5256 250.5276 357.4217 N.am           1 RES1               0.0000
      9 O9         121.5887 249.2447 355.5705 O.2            1 RES1               0.0000
     10 N10        122.9454 250.1674 359.2339 N.am           1 RES1               0.0000
     11 O11        124.1389 248.2790 359.4846 O.2            1 RES1               0.0000
     12 C12        125.0926 249.2940 356.4911 C.3            1 RES1               0.0000
     13 C13        120.6657 245.9040 359.2853 C.ar           1 RES1               0.0000
     14 C14        120.9597 245.1381 357.0478 C.ar           1 RES1               0.0000
     15 C15        122.0190 250.9682 358.6234 C.2            1 RES1               0.0000
     16 C16        120.4208 244.9661 358.3051 C.ar           1 RES1               0.0000
     17 O17        121.6409 252.0305 359.1090 O.2            1 RES1               0.0000
     18 H18        124.5913 247.2554 356.9182 H              1 RES1               0.0000
     19 H19        123.7340 247.9460 355.5288 H              1 RES1               0.0000
     20 H20        121.6315 247.7394 359.7934 H              1 RES1               0.0000
     21 H21        122.1562 246.3609 355.7731 H              1 RES1               0.0000
     22 H22        120.7675 251.0646 357.0127 H              1 RES1               0.0000
     23 H23        123.3526 250.5135 360.0969 H              1 RES1               0.0000
     24 H24        125.9306 249.0372 355.8464 H              1 RES1               0.0000
     25 H25        124.6305 250.1988 356.1019 H              1 RES1               0.0000
     26 H26        125.4828 249.5123 357.4831 H              1 RES1               0.0000
     27 H27        120.2450 245.7725 360.2767 H              1 RES1               0.0000
     28 H28        120.7700 244.4021 356.2734 H              1 RES1               0.0000
     29 H29        119.8078 244.0974 358.5219 H              1 RES1               0.0000
@<TRIPOS>BOND
    1    1    2 1     
    2    1    3 1     
    3    1    4 1     
    4    1    5 1     
    5    2    6 ar    
    6    2    7 ar    
    7    3    8 1     
    8    3    9 2     
    9    4   10 1     
   10    4   11 2     
   11    5   12 1     
   12    5   18 1     
   13    5   19 1     
   14    6   13 ar    
   15    6   20 1     
   16    7   14 ar    
   17    7   21 1     
   18    8   15 1     
   19    8   22 1     
   20   10   15 1     
   21   10   23 1     
   22   12   24 1     
   23   12   25 1     
   24   12   26 1     
   25   13   16 ar    
   26   13   27 1     
   27   14   16 ar    
   28   14   28 1     
   29   15   17 2     
   30   16   29 1     
@<TRIPOS>SUBSTRUCTURE
      1 RES1           1
@<TRIPOS>SET
DONOR_HYDROGENS      STATIC     ATOMS    <user>   **** ""
2 22 23
ATOM$RED        STATIC     ATOMS    COLORGROUP SYSTEM
2 22 23
@<TRIPOS>COMMENT
> <Gold.Version>
2022.3.0

> <Gold.Id.Protein>
unknown|4uch_clean|pdb

> <Gold.Protein.RotatedTorsions>
[ 12874 12851 12850 12848 ] final   -2.96 input   59.98 | X-H torsion
[ 13435 13409 13408 13404 ] final  -56.94 input   59.99 | X-H torsion
[ 5555 5539 5538 5535 ] final   97.31 input   60.02 | X-H torsion
[ 9091 9061 9060 9058 ] final   78.51 input   59.99 | X-H torsion
[ 8987 8971 8970 8967 ] final  -43.37 input   60.01 | X-H torsion
[ 8337 8307 8306 8304 ] final  158.19 input   59.99 | X-H torsion
[ 13456 13411 13410 13408 ] final  -47.37 input   60.01 | X-H torsion

> <Gold.Protein.ActiveResidues>
 TRP311  MET341  HIS342  TRP414  ALA417  ARG419  CYS420  VAL421  GLY422  ARG423 
 SER462  ALA463  SER482  GLN483  LEU484  ILE485  ARG486  TRP566  TYR567  LEU569 
 PRO570  ALA571  VAL572  SER573  ASN574  MET575  PHE589  SER590  GLY591  TRP592 
 TYR593  MET594  GLU597  ILE598  ARG601  ASP602  ARG608  TRP683  PHE696  HIS697 
 GLU710  TYR711  GLN712  ASP714  HEM750  H4B760 

> <Gold.Protein.RotatedAtoms>
  126.3306  249.0391  361.1782 H   0  0  0  0  0  0  0  0  0  0  0  0  # atno 5555 bound_to 5539
  125.5093  242.4439  361.2840 H   0  0  0  0  0  0  0  0  0  0  0  0  # atno 8337 bound_to 8307
  114.3281  245.5346  367.7144 H   0  0  0  0  0  0  0  0  0  0  0  0  # atno 8987 bound_to 8971
  121.7172  241.8770  360.5317 H   0  0  0  0  0  0  0  0  0  0  0  0  # atno 9091 bound_to 9061
  120.0152  253.6074  354.6799 H   0  0  0  0  0  0  0  0  0  0  0  0  # atno 12874 bound_to 12851
  124.2448  249.5335  346.4899 H   0  0  0  0  0  0  0  0  0  0  0  0  # atno 13435 bound_to 13409
  121.0095  252.4316  345.7240 H   0  0  0  0  0  0  0  0  0  0  0  0  # atno 13456 bound_to 13411
  120.4498  254.3478  353.2978 LP  0  0  0  0  0  0  0  0  0  0  0  0  # atno 13471 bound_to 12851
  118.9087  254.4436  353.8291 LP  0  0  0  0  0  0  0  0  0  0  0  0  # atno 13472 bound_to 12851
  124.8271  250.4877  345.3077 LP  0  0  0  0  0  0  0  0  0  0  0  0  # atno 13488 bound_to 13409
  123.5912  249.4652  345.0016 LP  0  0  0  0  0  0  0  0  0  0  0  0  # atno 13489 bound_to 13409
  127.1690  249.2338  362.5587 LP  0  0  0  0  0  0  0  0  0  0  0  0  # atno 13492 bound_to 5539
  127.7972  249.7418  361.1396 LP  0  0  0  0  0  0  0  0  0  0  0  0  # atno 13493 bound_to 5539
  122.4390  241.1078  359.2924 LP  0  0  0  0  0  0  0  0  0  0  0  0  # atno 13518 bound_to 9061
  122.4452  240.4434  360.7841 LP  0  0  0  0  0  0  0  0  0  0  0  0  # atno 13519 bound_to 9061
  115.3668  244.4348  368.3140 LP  0  0  0  0  0  0  0  0  0  0  0  0  # atno 13520 bound_to 8971
  114.2503  243.9900  367.2085 LP  0  0  0  0  0  0  0  0  0  0  0  0  # atno 13521 bound_to 8971
  124.0041  242.9564  361.6290 LP  0  0  0  0  0  0  0  0  0  0  0  0  # atno 13526 bound_to 8307
  124.2457  241.8678  360.4360 LP  0  0  0  0  0  0  0  0  0  0  0  0  # atno 13527 bound_to 8307

> <Gold.Score>
     Fitness  S(hb_ext) S(vdw_ext)  S(hb_int)    S(int)      intcor
     31.76       5.11      20.22       0.00      -1.16      -0.76

> <Gold.Goldscore.Fitness>
31.7630

> <Gold.Goldscore.Internal.Vdw>
-1.3140

> <Gold.Goldscore.Internal.Torsion>
-0.5986

> <Gold.Goldscore.External.Vdw>
20.2218

> <Gold.Goldscore.Internal.HBond>
0.0000

> <Gold.Goldscore.External.HBond>
5.1147

> <Gold.Goldscore.Internal.Correction>
-0.7558

> <Gold.Goldscore.Hbonds>
donor molecule, donor type, donor heavy atom, donor atom, acceptor molecule, acceptor atom, score
      P1  H  5563  5589       L1    11  0.18
      P1  H  5539  5555       L1    11  0.15
      L1  H     8    22       P1 13268  0.73
      L1  H    10    23       P1  5537  0.03

> <Gold.Goldscore.Internal.Vdw.Weighted>
-1.3140

> <Gold.Goldscore.Internal.Torsion.Weighted>
-0.5986

> <Gold.Goldscore.External.Vdw.Weighted>
27.8050

> <Gold.Goldscore.Internal.HBond.Weighted>
0.0000

> <Gold.Goldscore.External.HBond.Weighted>
5.1147

> <Gold.Goldscore.Internal.Correction.Weighted>
-0.7558

> <Gold.Rescore>
     Score     S(PLP)   S(hbond)     S(cho)   S(metal)  DE(clash)   DE(tors)     intcor
     23.81     -19.53       1.99       0.00       0.00       0.00       0.85       ----

> <Gold.PLP.Fitness>
23.8129

> <Gold.PLP.PLP>
-19.5286

> <Gold.PLP.part.hbond>
-2.0000

> <Gold.PLP.part.metal>
0.0000

> <Gold.PLP.part.buried>
-5.1154

> <Gold.PLP.part.nonpolar>
-15.4405

> <Gold.PLP.part.repulsive>
2.3476

> <Gold.PLP.ligand.clash>
0.0000

> <Gold.PLP.ligand.torsion>
0.8458

> <Gold.PLP.Chemscore.Hbond>
1.9920

> <Gold.PLP.Chemscore.CHOScore>
0.0000

> <Gold.PLP.Chemscore.Metal>
0.0000

> <Gold.Chemscore.Hbonds>
donor molecule, donor type, donor heavy atom, donor atom, acceptor molecule, acceptor atom, score
      L1  H     8    22       P1 13268  1.00
      P1  H  5563  5589       L1    11  0.73

> <Gold.PLP.Chemscore.Internal.Correction>
   9.000000E+99

