#       Name:                CT1002167954
#       Creating user name   hitesit
#       Creation time:       Sun Apr 16 22:51:07 2023


#       File generated by GOLD software.
#

@<TRIPOS>MOLECULE
CT1002167954|ligand_prepared|mol2|1|dock3
    29    30     1
SMALL
NO_CHARGES


@<TRIPOS>ATOM
      1 C1         122.5605 245.0804 356.3509 C.3            1 RES1               0.0000
      2 C2         122.1727 246.4206 357.0084 C.ar           1 RES1               0.0000
      3 C3         124.0578 245.1595 356.0679 C.2            1 RES1               0.0000
      4 C4         122.1717 243.9901 357.3433 C.2            1 RES1               0.0000
      5 C5         121.8232 244.8006 355.0206 C.3            1 RES1               0.0000
      6 C6         123.1449 247.2394 357.5752 C.ar           1 RES1               0.0000
      7 C7         120.8497 246.8521 357.0534 C.ar           1 RES1               0.0000
      8 N8         124.8909 244.4319 356.8656 N.am           1 RES1               0.0000
      9 O9         124.5037 245.8801 355.1835 O.2            1 RES1               0.0000
     10 N10        123.1757 243.2470 357.9068 N.am           1 RES1               0.0000
     11 O11        121.0061 243.7789 357.6550 O.2            1 RES1               0.0000
     12 C12        122.3604 243.5963 354.2635 C.3            1 RES1               0.0000
     13 C13        122.8071 248.4471 358.1630 C.ar           1 RES1               0.0000
     14 C14        120.5141 248.0602 357.6419 C.ar           1 RES1               0.0000
     15 C15        124.5197 243.4389 357.7362 C.2            1 RES1               0.0000
     16 C16        121.4918 248.8586 358.1964 C.ar           1 RES1               0.0000
     17 O17        125.3631 242.7644 358.3201 O.2            1 RES1               0.0000
     18 H18        120.7595 244.6379 355.2339 H              1 RES1               0.0000
     19 H19        121.9048 245.6864 354.3786 H              1 RES1               0.0000
     20 H20        124.1850 246.9311 357.5605 H              1 RES1               0.0000
     21 H21        120.0637 246.2399 356.6244 H              1 RES1               0.0000
     22 H22        125.8816 244.6459 356.8098 H              1 RES1               0.0000
     23 H23        122.8952 242.4797 358.5091 H              1 RES1               0.0000
     24 H24        121.8083 243.4447 353.3383 H              1 RES1               0.0000
     25 H25        123.4100 243.7350 354.0129 H              1 RES1               0.0000
     26 H26        122.2715 242.6927 354.8631 H              1 RES1               0.0000
     27 H27        123.5802 249.0712 358.5992 H              1 RES1               0.0000
     28 H28        119.4775 248.3797 357.6665 H              1 RES1               0.0000
     29 H29        121.2275 249.8049 358.6566 H              1 RES1               0.0000
@<TRIPOS>BOND
    1    1    2 1     
    2    1    3 1     
    3    1    4 1     
    4    1    5 1     
    5    2    6 ar    
    6    2    7 ar    
    7    3    8 1     
    8    3    9 2     
    9    4   10 1     
   10    4   11 2     
   11    5   12 1     
   12    5   18 1     
   13    5   19 1     
   14    6   13 ar    
   15    6   20 1     
   16    7   14 ar    
   17    7   21 1     
   18    8   15 1     
   19    8   22 1     
   20   10   15 1     
   21   10   23 1     
   22   12   24 1     
   23   12   25 1     
   24   12   26 1     
   25   13   16 ar    
   26   13   27 1     
   27   14   16 ar    
   28   14   28 1     
   29   15   17 2     
   30   16   29 1     
@<TRIPOS>SUBSTRUCTURE
      1 RES1           1
@<TRIPOS>SET
DONOR_HYDROGENS      STATIC     ATOMS    <user>   **** ""
2 22 23
ATOM$RED        STATIC     ATOMS    COLORGROUP SYSTEM
2 22 23
@<TRIPOS>COMMENT
> <Gold.Version>
2022.3.0

> <Gold.Id.Protein>
unknown|4uch_clean|pdb

> <Gold.Protein.RotatedTorsions>
[ 12874 12851 12850 12848 ] final -141.58 input   59.98 | X-H torsion
[ 13435 13409 13408 13404 ] final -152.85 input   59.99 | X-H torsion
[ 5555 5539 5538 5535 ] final   54.46 input   60.02 | X-H torsion
[ 9091 9061 9060 9058 ] final -153.87 input   59.99 | X-H torsion
[ 8987 8971 8970 8967 ] final  -45.33 input   60.01 | X-H torsion
[ 8337 8307 8306 8304 ] final  -69.50 input   59.99 | X-H torsion
[ 13456 13411 13410 13408 ] final   14.22 input   60.01 | X-H torsion

> <Gold.Protein.ActiveResidues>
 TRP311  MET341  HIS342  TRP414  ALA417  ARG419  CYS420  VAL421  GLY422  ARG423 
 SER462  ALA463  SER482  GLN483  LEU484  ILE485  ARG486  TRP566  TYR567  LEU569 
 PRO570  ALA571  VAL572  SER573  ASN574  MET575  PHE589  SER590  GLY591  TRP592 
 TYR593  MET594  GLU597  ILE598  ARG601  ASP602  ARG608  TRP683  PHE696  HIS697 
 GLU710  TYR711  GLN712  ASP714  HEM750  H4B760 

> <Gold.Protein.RotatedAtoms>
  126.2901  248.9211  361.8503 H   0  0  0  0  0  0  0  0  0  0  0  0  # atno 5555 bound_to 5539
  124.0708  241.9452  360.5002 H   0  0  0  0  0  0  0  0  0  0  0  0  # atno 8337 bound_to 8307
  114.3501  245.5428  367.7361 H   0  0  0  0  0  0  0  0  0  0  0  0  # atno 8987 bound_to 8971
  122.4942  240.3943  360.6801 H   0  0  0  0  0  0  0  0  0  0  0  0  # atno 9091 bound_to 9061
  120.2090  254.4916  353.1807 H   0  0  0  0  0  0  0  0  0  0  0  0  # atno 12874 bound_to 12851
  124.9218  250.4428  345.6855 H   0  0  0  0  0  0  0  0  0  0  0  0  # atno 13435 bound_to 13409
  121.6894  252.9442  346.1655 H   0  0  0  0  0  0  0  0  0  0  0  0  # atno 13456 bound_to 13411
  118.8750  254.2896  354.0901 LP  0  0  0  0  0  0  0  0  0  0  0  0  # atno 13471 bound_to 12851
  120.2885  253.6112  354.5467 LP  0  0  0  0  0  0  0  0  0  0  0  0  # atno 13472 bound_to 12851
  123.7829  249.7226  344.7738 LP  0  0  0  0  0  0  0  0  0  0  0  0  # atno 13488 bound_to 13409
  123.9535  249.3143  346.3457 LP  0  0  0  0  0  0  0  0  0  0  0  0  # atno 13489 bound_to 13409
  127.7277  249.5389  362.2955 LP  0  0  0  0  0  0  0  0  0  0  0  0  # atno 13492 bound_to 5539
  127.2793  249.5556  360.7254 LP  0  0  0  0  0  0  0  0  0  0  0  0  # atno 13493 bound_to 5539
  121.7208  241.8257  360.6457 LP  0  0  0  0  0  0  0  0  0  0  0  0  # atno 13518 bound_to 9061
  122.3811  241.2183  359.2813 LP  0  0  0  0  0  0  0  0  0  0  0  0  # atno 13519 bound_to 9061
  115.3649  244.4044  368.3037 LP  0  0  0  0  0  0  0  0  0  0  0  0  # atno 13520 bound_to 8971
  114.2300  244.0121  367.1970 LP  0  0  0  0  0  0  0  0  0  0  0  0  # atno 13521 bound_to 8971
  125.5246  242.3112  361.1328 LP  0  0  0  0  0  0  0  0  0  0  0  0  # atno 13526 bound_to 8307
  124.1740  243.0153  361.7216 LP  0  0  0  0  0  0  0  0  0  0  0  0  # atno 13527 bound_to 8307

> <Gold.Score>
     Fitness  S(hb_ext) S(vdw_ext)  S(hb_int)    S(int)      intcor
     38.49       7.49      23.48       0.00      -1.29      -0.78

> <Gold.Goldscore.Fitness>
38.4894

> <Gold.Goldscore.Internal.Vdw>
-1.5611

> <Gold.Goldscore.Internal.Torsion>
-0.5035

> <Gold.Goldscore.External.Vdw>
23.4838

> <Gold.Goldscore.Internal.HBond>
0.0000

> <Gold.Goldscore.External.HBond>
7.4869

> <Gold.Goldscore.Internal.Correction>
-0.7769

> <Gold.Goldscore.Hbonds>
donor molecule, donor type, donor heavy atom, donor atom, acceptor molecule, acceptor atom, score
      P1  H  9502  9538       L1    17  0.99
      L1  H    10    23       P1  9061  0.76

> <Gold.Goldscore.Internal.Vdw.Weighted>
-1.5611

> <Gold.Goldscore.Internal.Torsion.Weighted>
-0.5035

> <Gold.Goldscore.External.Vdw.Weighted>
32.2902

> <Gold.Goldscore.Internal.HBond.Weighted>
0.0000

> <Gold.Goldscore.External.HBond.Weighted>
7.4869

> <Gold.Goldscore.Internal.Correction.Weighted>
-0.7769

> <Gold.Rescore>
     Score     S(PLP)   S(hbond)     S(cho)   S(metal)  DE(clash)   DE(tors)     intcor
     24.79     -23.19       1.32       0.00       0.00       2.06       0.15       ----

> <Gold.PLP.Fitness>
24.7902

> <Gold.PLP.PLP>
-23.1927

> <Gold.PLP.part.hbond>
-4.8490

> <Gold.PLP.part.metal>
0.0000

> <Gold.PLP.part.buried>
3.9377

> <Gold.PLP.part.nonpolar>
-24.4681

> <Gold.PLP.part.repulsive>
1.9426

> <Gold.PLP.ligand.clash>
2.0605

> <Gold.PLP.ligand.torsion>
0.1545

> <Gold.PLP.Chemscore.Hbond>
1.3224

> <Gold.PLP.Chemscore.CHOScore>
0.0000

> <Gold.PLP.Chemscore.Metal>
0.0000

> <Gold.Chemscore.Hbonds>
donor molecule, donor type, donor heavy atom, donor atom, acceptor molecule, acceptor atom, score
      L1  H    10    23       P1  9061  0.21
      P1  H  9502  9538       L1    17  0.99

> <Gold.PLP.Chemscore.Internal.Correction>
   9.000000E+99

