@<TRIPOS>MOLECULE
S:GLN6
   104   105     7     0     1
SMALL
NO_CHARGES
****
Generated from the CSD

@<TRIPOS>ATOM
     1 N      127.4400 139.7250  87.6080   N.3       1 GLN6   0.0000
     2 CA     128.0360 140.1270  88.8750   C.3       1 GLN6   0.0000
     3 C      126.9760 140.2180  89.9680   C.2       1 GLN6   0.0000
     4 O      125.8110 140.4960  89.6890   O.2       1 GLN6   0.0000
     5 CB     128.7640 141.4620  88.7200   C.3       1 GLN6   0.0000
     6 CG     127.9040 142.5710  88.1380   C.3       1 GLN6   0.0000
     7 CD     128.3130 142.9500  86.7300   C.2       1 GLN6   0.0000
     8 OE1    128.5950 142.0880  85.8990   O.2       1 GLN6   0.0000
     9 NE2    128.3490 144.2490  86.4540   N.am      1 GLN6   0.0000
    10 N      127.3810 139.9790  91.2090   N.am      2 PHE7   0.0000
    11 CA     126.4330 140.0200  92.3170   C.3       2 PHE7   0.0000
    12 C      126.8350 140.9850  93.4210   C.2       2 PHE7   0.0000
    13 O      125.9540 141.6250  94.0020   O.2       2 PHE7   0.0000
    14 CB     126.2430 138.6170  92.9150   C.3       2 PHE7   0.0000
    15 CG     125.2810 138.5830  94.0680   C.ar      2 PHE7   0.0000
    16 CD1    123.9290 138.8040  93.8640   C.ar      2 PHE7   0.0000
    17 CD2    125.7300 138.3510  95.3580   C.ar      2 PHE7   0.0000
    18 CE1    123.0440 138.7940  94.9220   C.ar      2 PHE7   0.0000
    19 CE2    124.8460 138.3330  96.4190   C.ar      2 PHE7   0.0000
    20 CZ     123.5010 138.5530  96.1980   C.ar      2 PHE7   0.0000
    21 N      128.1350 141.0970  93.7210   N.am      3 PHE8   0.0000
    22 CA     128.6880 141.9360  94.7930   C.3       3 PHE8   0.0000
    23 C      128.0850 141.5860  96.1570   C.2       3 PHE8   0.0000
    24 O      127.3780 142.3790  96.7780   O.2       3 PHE8   0.0000
    25 CB     128.5190 143.4320  94.4940   C.3       3 PHE8   0.0000
    26 CG     128.9450 143.8300  93.1160   C.ar      3 PHE8   0.0000
    27 CD1    130.2600 143.6770  92.7110   C.ar      3 PHE8   0.0000
    28 CD2    128.0320 144.3730  92.2310   C.ar      3 PHE8   0.0000
    29 CE1    130.6540 144.0530  91.4420   C.ar      3 PHE8   0.0000
    30 CE2    128.4170 144.7510  90.9640   C.ar      3 PHE8   0.0000
    31 CZ     129.7300 144.5900  90.5670   C.ar      3 PHE8   0.0000
    32 N      128.3610 140.3660  96.6080   N.am      4 GLY9   0.0000
    33 CA     128.0260 139.9990  97.9670   C.3       4 GLY9   0.0000
    34 C      128.9930 140.5980  98.9690   C.2       4 GLY9   0.0000
    35 O      130.1460 140.9010  98.6640   O.2       4 GLY9   0.0000
    36 N      128.5140 140.7690 100.1980   N.am      5 LEU10   0.0000
    37 CA     129.3030 141.3880 101.2520   C.3       5 LEU10   0.0000
    38 C      129.3810 140.4680 102.4600   C.2       5 LEU10   0.0000
    39 O      128.4480 139.7130 102.7470   O.2       5 LEU10   0.0000
    40 CB     128.7180 142.7400 101.6700   C.3       5 LEU10   0.0000
    41 CG     128.7180 143.8210 100.5910   C.3       5 LEU10   0.0000
    42 CD1    128.1030 145.0950 101.1260   C.3       5 LEU10   0.0000
    43 CD2    130.1290 144.0740 100.0850   C.3       5 LEU10   0.0000
    44 N      130.5050 140.5440 103.1660   N.am      6 MET11   0.0000
    45 CA     130.7320 139.7250 104.3510   C.3       6 MET11   0.0000
    46 C      129.8390 140.1700 105.5000   C.2       6 MET11   0.0000
    47 O      129.7210 139.4830 106.5130   O.2       6 MET11   0.0000
    48 CB     132.2000 139.7890 104.7720   C.3       6 MET11   0.0000
    49 CG     133.0800 138.7460 104.1140   C.3       6 MET11   0.0000
    50 SD     134.7040 138.6130 104.8800   S.3       6 MET11   0.0000
    51 CE     135.6130 137.7580 103.5980   C.3       6 MET11   0.0000
    52 N      129.1830 141.3210 105.3910   N.am      7 NH212   0.0000
    53 H1     131.2279 141.1925 102.8709   H         6 MET11   0.0000
    54 H2     128.6796 145.4454 101.9808   H         5 LEU10   0.0000
    55 H3     128.1095 145.8561 100.3472   H         5 LEU10   0.0000
    56 H4     127.0770 144.9008 101.4352   H         5 LEU10   0.0000
    57 H5     126.7421 140.4078  87.3307   H         1 GLN6   0.0000
    58 H6     128.1619 139.6710  86.8966   H         1 GLN6   0.0000
    59 H7     130.3123 141.5504 100.8768   H         5 LEU10   0.0000
    60 H8     128.0542 138.9140  98.0558   H         4 GLY9   0.0000
    61 H9     127.0216 140.3555  98.1906   H         4 GLY9   0.0000
    62 H10    128.8081 139.6900  95.9970   H         4 GLY9   0.0000
    63 H11    127.5704 140.4586 100.4066   H         5 LEU10   0.0000
    64 H12    130.5335 143.1552  99.6630   H         5 LEU10   0.0000
    65 H13    130.1065 144.8466  99.3179   H         5 LEU10   0.0000
    66 H14    130.7578 144.4015 100.9116   H         5 LEU10   0.0000
    67 H15    127.9913 143.4501  88.7747   H         1 GLN6   0.0000
    68 H16    126.8679 142.2362  88.1216   H         1 GLN6   0.0000
    69 H17    128.1119 143.4721  99.7562   H         5 LEU10   0.0000
    70 H18    122.8019 138.5359  97.0328   H         2 PHE7   0.0000
    71 H19    126.9958 144.5034  92.5396   H         3 PHE8   0.0000
    72 H20    130.9908 143.2560  93.3999   H         3 PHE8   0.0000
    73 H21    133.2110 139.0131 103.0664   H         6 MET11   0.0000
    74 H22    132.5834 137.7793 104.1828   H         6 MET11   0.0000
    75 H23    132.2525 139.6490 105.8507   H         6 MET11   0.0000
    76 H24    132.5867 140.7739 104.5145   H         6 MET11   0.0000
    77 H25    125.4723 140.3469  91.9219   H         2 PHE7   0.0000
    78 H26    128.7909 140.5594  93.1634   H         3 PHE8   0.0000
    79 H27    129.7566 141.7331  94.8473   H         3 PHE8   0.0000
    80 H28    130.0365 144.8862  89.5649   H         3 PHE8   0.0000
    81 H29    128.6160 144.5636  85.5267   H         1 GLN6   0.0000
    82 H30    128.1095 144.9269  87.1705   H         1 GLN6   0.0000
    83 H31    129.1145 143.9939  95.2120   H         3 PHE8   0.0000
    84 H32    127.4675 143.6885  94.6147   H         3 PHE8   0.0000
    85 H33    128.5821 141.6362 106.1459   H         7 NH212   0.0000
    86 H34    129.2830 141.8847 104.5529   H         7 NH212   0.0000
    87 H35    135.6081 138.3569 102.6885   H         6 MET11   0.0000
    88 H36    136.6402 137.6016 103.9241   H         6 MET11   0.0000
    89 H37    135.1440 136.7951 103.4011   H         6 MET11   0.0000
    90 H38    127.2101 138.2563  93.2621   H         2 PHE7   0.0000
    91 H39    125.8685 137.9571  92.1339   H         2 PHE7   0.0000
    92 H40    121.9846 138.9766  94.7480   H         2 PHE7   0.0000
    93 H41    129.2981 143.1094 102.5144   H         5 LEU10   0.0000
    94 H42    127.6872 142.5772 101.9812   H         5 LEU10   0.0000
    95 H43    131.6903 143.9265  91.1320   H         3 PHE8   0.0000
    96 H44    125.2093 138.1456  97.4284   H         2 PHE7   0.0000
    97 H45    130.4890 138.6919 104.1068   H         6 MET11   0.0000
    98 H46    128.7642 139.3714  89.1661   H         1 GLN6   0.0000
    99 H47    129.6193 141.3113  88.0630   H         1 GLN6   0.0000
   100 H48    129.1121 141.7783  89.7022   H         1 GLN6   0.0000
   101 H49    127.6874 145.1761  90.2763   H         3 PHE8   0.0000
   102 H50    126.7906 138.1811  95.5372   H         2 PHE7   0.0000
   103 H51    123.5602 138.9879  92.8560   H         2 PHE7   0.0000
   104 H52    128.3571 139.7662  91.3884   H         2 PHE7   0.0000
@<TRIPOS>BOND
     1     1     2    1
     2     2     3    1
     3     3     4    2
     4     2     5    1
     5     5     6    1
     6     6     7    1
     7     7     8    2
     8     7     9   am
     9     3    10   am
    10    10    11    1
    11    11    12    1
    12    12    13    2
    13    11    14    1
    14    14    15    1
    15    15    16   ar
    16    15    17   ar
    17    16    18   ar
    18    17    19   ar
    19    18    20   ar
    20    19    20   ar
    21    12    21   am
    22    21    22    1
    23    22    23    1
    24    23    24    2
    25    22    25    1
    26    25    26    1
    27    26    27   ar
    28    26    28   ar
    29    27    29   ar
    30    28    30   ar
    31    29    31   ar
    32    30    31   ar
    33    23    32   am
    34    32    33    1
    35    33    34    1
    36    34    35    2
    37    34    36   am
    38    36    37    1
    39    37    38    1
    40    38    39    2
    41    37    40    1
    42    40    41    1
    43    41    42    1
    44    41    43    1
    45    38    44   am
    46    44    45    1
    47    45    46    1
    48    46    47    2
    49    45    48    1
    50    48    49    1
    51    49    50    1
    52    50    51    1
    53    46    52   am
    54    44    53    1
    55    42    54    1
    56    42    55    1
    57    42    56    1
    58     1    57    1
    59     1    58    1
    60    37    59    1
    61    33    60    1
    62    33    61    1
    63    32    62    1
    64    36    63    1
    65    43    64    1
    66    43    65    1
    67    43    66    1
    68     6    67    1
    69     6    68    1
    70    41    69    1
    71    20    70    1
    72    28    71    1
    73    27    72    1
    74    49    73    1
    75    49    74    1
    76    48    75    1
    77    48    76    1
    78    11    77    1
    79    21    78    1
    80    22    79    1
    81    31    80    1
    82     9    81    1
    83     9    82    1
    84    25    83    1
    85    25    84    1
    86    52    85    1
    87    52    86    1
    88    51    87    1
    89    51    88    1
    90    51    89    1
    91    14    90    1
    92    14    91    1
    93    18    92    1
    94    40    93    1
    95    40    94    1
    96    29    95    1
    97    19    96    1
    98    45    97    1
    99     2    98    1
   100     5    99    1
   101     5   100    1
   102    30   101    1
   103    17   102    1
   104    16   103    1
   105    10   104    1
@<TRIPOS>SUBSTRUCTURE
     1 GLN6        1 GROUP             0 S     GLN     0  
     2 PHE7       10 GROUP             0 S     PHE     0  
     3 PHE8       21 GROUP             0 S     PHE     0  
     4 GLY9       32 GROUP             0 S     GLY     0  
     5 LEU10      36 GROUP             0 S     LEU     0  
     6 MET11      44 GROUP             0 S     MET     0  
     7 NH212      52 GROUP             0 S     NH2     0  
@<TRIPOS>SET
CCDC_LIGAND STATIC ATOMS
104 1 2 3 4 5 6 7 8 9 \
10 11 12 13 14 15 16 17 18 19 \
20 21 22 23 24 25 26 27 28 29 \
30 31 32 33 34 35 36 37 38 39 \
40 41 42 43 44 45 46 47 48 49 \
50 51 52 53 54 55 56 57 58 59 \
60 61 62 63 64 65 66 67 68 69 \
70 71 72 73 74 75 76 77 78 79 \
80 81 82 83 84 85 86 87 88 89 \
90 91 92 93 94 95 96 97 98 99 \
100 101 102 103 104 
