#       Name:                CT1002167954
#       Creating user name   hitesit
#       Creation time:       Sun Apr 16 23:01:26 2023


#       File generated by GOLD software.
#

@<TRIPOS>MOLECULE
CT1002167954|ligand_prepared|mol2|1|dock3
    29    30     1
SMALL
NO_CHARGES


@<TRIPOS>ATOM
      1 C1         230.1913  41.7133  10.7516 C.3            1 RES1               0.0000
      2 C2         230.1945  42.7318   9.5935 C.ar           1 RES1               0.0000
      3 C3         230.5244  42.5007  12.0155 C.2            1 RES1               0.0000
      4 C4         228.8039  41.0811  10.7600 C.2            1 RES1               0.0000
      5 C5         231.2316  40.5805  10.5902 C.3            1 RES1               0.0000
      6 C6         229.5239  43.9452   9.7151 C.ar           1 RES1               0.0000
      7 C7         230.8645  42.4738   8.4005 C.ar           1 RES1               0.0000
      8 N8         229.5102  42.7434  12.8944 N.am           1 RES1               0.0000
      9 O9         231.6511  42.9360  12.2189 O.2            1 RES1               0.0000
     10 N10        227.9971  41.3176  11.8421 N.am           1 RES1               0.0000
     11 O11        228.3959  40.3939   9.8318 O.2            1 RES1               0.0000
     12 C12        231.3431  39.6727  11.8050 C.3            1 RES1               0.0000
     13 C13        229.5255  44.8685   8.6827 C.ar           1 RES1               0.0000
     14 C14        230.8646  43.3985   7.3693 C.ar           1 RES1               0.0000
     15 C15        228.2758  42.1452  12.8955 C.2            1 RES1               0.0000
     16 C16        230.1961  44.5961   7.5094 C.ar           1 RES1               0.0000
     17 O17        227.4767  42.3498  13.8047 O.2            1 RES1               0.0000
     18 H18        230.9591  39.9723   9.7188 H              1 RES1               0.0000
     19 H19        232.2135  41.0282  10.3928 H              1 RES1               0.0000
     20 H20        228.9885  44.1761  10.6300 H              1 RES1               0.0000
     21 H21        231.3963  41.5378   8.2676 H              1 RES1               0.0000
     22 H22        229.6858  43.4337  13.6176 H              1 RES1               0.0000
     23 H23        227.1062  40.8316  11.8644 H              1 RES1               0.0000
     24 H24        232.0863  38.8957  11.6390 H              1 RES1               0.0000
     25 H25        231.6373  40.2406  12.6852 H              1 RES1               0.0000
     26 H26        230.3903  39.1910  12.0153 H              1 RES1               0.0000
     27 H27        228.9966  45.8090   8.7975 H              1 RES1               0.0000
     28 H28        231.3933  43.1796   6.4474 H              1 RES1               0.0000
     29 H29        230.1975  45.3197   6.7010 H              1 RES1               0.0000
@<TRIPOS>BOND
    1    1    2 1     
    2    1    3 1     
    3    1    4 1     
    4    1    5 1     
    5    2    6 ar    
    6    2    7 ar    
    7    3    8 1     
    8    3    9 2     
    9    4   10 1     
   10    4   11 2     
   11    5   12 1     
   12    5   18 1     
   13    5   19 1     
   14    6   13 ar    
   15    6   20 1     
   16    7   14 ar    
   17    7   21 1     
   18    8   15 1     
   19    8   22 1     
   20   10   15 1     
   21   10   23 1     
   22   12   24 1     
   23   12   25 1     
   24   12   26 1     
   25   13   16 ar    
   26   13   27 1     
   27   14   16 ar    
   28   14   28 1     
   29   15   17 2     
   30   16   29 1     
@<TRIPOS>SUBSTRUCTURE
      1 RES1           1
@<TRIPOS>SET
DONOR_HYDROGENS      STATIC     ATOMS    <user>   **** ""
2 22 23
ATOM$RED        STATIC     ATOMS    COLORGROUP SYSTEM
2 22 23
@<TRIPOS>COMMENT
> <Gold.Version>
2022.3.0

> <Gold.Id.Protein>
unknown|4v3u_clean|pdb

> <Gold.Protein.RotatedTorsions>
[ 6579 6563 6564 6565 ] final -103.83 input  113.83 | X-H torsion
[ 6671 6647 6648 6649 ] final  145.06 input  129.80 | X-H torsion
[ 8031 8015 8016 8017 ] final  -10.55 input   49.80 | X-H torsion
[ 8111 8093 8094 8095 ] final  -22.26 input   98.11 | X-H torsion
[ 8171 8157 8158 8159 ] final  -12.11 input   64.44 | X-H torsion
[ 8251 8229 8230 8231 ] final  102.14 input   84.12 | X-H torsion
[ 9566 9530 9529 9527 ] final -108.21 input   60.01 | X-H torsion
[ 8319 8303 8304 8305 ] final  -23.49 input  100.38 | X-H torsion
[ 10191 10175 10176 10177 ] final   78.65 input   40.16 | X-H torsion
[ 7948 7929 7930 7931 ] final -152.33 input   72.92 | X-H torsion
[ 7895 7879 7880 7881 ] final   65.38 input   93.72 | X-H torsion
[ 7899 7884 7883 7880 ] final -112.78 input   60.02 | X-H torsion
[ 6811 6793 6794 6795 ] final -134.17 input  121.38 | X-H torsion
[ 27200 6326 6325 6324 ] final  -84.29 input    0.00 | X-H torsion
[ 27203 6566 6565 6564 ] final  -17.70 input   -0.00 | X-H torsion
[ 27206 7882 7881 7880 ] final  -58.69 input   -0.00 | X-H torsion
[ 27208 7932 7931 7930 ] final    7.52 input    0.00 | X-H torsion
[ 27211 8018 8017 8016 ] final -132.75 input    0.00 | X-H torsion
[ 27214 8096 8095 8094 ] final  -78.96 input   -0.00 | X-H torsion
[ 27217 8160 8159 8158 ] final   82.01 input    0.00 | X-H torsion
[ 27222 10090 10089 10088 ] final   65.99 input    0.00 | X-H torsion
[ 27224 10178 10177 10176 ] final  -30.90 input   -0.00 | X-H torsion
[ 27229 7724 7723 7722 ] final   11.45 input    0.00 | X-H torsion
[ 27231 7802 7801 7800 ] final -123.48 input    0.00 | X-H torsion

> <Gold.Protein.ActiveResidues>
 ASP403  THR404  ILE407  TYR408  ALA410  LYS411  TRP414  GLN425  TRP426  SER427 
 LYS428  LEU429  GLN430  VAL431  PHE432  ASP433  TYR453  SER462  ALA463  ILE464 

> <Gold.Protein.RotatedAtoms>
  217.3734   41.0736   18.2718 H   0  0  0  0  0  0  0  0  0  0  0  0  # atno 6579 bound_to 6563
  219.4702   43.1352   20.4465 H   0  0  0  0  0  0  0  0  0  0  0  0  # atno 6671 bound_to 6647
  222.0856   37.7162   19.0618 H   0  0  0  0  0  0  0  0  0  0  0  0  # atno 6811 bound_to 6793
  230.7699   39.6262   19.5815 H   0  0  0  0  0  0  0  0  0  0  0  0  # atno 7895 bound_to 7879
  231.5969   42.0663   20.7579 H   0  0  0  0  0  0  0  0  0  0  0  0  # atno 7899 bound_to 7884
  229.8792   41.4881   17.9002 H   0  0  0  0  0  0  0  0  0  0  0  0  # atno 7948 bound_to 7929
  227.5579   41.2220   14.7881 H   0  0  0  0  0  0  0  0  0  0  0  0  # atno 8031 bound_to 8015
  225.2329   39.2534   13.2416 H   0  0  0  0  0  0  0  0  0  0  0  0  # atno 8111 bound_to 8093
  222.2759   40.8948   11.2173 H   0  0  0  0  0  0  0  0  0  0  0  0  # atno 8171 bound_to 8157
  219.8842   38.4883   10.6367 H   0  0  0  0  0  0  0  0  0  0  0  0  # atno 8251 bound_to 8229
  216.2998   39.6568    9.8142 H   0  0  0  0  0  0  0  0  0  0  0  0  # atno 8319 bound_to 8303
  228.3628   41.2744    7.8810 H   0  0  0  0  0  0  0  0  0  0  0  0  # atno 9566 bound_to 9530
  222.8637   36.5212   11.9335 H   0  0  0  0  0  0  0  0  0  0  0  0  # atno 10191 bound_to 10175
  215.9426   43.4041   18.4951 LP  0  0  0  0  0  0  0  0  0  0  0  0  # atno 27200 bound_to 6326
  216.9204   44.2339   17.3309 LP  0  0  0  0  0  0  0  0  0  0  0  0  # atno 27201 bound_to 6326
  217.5553   42.6340   19.0391 LP  0  0  0  0  0  0  0  0  0  0  0  0  # atno 27202 bound_to 6563
  220.9976   39.8728   18.8034 LP  0  0  0  0  0  0  0  0  0  0  0  0  # atno 27203 bound_to 6566
  221.7109   40.5253   20.2406 LP  0  0  0  0  0  0  0  0  0  0  0  0  # atno 27204 bound_to 6566
  219.9298   41.5581   19.8500 LP  0  0  0  0  0  0  0  0  0  0  0  0  # atno 27205 bound_to 6647
  227.4922   42.5859   17.9851 LP  0  0  0  0  0  0  0  0  0  0  0  0  # atno 27206 bound_to 7882
  228.9737   43.2735   17.4085 LP  0  0  0  0  0  0  0  0  0  0  0  0  # atno 27207 bound_to 7882
  230.3765   39.0029   14.4641 LP  0  0  0  0  0  0  0  0  0  0  0  0  # atno 27208 bound_to 7932
  228.8291   38.5864   13.8067 LP  0  0  0  0  0  0  0  0  0  0  0  0  # atno 27209 bound_to 7932
  228.2059   39.9535   15.8056 LP  0  0  0  0  0  0  0  0  0  0  0  0  # atno 27210 bound_to 8015
  224.0040   41.1065   14.0492 LP  0  0  0  0  0  0  0  0  0  0  0  0  # atno 27211 bound_to 8018
  225.4614   41.7208   14.7552 LP  0  0  0  0  0  0  0  0  0  0  0  0  # atno 27212 bound_to 8018
  226.4633   39.8480   12.1572 LP  0  0  0  0  0  0  0  0  0  0  0  0  # atno 27213 bound_to 8093
  222.9943   37.9960   10.9306 LP  0  0  0  0  0  0  0  0  0  0  0  0  # atno 27214 bound_to 8096
  223.0282   37.9415   12.6615 LP  0  0  0  0  0  0  0  0  0  0  0  0  # atno 27215 bound_to 8096
  222.8594   40.4800   12.8112 LP  0  0  0  0  0  0  0  0  0  0  0  0  # atno 27216 bound_to 8157
  219.9629   42.1267   10.7332 LP  0  0  0  0  0  0  0  0  0  0  0  0  # atno 27217 bound_to 8160
  218.5721   41.8174   11.7180 LP  0  0  0  0  0  0  0  0  0  0  0  0  # atno 27218 bound_to 8160
  219.4776   39.9904   11.4301 LP  0  0  0  0  0  0  0  0  0  0  0  0  # atno 27219 bound_to 8229
  226.9683   41.5633    8.6684 LP  0  0  0  0  0  0  0  0  0  0  0  0  # atno 27220 bound_to 9530
  227.4964   42.6059    7.5280 LP  0  0  0  0  0  0  0  0  0  0  0  0  # atno 27221 bound_to 9530
  227.4547   38.2059   10.0977 LP  0  0  0  0  0  0  0  0  0  0  0  0  # atno 27222 bound_to 10090
  226.5848   38.1334   11.5937 LP  0  0  0  0  0  0  0  0  0  0  0  0  # atno 27223 bound_to 10090
  220.6251   37.2889   11.7330 LP  0  0  0  0  0  0  0  0  0  0  0  0  # atno 27224 bound_to 10178
  219.6742   37.0363   10.3075 LP  0  0  0  0  0  0  0  0  0  0  0  0  # atno 27225 bound_to 10178
  216.7877   40.8119   11.0378 LP  0  0  0  0  0  0  0  0  0  0  0  0  # atno 27226 bound_to 8303
  223.3084   35.3157   10.7442 LP  0  0  0  0  0  0  0  0  0  0  0  0  # atno 27227 bound_to 10175
  229.6101   39.8044   17.5105 LP  0  0  0  0  0  0  0  0  0  0  0  0  # atno 27228 bound_to 7929
  231.3226   38.1096   16.4812 LP  0  0  0  0  0  0  0  0  0  0  0  0  # atno 27229 bound_to 7724
  230.1291   38.4521   17.6888 LP  0  0  0  0  0  0  0  0  0  0  0  0  # atno 27230 bound_to 7724
  227.7058   38.9934   18.2919 LP  0  0  0  0  0  0  0  0  0  0  0  0  # atno 27231 bound_to 7802
  227.2498   38.0739   19.6871 LP  0  0  0  0  0  0  0  0  0  0  0  0  # atno 27232 bound_to 7802
  229.2587   38.8702   20.0093 LP  0  0  0  0  0  0  0  0  0  0  0  0  # atno 27233 bound_to 7879
  230.9950   43.3631   19.9810 LP  0  0  0  0  0  0  0  0  0  0  0  0  # atno 27234 bound_to 7884
  231.1325   41.9334   19.2041 LP  0  0  0  0  0  0  0  0  0  0  0  0  # atno 27235 bound_to 7884

> <Gold.Score>
     Fitness  S(hb_ext) S(vdw_ext)  S(hb_int)    S(int)      intcor
     33.56       5.41      20.53       0.00      -0.08      -0.76

> <Gold.Goldscore.Fitness>
33.5593

> <Gold.Goldscore.Internal.Vdw>
-0.3961

> <Gold.Goldscore.Internal.Torsion>
-0.4446

> <Gold.Goldscore.External.Vdw>
20.5285

> <Gold.Goldscore.Internal.HBond>
0.0000

> <Gold.Goldscore.External.HBond>
5.4085

> <Gold.Goldscore.Internal.Correction>
-0.7650

> <Gold.Goldscore.Hbonds>
donor molecule, donor type, donor heavy atom, donor atom, acceptor molecule, acceptor atom, score
      P1  H  8015  8031       L1    17  0.09
      L1  H    10    23       P1  8093  0.87

> <Gold.Goldscore.Internal.Vdw.Weighted>
-0.3961

> <Gold.Goldscore.Internal.Torsion.Weighted>
-0.4446

> <Gold.Goldscore.External.Vdw.Weighted>
28.2266

> <Gold.Goldscore.Internal.HBond.Weighted>
0.0000

> <Gold.Goldscore.External.HBond.Weighted>
5.4085

> <Gold.Goldscore.Internal.Correction.Weighted>
-0.7650

> <Gold.Rescore>
     Score     S(PLP)   S(hbond)     S(cho)   S(metal)  DE(clash)   DE(tors)     intcor
     31.23     -26.52       1.71       0.00       0.00       0.00       0.21       ----

> <Gold.PLP.Fitness>
31.2276

> <Gold.PLP.PLP>
-26.5241

> <Gold.PLP.part.hbond>
-1.8701

> <Gold.PLP.part.metal>
0.0000

> <Gold.PLP.part.buried>
-6.1212

> <Gold.PLP.part.nonpolar>
-18.8757

> <Gold.PLP.part.repulsive>
0.2996

> <Gold.PLP.ligand.clash>
0.0000

> <Gold.PLP.ligand.torsion>
0.2136

> <Gold.PLP.Chemscore.Hbond>
1.7103

> <Gold.PLP.Chemscore.CHOScore>
0.0000

> <Gold.PLP.Chemscore.Metal>
0.0000

> <Gold.Chemscore.Hbonds>
donor molecule, donor type, donor heavy atom, donor atom, acceptor molecule, acceptor atom, score
      L1  H    10    23       P1  8093  1.00
      P1  H  8015  8031       L1    17  0.75
      P1  H  9530  9566       L1    11  0.07

> <Gold.PLP.Chemscore.Internal.Correction>
   9.000000E+99

#       Name:                CT1002167954
#       Creating user name   hitesit
#       Creation time:       Sun Apr 16 23:01:25 2023


#       File generated by GOLD software.
#

@<TRIPOS>MOLECULE
CT1002167954|ligand_prepared|mol2|1|dock1
    29    30     1
SMALL
NO_CHARGES


@<TRIPOS>ATOM
      1 C1         229.1495  43.5108  11.8866 C.3            1 RES1               0.0000
      2 C2         229.8052  42.1631  11.5227 C.ar           1 RES1               0.0000
      3 C3         227.8902  43.6193  11.0318 C.2            1 RES1               0.0000
      4 C4         228.8809  43.4632  13.3867 C.2            1 RES1               0.0000
      5 C5         230.0449  44.7388  11.6003 C.3            1 RES1               0.0000
      6 C6         229.1491  40.9632  11.7807 C.ar           1 RES1               0.0000
      7 C7         231.0623  42.1038  10.9271 C.ar           1 RES1               0.0000
      8 N8         226.6886  43.4414  11.6517 N.am           1 RES1               0.0000
      9 O9         227.9524  43.8186   9.8249 O.2            1 RES1               0.0000
     10 N10        227.5763  43.4683  13.8059 N.am           1 RES1               0.0000
     11 O11        229.7870  43.4047  14.2089 O.2            1 RES1               0.0000
     12 C12        229.4275  46.0608  12.0283 C.3            1 RES1               0.0000
     13 C13        229.7273  39.7482  11.4526 C.ar           1 RES1               0.0000
     14 C14        231.6389  40.8877  10.6000 C.ar           1 RES1               0.0000
     15 C15        226.4676  43.4242  13.0054 C.2            1 RES1               0.0000
     16 C16        230.9723  39.7096  10.8617 C.ar           1 RES1               0.0000
     17 O17        225.3273  43.3759  13.4576 O.2            1 RES1               0.0000
     18 H18        231.0000  44.6091  12.1239 H              1 RES1               0.0000
     19 H19        230.2551  44.7792  10.5244 H              1 RES1               0.0000
     20 H20        228.1697  40.9737  12.2474 H              1 RES1               0.0000
     21 H21        231.6057  43.0179  10.7130 H              1 RES1               0.0000
     22 H22        225.8794  43.3087  11.0533 H              1 RES1               0.0000
     23 H23        227.4170  43.5088  14.8076 H              1 RES1               0.0000
     24 H24        230.0965  46.8892  11.8048 H              1 RES1               0.0000
     25 H25        228.4879  46.2343  11.5079 H              1 RES1               0.0000
     26 H26        229.2284  46.0652  13.0979 H              1 RES1               0.0000
     27 H27        229.1991  38.8239  11.6619 H              1 RES1               0.0000
     28 H28        232.6192  40.8620  10.1356 H              1 RES1               0.0000
     29 H29        231.4249  38.7577  10.6043 H              1 RES1               0.0000
@<TRIPOS>BOND
    1    1    2 1     
    2    1    3 1     
    3    1    4 1     
    4    1    5 1     
    5    2    6 ar    
    6    2    7 ar    
    7    3    8 1     
    8    3    9 2     
    9    4   10 1     
   10    4   11 2     
   11    5   12 1     
   12    5   18 1     
   13    5   19 1     
   14    6   13 ar    
   15    6   20 1     
   16    7   14 ar    
   17    7   21 1     
   18    8   15 1     
   19    8   22 1     
   20   10   15 1     
   21   10   23 1     
   22   12   24 1     
   23   12   25 1     
   24   12   26 1     
   25   13   16 ar    
   26   13   27 1     
   27   14   16 ar    
   28   14   28 1     
   29   15   17 2     
   30   16   29 1     
@<TRIPOS>SUBSTRUCTURE
      1 RES1           1
@<TRIPOS>SET
DONOR_HYDROGENS      STATIC     ATOMS    <user>   **** ""
2 22 23
ATOM$RED        STATIC     ATOMS    COLORGROUP SYSTEM
2 22 23
@<TRIPOS>COMMENT
> <Gold.Version>
2022.3.0

> <Gold.Id.Protein>
unknown|4v3u_clean|pdb

> <Gold.Protein.RotatedTorsions>
[ 6579 6563 6564 6565 ] final   39.35 input  113.83 | X-H torsion
[ 6671 6647 6648 6649 ] final   64.51 input  129.80 | X-H torsion
[ 8031 8015 8016 8017 ] final   25.17 input   49.80 | X-H torsion
[ 8111 8093 8094 8095 ] final  -81.67 input   98.11 | X-H torsion
[ 8171 8157 8158 8159 ] final   76.18 input   64.44 | X-H torsion
[ 8251 8229 8230 8231 ] final -146.90 input   84.12 | X-H torsion
[ 9566 9530 9529 9527 ] final    8.08 input   60.01 | X-H torsion
[ 8319 8303 8304 8305 ] final   70.94 input  100.38 | X-H torsion
[ 10191 10175 10176 10177 ] final -163.12 input   40.16 | X-H torsion
[ 7948 7929 7930 7931 ] final  -71.95 input   72.92 | X-H torsion
[ 7895 7879 7880 7881 ] final   -3.51 input   93.72 | X-H torsion
[ 7899 7884 7883 7880 ] final    8.23 input   60.02 | X-H torsion
[ 6811 6793 6794 6795 ] final -156.22 input  121.38 | X-H torsion
[ 27200 6326 6325 6324 ] final -145.31 input    0.00 | X-H torsion
[ 27203 6566 6565 6564 ] final -127.00 input   -0.00 | X-H torsion
[ 27206 7882 7881 7880 ] final  -41.96 input   -0.00 | X-H torsion
[ 27208 7932 7931 7930 ] final   78.01 input    0.00 | X-H torsion
[ 27211 8018 8017 8016 ] final  160.32 input    0.00 | X-H torsion
[ 27214 8096 8095 8094 ] final   96.71 input   -0.00 | X-H torsion
[ 27217 8160 8159 8158 ] final  -76.74 input    0.00 | X-H torsion
[ 27222 10090 10089 10088 ] final   97.52 input    0.00 | X-H torsion
[ 27224 10178 10177 10176 ] final    2.75 input   -0.00 | X-H torsion
[ 27229 7724 7723 7722 ] final  117.37 input    0.00 | X-H torsion
[ 27231 7802 7801 7800 ] final   86.82 input    0.00 | X-H torsion

> <Gold.Protein.ActiveResidues>
 ASP403  THR404  ILE407  TYR408  ALA410  LYS411  TRP414  GLN425  TRP426  SER427 
 LYS428  LEU429  GLN430  VAL431  PHE432  ASP433  TYR453  SER462  ALA463  ILE464 

> <Gold.Protein.RotatedAtoms>
  217.6441   42.2576   19.4340 H   0  0  0  0  0  0  0  0  0  0  0  0  # atno 6579 bound_to 6563
  218.8990   42.1454   20.4588 H   0  0  0  0  0  0  0  0  0  0  0  0  # atno 6671 bound_to 6647
  222.0538   38.0533   19.0426 H   0  0  0  0  0  0  0  0  0  0  0  0  # atno 6811 bound_to 6793
  230.1542   39.1995   18.9342 H   0  0  0  0  0  0  0  0  0  0  0  0  # atno 7895 bound_to 7879
  231.1253   41.9499   19.2025 H   0  0  0  0  0  0  0  0  0  0  0  0  # atno 7899 bound_to 7884
  228.9014   40.9083   17.7646 H   0  0  0  0  0  0  0  0  0  0  0  0  # atno 7948 bound_to 7929
  227.2706   41.2163   15.2519 H   0  0  0  0  0  0  0  0  0  0  0  0  # atno 8031 bound_to 8015
  225.5975   40.0301   13.3873 H   0  0  0  0  0  0  0  0  0  0  0  0  # atno 8111 bound_to 8093
  222.3015   41.4796   12.2996 H   0  0  0  0  0  0  0  0  0  0  0  0  # atno 8171 bound_to 8157
  220.1237   39.9219   10.6830 H   0  0  0  0  0  0  0  0  0  0  0  0  # atno 8251 bound_to 8229
  216.2422   40.9542    9.9893 H   0  0  0  0  0  0  0  0  0  0  0  0  # atno 8319 bound_to 8303
  227.5481   42.5865    7.5015 H   0  0  0  0  0  0  0  0  0  0  0  0  # atno 9566 bound_to 9530
  223.6234   35.2415   11.5833 H   0  0  0  0  0  0  0  0  0  0  0  0  # atno 10191 bound_to 10175
  216.6151   43.9076   18.7547 LP  0  0  0  0  0  0  0  0  0  0  0  0  # atno 27200 bound_to 6326
  216.2479   43.7303   17.0713 LP  0  0  0  0  0  0  0  0  0  0  0  0  # atno 27201 bound_to 6326
  217.2918   41.4813   17.9076 LP  0  0  0  0  0  0  0  0  0  0  0  0  # atno 27202 bound_to 6563
  220.9677   39.8535   20.2157 LP  0  0  0  0  0  0  0  0  0  0  0  0  # atno 27203 bound_to 6566
  221.7408   40.5446   18.8283 LP  0  0  0  0  0  0  0  0  0  0  0  0  # atno 27204 bound_to 6566
  220.4879   42.5251   19.8380 LP  0  0  0  0  0  0  0  0  0  0  0  0  # atno 27205 bound_to 6647
  227.5696   42.6919   18.2002 LP  0  0  0  0  0  0  0  0  0  0  0  0  # atno 27206 bound_to 7882
  228.8963   43.1675   17.1934 LP  0  0  0  0  0  0  0  0  0  0  0  0  # atno 27207 bound_to 7882
  229.7299   38.3599   14.8735 LP  0  0  0  0  0  0  0  0  0  0  0  0  # atno 27208 bound_to 7932
  229.4756   39.2294   13.3973 LP  0  0  0  0  0  0  0  0  0  0  0  0  # atno 27209 bound_to 7932
  228.4840   39.9591   15.3567 LP  0  0  0  0  0  0  0  0  0  0  0  0  # atno 27210 bound_to 8015
  224.5733   41.7388   13.6155 LP  0  0  0  0  0  0  0  0  0  0  0  0  # atno 27211 bound_to 8018
  224.8921   41.0885   15.1889 LP  0  0  0  0  0  0  0  0  0  0  0  0  # atno 27212 bound_to 8018
  226.1035   39.0818   12.0134 LP  0  0  0  0  0  0  0  0  0  0  0  0  # atno 27213 bound_to 8093
  223.0933   37.9365   12.6576 LP  0  0  0  0  0  0  0  0  0  0  0  0  # atno 27214 bound_to 8096
  222.9292   38.0009   10.9345 LP  0  0  0  0  0  0  0  0  0  0  0  0  # atno 27215 bound_to 8096
  222.8344   39.9080   11.7528 LP  0  0  0  0  0  0  0  0  0  0  0  0  # atno 27216 bound_to 8157
  218.7818   41.9104   11.9400 LP  0  0  0  0  0  0  0  0  0  0  0  0  # atno 27217 bound_to 8160
  219.7532   42.0336   10.5112 LP  0  0  0  0  0  0  0  0  0  0  0  0  # atno 27218 bound_to 8160
  219.2431   38.5865   11.3847 LP  0  0  0  0  0  0  0  0  0  0  0  0  # atno 27219 bound_to 8229
  228.3481   41.2342    7.9247 LP  0  0  0  0  0  0  0  0  0  0  0  0  # atno 27220 bound_to 9530
  226.9371   41.6136    8.6539 LP  0  0  0  0  0  0  0  0  0  0  0  0  # atno 27221 bound_to 9530
  227.0031   38.1442    9.9802 LP  0  0  0  0  0  0  0  0  0  0  0  0  # atno 27222 bound_to 10090
  227.0364   38.1951   11.7111 LP  0  0  0  0  0  0  0  0  0  0  0  0  # atno 27223 bound_to 10090
  220.9444   37.2711   11.3468 LP  0  0  0  0  0  0  0  0  0  0  0  0  # atno 27224 bound_to 10178
  219.3549   37.0542   10.6937 LP  0  0  0  0  0  0  0  0  0  0  0  0  # atno 27225 bound_to 10178
  216.8432   39.5637   10.8694 LP  0  0  0  0  0  0  0  0  0  0  0  0  # atno 27226 bound_to 8303
  222.5750   36.5511   11.0822 LP  0  0  0  0  0  0  0  0  0  0  0  0  # atno 27227 bound_to 10175
  230.5604   40.3679   17.6423 LP  0  0  0  0  0  0  0  0  0  0  0  0  # atno 27228 bound_to 7929
  230.1898   37.6007   17.0887 LP  0  0  0  0  0  0  0  0  0  0  0  0  # atno 27229 bound_to 7724
  231.2620   38.9610   17.0812 LP  0  0  0  0  0  0  0  0  0  0  0  0  # atno 27230 bound_to 7724
  227.2037   38.5070   19.8106 LP  0  0  0  0  0  0  0  0  0  0  0  0  # atno 27231 bound_to 7802
  227.7519   38.5603   18.1685 LP  0  0  0  0  0  0  0  0  0  0  0  0  # atno 27232 bound_to 7802
  229.8693   39.2933   20.6512 LP  0  0  0  0  0  0  0  0  0  0  0  0  # atno 27233 bound_to 7879
  231.6027   42.0495   20.7549 LP  0  0  0  0  0  0  0  0  0  0  0  0  # atno 27234 bound_to 7884
  230.9999   43.3643   19.9970 LP  0  0  0  0  0  0  0  0  0  0  0  0  # atno 27235 bound_to 7884

> <Gold.Score>
     Fitness  S(hb_ext) S(vdw_ext)  S(hb_int)    S(int)      intcor
     33.26       5.96      19.89       0.00      -0.04      -0.77

> <Gold.Goldscore.Fitness>
33.2614

> <Gold.Goldscore.Internal.Vdw>
-0.4279

> <Gold.Goldscore.Internal.Torsion>
-0.3815

> <Gold.Goldscore.External.Vdw>
19.8857

> <Gold.Goldscore.Internal.HBond>
0.0000

> <Gold.Goldscore.External.HBond>
5.9628

> <Gold.Goldscore.Internal.Correction>
-0.7653

> <Gold.Goldscore.Hbonds>
donor molecule, donor type, donor heavy atom, donor atom, acceptor molecule, acceptor atom, score
      L1  H     8    22       P1  8101  0.99

> <Gold.Goldscore.Internal.Vdw.Weighted>
-0.4279

> <Gold.Goldscore.Internal.Torsion.Weighted>
-0.3815

> <Gold.Goldscore.External.Vdw.Weighted>
27.3428

> <Gold.Goldscore.Internal.HBond.Weighted>
0.0000

> <Gold.Goldscore.External.HBond.Weighted>
5.9628

> <Gold.Goldscore.Internal.Correction.Weighted>
-0.7653

> <Gold.Rescore>
     Score     S(PLP)   S(hbond)     S(cho)   S(metal)  DE(clash)   DE(tors)     intcor
     29.05     -26.47       1.00       0.00       0.00       0.00       0.21       ----

> <Gold.PLP.Fitness>
29.0458

> <Gold.PLP.PLP>
-26.4695

> <Gold.PLP.part.hbond>
-1.7013

> <Gold.PLP.part.metal>
0.0000

> <Gold.PLP.part.buried>
-4.2178

> <Gold.PLP.part.nonpolar>
-20.2323

> <Gold.PLP.part.repulsive>
0.3105

> <Gold.PLP.ligand.clash>
0.0000

> <Gold.PLP.ligand.torsion>
0.2118

> <Gold.PLP.Chemscore.Hbond>
1.0000

> <Gold.PLP.Chemscore.CHOScore>
0.0000

> <Gold.PLP.Chemscore.Metal>
0.0000

> <Gold.Chemscore.Hbonds>
donor molecule, donor type, donor heavy atom, donor atom, acceptor molecule, acceptor atom, score
      L1  H     8    22       P1  8101  0.67

> <Gold.PLP.Chemscore.Internal.Correction>
   9.000000E+99

#       Name:                CT1002167954
#       Creating user name   hitesit
#       Creation time:       Sun Apr 16 23:01:28 2023


#       File generated by GOLD software.
#

@<TRIPOS>MOLECULE
CT1002167954|ligand_prepared|mol2|1|dock6
    29    30     1
SMALL
NO_CHARGES


@<TRIPOS>ATOM
      1 C1         229.0502  43.4851  11.8564 C.3            1 RES1               0.0000
      2 C2         229.6656  42.1125  11.5157 C.ar           1 RES1               0.0000
      3 C3         227.8053  43.6246  10.9853 C.2            1 RES1               0.0000
      4 C4         228.7627  43.4640  13.3536 C.2            1 RES1               0.0000
      5 C5         229.9887  44.6797  11.5670 C.3            1 RES1               0.0000
      6 C6         230.8479  42.0273  10.7867 C.ar           1 RES1               0.0000
      7 C7         229.0650  40.9250  11.9251 C.ar           1 RES1               0.0000
      8 N8         226.5912  43.4933  11.5926 N.am           1 RES1               0.0000
      9 O9         227.8881  43.8077   9.7770 O.2            1 RES1               0.0000
     10 N10        227.4542  43.5165  13.7570 N.am           1 RES1               0.0000
     11 O11        229.6567  43.3854  14.1872 O.2            1 RES1               0.0000
     12 C12        229.4836  46.0038  12.1184 C.3            1 RES1               0.0000
     13 C13        231.4111  40.7996  10.4805 C.ar           1 RES1               0.0000
     14 C14        229.6298  39.6982  11.6177 C.ar           1 RES1               0.0000
     15 C15        226.3540  43.4993  12.9436 C.2            1 RES1               0.0000
     16 C16        230.8028  39.6343  10.8961 C.ar           1 RES1               0.0000
     17 O17        225.2075  43.4935  13.3826 O.2            1 RES1               0.0000
     18 H18        230.9734  44.4687  12.0020 H              1 RES1               0.0000
     19 H19        230.1150  44.7746  10.4814 H              1 RES1               0.0000
     20 H20        231.3397  42.9335  10.4490 H              1 RES1               0.0000
     21 H21        228.1411  40.9510  12.4930 H              1 RES1               0.0000
     22 H22        225.7852  43.3802  10.9860 H              1 RES1               0.0000
     23 H23        227.2845  43.5740  14.7561 H              1 RES1               0.0000
     24 H24        230.1790  46.8081  11.8876 H              1 RES1               0.0000
     25 H25        228.5171  46.2574  11.6878 H              1 RES1               0.0000
     26 H26        229.3704  45.9534  13.1994 H              1 RES1               0.0000
     27 H27        232.3337  40.7547   9.9112 H              1 RES1               0.0000
     28 H28        229.1472  38.7837  11.9463 H              1 RES1               0.0000
     29 H29        231.2444  38.6727  10.6564 H              1 RES1               0.0000
@<TRIPOS>BOND
    1    1    2 1     
    2    1    3 1     
    3    1    4 1     
    4    1    5 1     
    5    2    6 ar    
    6    2    7 ar    
    7    3    8 1     
    8    3    9 2     
    9    4   10 1     
   10    4   11 2     
   11    5   12 1     
   12    5   18 1     
   13    5   19 1     
   14    6   13 ar    
   15    6   20 1     
   16    7   14 ar    
   17    7   21 1     
   18    8   15 1     
   19    8   22 1     
   20   10   15 1     
   21   10   23 1     
   22   12   24 1     
   23   12   25 1     
   24   12   26 1     
   25   13   16 ar    
   26   13   27 1     
   27   14   16 ar    
   28   14   28 1     
   29   15   17 2     
   30   16   29 1     
@<TRIPOS>SUBSTRUCTURE
      1 RES1           1
@<TRIPOS>SET
DONOR_HYDROGENS      STATIC     ATOMS    <user>   **** ""
2 22 23
ATOM$RED        STATIC     ATOMS    COLORGROUP SYSTEM
2 22 23
@<TRIPOS>COMMENT
> <Gold.Version>
2022.3.0

> <Gold.Id.Protein>
unknown|4v3u_clean|pdb

> <Gold.Protein.RotatedTorsions>
[ 6579 6563 6564 6565 ] final   55.86 input  113.83 | X-H torsion
[ 6671 6647 6648 6649 ] final  -71.19 input  129.80 | X-H torsion
[ 8031 8015 8016 8017 ] final   69.70 input   49.80 | X-H torsion
[ 8111 8093 8094 8095 ] final    8.03 input   98.11 | X-H torsion
[ 8171 8157 8158 8159 ] final   79.94 input   64.44 | X-H torsion
[ 8251 8229 8230 8231 ] final  -44.89 input   84.12 | X-H torsion
[ 9566 9530 9529 9527 ] final   56.20 input   60.01 | X-H torsion
[ 8319 8303 8304 8305 ] final  168.72 input  100.38 | X-H torsion
[ 10191 10175 10176 10177 ] final -106.08 input   40.16 | X-H torsion
[ 7948 7929 7930 7931 ] final -121.91 input   72.92 | X-H torsion
[ 7895 7879 7880 7881 ] final   35.45 input   93.72 | X-H torsion
[ 7899 7884 7883 7880 ] final -117.63 input   60.02 | X-H torsion
[ 6811 6793 6794 6795 ] final -179.98 input  121.38 | X-H torsion
[ 27200 6326 6325 6324 ] final -115.07 input    0.00 | X-H torsion
[ 27203 6566 6565 6564 ] final -148.38 input   -0.00 | X-H torsion
[ 27206 7882 7881 7880 ] final  -70.03 input   -0.00 | X-H torsion
[ 27208 7932 7931 7930 ] final -163.44 input    0.00 | X-H torsion
[ 27211 8018 8017 8016 ] final  174.53 input    0.00 | X-H torsion
[ 27214 8096 8095 8094 ] final  105.32 input   -0.00 | X-H torsion
[ 27217 8160 8159 8158 ] final  -83.94 input    0.00 | X-H torsion
[ 27222 10090 10089 10088 ] final -108.69 input    0.00 | X-H torsion
[ 27224 10178 10177 10176 ] final  -32.82 input   -0.00 | X-H torsion
[ 27229 7724 7723 7722 ] final   85.89 input    0.00 | X-H torsion
[ 27231 7802 7801 7800 ] final -161.31 input    0.00 | X-H torsion

> <Gold.Protein.ActiveResidues>
 ASP403  THR404  ILE407  TYR408  ALA410  LYS411  TRP414  GLN425  TRP426  SER427 
 LYS428  LEU429  GLN430  VAL431  PHE432  ASP433  TYR453  SER462  ALA463  ILE464 

> <Gold.Protein.RotatedAtoms>
  217.6177   42.4668   19.2919 H   0  0  0  0  0  0  0  0  0  0  0  0  # atno 6579 bound_to 6563
  220.3513   41.8865   19.7481 H   0  0  0  0  0  0  0  0  0  0  0  0  # atno 6671 bound_to 6647
  221.9887   38.3923   19.1617 H   0  0  0  0  0  0  0  0  0  0  0  0  # atno 6811 bound_to 6793
  230.5983   39.4788   19.1902 H   0  0  0  0  0  0  0  0  0  0  0  0  # atno 7895 bound_to 7879
  231.5890   42.1369   20.7927 H   0  0  0  0  0  0  0  0  0  0  0  0  # atno 7899 bound_to 7884
  229.4166   41.4376   17.8897 H   0  0  0  0  0  0  0  0  0  0  0  0  # atno 7948 bound_to 7929
  227.2387   40.8785   15.8343 H   0  0  0  0  0  0  0  0  0  0  0  0  # atno 8031 bound_to 8015
  225.2834   38.9245   12.9256 H   0  0  0  0  0  0  0  0  0  0  0  0  # atno 8111 bound_to 8093
  222.3208   41.4657   12.3524 H   0  0  0  0  0  0  0  0  0  0  0  0  # atno 8171 bound_to 8157
  219.2025   39.6494   11.6622 H   0  0  0  0  0  0  0  0  0  0  0  0  # atno 8251 bound_to 8229
  216.8305   40.6770   11.1670 H   0  0  0  0  0  0  0  0  0  0  0  0  # atno 8319 bound_to 8303
  226.9664   42.4911    7.9865 H   0  0  0  0  0  0  0  0  0  0  0  0  # atno 9566 bound_to 9530
  223.3368   35.2484   10.7825 H   0  0  0  0  0  0  0  0  0  0  0  0  # atno 10191 bound_to 10175
  216.2575   43.6320   18.7405 LP  0  0  0  0  0  0  0  0  0  0  0  0  # atno 27200 bound_to 6326
  216.6054   44.0059   17.0855 LP  0  0  0  0  0  0  0  0  0  0  0  0  # atno 27201 bound_to 6326
  217.3175   41.2776   18.0460 LP  0  0  0  0  0  0  0  0  0  0  0  0  # atno 27202 bound_to 6563
  221.1814   40.0474   20.3569 LP  0  0  0  0  0  0  0  0  0  0  0  0  # atno 27203 bound_to 6566
  221.5271   40.3507   18.6871 LP  0  0  0  0  0  0  0  0  0  0  0  0  # atno 27204 bound_to 6566
  219.0690   42.7780   20.5324 LP  0  0  0  0  0  0  0  0  0  0  0  0  # atno 27205 bound_to 6647
  227.4753   42.5302   17.8242 LP  0  0  0  0  0  0  0  0  0  0  0  0  # atno 27206 bound_to 7882
  228.9907   43.3292   17.5694 LP  0  0  0  0  0  0  0  0  0  0  0  0  # atno 27207 bound_to 7882
  228.8606   38.6731   13.7060 LP  0  0  0  0  0  0  0  0  0  0  0  0  # atno 27208 bound_to 7932
  230.3450   38.9162   14.5648 LP  0  0  0  0  0  0  0  0  0  0  0  0  # atno 27209 bound_to 7932
  228.5149   40.2860   14.7930 LP  0  0  0  0  0  0  0  0  0  0  0  0  # atno 27210 bound_to 8015
  224.4005   41.6130   13.6276 LP  0  0  0  0  0  0  0  0  0  0  0  0  # atno 27211 bound_to 8018
  225.0649   41.2143   15.1767 LP  0  0  0  0  0  0  0  0  0  0  0  0  # atno 27212 bound_to 8018
  226.4135   40.1725   12.4688 LP  0  0  0  0  0  0  0  0  0  0  0  0  # atno 27213 bound_to 8093
  222.9636   37.9465   12.6605 LP  0  0  0  0  0  0  0  0  0  0  0  0  # atno 27214 bound_to 8096
  223.0588   37.9909   10.9316 LP  0  0  0  0  0  0  0  0  0  0  0  0  # atno 27215 bound_to 8096
  222.8156   39.9216   11.7012 LP  0  0  0  0  0  0  0  0  0  0  0  0  # atno 27216 bound_to 8157
  218.7017   41.8773   11.8744 LP  0  0  0  0  0  0  0  0  0  0  0  0  # atno 27217 bound_to 8160
  219.8333   42.0668   10.5768 LP  0  0  0  0  0  0  0  0  0  0  0  0  # atno 27218 bound_to 8160
  220.1452   38.8534   10.4258 LP  0  0  0  0  0  0  0  0  0  0  0  0  # atno 27219 bound_to 8229
  228.3662   41.8480    7.4623 LP  0  0  0  0  0  0  0  0  0  0  0  0  # atno 27220 bound_to 9530
  227.5047   41.0959    8.6279 LP  0  0  0  0  0  0  0  0  0  0  0  0  # atno 27221 bound_to 9530
  226.6554   38.1436   11.6309 LP  0  0  0  0  0  0  0  0  0  0  0  0  # atno 27222 bound_to 10090
  227.3840   38.1958   10.0604 LP  0  0  0  0  0  0  0  0  0  0  0  0  # atno 27223 bound_to 10090
  220.6008   37.2887   11.7487 LP  0  0  0  0  0  0  0  0  0  0  0  0  # atno 27224 bound_to 10178
  219.6985   37.0366   10.2918 LP  0  0  0  0  0  0  0  0  0  0  0  0  # atno 27225 bound_to 10178
  216.2772   39.8304    9.7364 LP  0  0  0  0  0  0  0  0  0  0  0  0  # atno 27226 bound_to 8303
  222.8517   36.5443   11.8552 LP  0  0  0  0  0  0  0  0  0  0  0  0  # atno 27227 bound_to 10175
  230.0597   39.8534   17.5207 LP  0  0  0  0  0  0  0  0  0  0  0  0  # atno 27228 bound_to 7929
  230.5129   37.5065   16.7609 LP  0  0  0  0  0  0  0  0  0  0  0  0  # atno 27229 bound_to 7724
  230.9388   39.0552   17.4091 LP  0  0  0  0  0  0  0  0  0  0  0  0  # atno 27230 bound_to 7724
  227.5640   39.3468   18.7043 LP  0  0  0  0  0  0  0  0  0  0  0  0  # atno 27231 bound_to 7802
  227.3916   37.7205   19.2747 LP  0  0  0  0  0  0  0  0  0  0  0  0  # atno 27232 bound_to 7802
  229.4289   39.0164   20.3973 LP  0  0  0  0  0  0  0  0  0  0  0  0  # atno 27233 bound_to 7879
  230.9730   43.3535   19.9049 LP  0  0  0  0  0  0  0  0  0  0  0  0  # atno 27234 bound_to 7884
  231.1625   41.8718   19.2450 LP  0  0  0  0  0  0  0  0  0  0  0  0  # atno 27235 bound_to 7884

> <Gold.Score>
     Fitness  S(hb_ext) S(vdw_ext)  S(hb_int)    S(int)      intcor
     31.32       5.53      19.33       0.00      -0.79      -0.76

> <Gold.Goldscore.Fitness>
31.3205

> <Gold.Goldscore.Internal.Vdw>
-1.0328

> <Gold.Goldscore.Internal.Torsion>
-0.5172

> <Gold.Goldscore.External.Vdw>
19.3292

> <Gold.Goldscore.Internal.HBond>
0.0000

> <Gold.Goldscore.External.HBond>
5.5279

> <Gold.Goldscore.Internal.Correction>
-0.7650

> <Gold.Goldscore.Hbonds>
donor molecule, donor type, donor heavy atom, donor atom, acceptor molecule, acceptor atom, score
      L1  H     8    22       P1  8101  0.92

> <Gold.Goldscore.Internal.Vdw.Weighted>
-1.0328

> <Gold.Goldscore.Internal.Torsion.Weighted>
-0.5172

> <Gold.Goldscore.External.Vdw.Weighted>
26.5777

> <Gold.Goldscore.Internal.HBond.Weighted>
0.0000

> <Gold.Goldscore.External.HBond.Weighted>
5.5279

> <Gold.Goldscore.Internal.Correction.Weighted>
-0.7650

> <Gold.Rescore>
     Score     S(PLP)   S(hbond)     S(cho)   S(metal)  DE(clash)   DE(tors)     intcor
     26.35     -25.73       0.62       0.00       0.00       0.00       0.63       ----

> <Gold.PLP.Fitness>
26.3537

> <Gold.PLP.PLP>
-25.7344

> <Gold.PLP.part.hbond>
-1.0000

> <Gold.PLP.part.metal>
0.0000

> <Gold.PLP.part.buried>
-2.9075

> <Gold.PLP.part.nonpolar>
-22.7149

> <Gold.PLP.part.repulsive>
0.4401

> <Gold.PLP.ligand.clash>
0.0000

> <Gold.PLP.ligand.torsion>
0.6264

> <Gold.PLP.Chemscore.Hbond>
0.6240

> <Gold.PLP.Chemscore.CHOScore>
0.0000

> <Gold.PLP.Chemscore.Metal>
0.0000

> <Gold.Chemscore.Hbonds>
donor molecule, donor type, donor heavy atom, donor atom, acceptor molecule, acceptor atom, score
      L1  H     8    22       P1  8101  0.41
      P1  H  9530  9566       L1     9  0.07

> <Gold.PLP.Chemscore.Internal.Correction>
   9.000000E+99

#       Name:                CT1002167954
#       Creating user name   hitesit
#       Creation time:       Sun Apr 16 23:01:27 2023


#       File generated by GOLD software.
#

@<TRIPOS>MOLECULE
CT1002167954|ligand_prepared|mol2|1|dock4
    29    30     1
SMALL
NO_CHARGES


@<TRIPOS>ATOM
      1 C1         228.1028  43.8680  12.0609 C.3            1 RES1               0.0000
      2 C2         226.8533  44.1447  12.9218 C.ar           1 RES1               0.0000
      3 C3         228.9005  42.7949  12.7960 C.2            1 RES1               0.0000
      4 C4         227.5902  43.4340  10.6921 C.2            1 RES1               0.0000
      5 C5         229.0102  45.1043  11.8612 C.3            1 RES1               0.0000
      6 C6         226.8402  45.1949  13.8348 C.ar           1 RES1               0.0000
      7 C7         225.7074  43.3614  12.8124 C.ar           1 RES1               0.0000
      8 N8         228.8853  41.5323  12.2808 N.am           1 RES1               0.0000
      9 O9         229.5015  43.0440  13.8338 O.2            1 RES1               0.0000
     10 N10        227.8411  42.1480  10.2907 N.am           1 RES1               0.0000
     11 O11        226.9569  44.1889   9.9646 O.2            1 RES1               0.0000
     12 C12        230.0698  44.9199  10.7864 C.3            1 RES1               0.0000
     13 C13        225.7211  45.4546  14.6084 C.ar           1 RES1               0.0000
     14 C14        224.5894  43.6227  13.5871 C.ar           1 RES1               0.0000
     15 C15        228.4387  41.1683  11.0359 C.2            1 RES1               0.0000
     16 C16        224.5949  44.6691  14.4848 C.ar           1 RES1               0.0000
     17 O17        228.5801  40.0197  10.6261 O.2            1 RES1               0.0000
     18 H18        228.3826  45.9636  11.5947 H              1 RES1               0.0000
     19 H19        229.5077  45.3343  12.8115 H              1 RES1               0.0000
     20 H20        227.7181  45.8223  13.9476 H              1 RES1               0.0000
     21 H21        225.6808  42.5323  12.1136 H              1 RES1               0.0000
     22 H22        229.2385  40.7900  12.8763 H              1 RES1               0.0000
     23 H23        227.5561  41.8980   9.3491 H              1 RES1               0.0000
     24 H24        230.6786  45.8161  10.6871 H              1 RES1               0.0000
     25 H25        230.7278  44.0888  11.0318 H              1 RES1               0.0000
     26 H26        229.6094  44.7144   9.8222 H              1 RES1               0.0000
     27 H27        225.7310  46.2785  15.3143 H              1 RES1               0.0000
     28 H28        223.7055  43.0015  13.4870 H              1 RES1               0.0000
     29 H29        223.7182  44.8730  15.0906 H              1 RES1               0.0000
@<TRIPOS>BOND
    1    1    2 1     
    2    1    3 1     
    3    1    4 1     
    4    1    5 1     
    5    2    6 ar    
    6    2    7 ar    
    7    3    8 1     
    8    3    9 2     
    9    4   10 1     
   10    4   11 2     
   11    5   12 1     
   12    5   18 1     
   13    5   19 1     
   14    6   13 ar    
   15    6   20 1     
   16    7   14 ar    
   17    7   21 1     
   18    8   15 1     
   19    8   22 1     
   20   10   15 1     
   21   10   23 1     
   22   12   24 1     
   23   12   25 1     
   24   12   26 1     
   25   13   16 ar    
   26   13   27 1     
   27   14   16 ar    
   28   14   28 1     
   29   15   17 2     
   30   16   29 1     
@<TRIPOS>SUBSTRUCTURE
      1 RES1           1
@<TRIPOS>SET
DONOR_HYDROGENS      STATIC     ATOMS    <user>   **** ""
2 22 23
ATOM$RED        STATIC     ATOMS    COLORGROUP SYSTEM
2 22 23
@<TRIPOS>COMMENT
> <Gold.Version>
2022.3.0

> <Gold.Id.Protein>
unknown|4v3u_clean|pdb

> <Gold.Protein.RotatedTorsions>
[ 6579 6563 6564 6565 ] final  -84.19 input  113.83 | X-H torsion
[ 6671 6647 6648 6649 ] final   92.84 input  129.80 | X-H torsion
[ 8031 8015 8016 8017 ] final  -47.15 input   49.80 | X-H torsion
[ 8111 8093 8094 8095 ] final  -67.66 input   98.11 | X-H torsion
[ 8171 8157 8158 8159 ] final  -58.67 input   64.44 | X-H torsion
[ 8251 8229 8230 8231 ] final  -12.35 input   84.12 | X-H torsion
[ 9566 9530 9529 9527 ] final   -2.00 input   60.01 | X-H torsion
[ 8319 8303 8304 8305 ] final  -59.10 input  100.38 | X-H torsion
[ 10191 10175 10176 10177 ] final  132.66 input   40.16 | X-H torsion
[ 7948 7929 7930 7931 ] final  -61.66 input   72.92 | X-H torsion
[ 7895 7879 7880 7881 ] final  -48.50 input   93.72 | X-H torsion
[ 7899 7884 7883 7880 ] final  103.78 input   60.02 | X-H torsion
[ 6811 6793 6794 6795 ] final   31.28 input  121.38 | X-H torsion
[ 27200 6326 6325 6324 ] final  -30.02 input    0.00 | X-H torsion
[ 27203 6566 6565 6564 ] final   76.52 input   -0.00 | X-H torsion
[ 27206 7882 7881 7880 ] final    7.48 input   -0.00 | X-H torsion
[ 27208 7932 7931 7930 ] final   74.00 input    0.00 | X-H torsion
[ 27211 8018 8017 8016 ] final   31.29 input    0.00 | X-H torsion
[ 27214 8096 8095 8094 ] final -135.92 input   -0.00 | X-H torsion
[ 27217 8160 8159 8158 ] final  -75.84 input    0.00 | X-H torsion
[ 27222 10090 10089 10088 ] final   23.77 input    0.00 | X-H torsion
[ 27224 10178 10177 10176 ] final   18.24 input   -0.00 | X-H torsion
[ 27229 7724 7723 7722 ] final -153.31 input    0.00 | X-H torsion
[ 27231 7802 7801 7800 ] final  -99.91 input    0.00 | X-H torsion

> <Gold.Protein.ActiveResidues>
 ASP403  THR404  ILE407  TYR408  ALA410  LYS411  TRP414  GLN425  TRP426  SER427 
 LYS428  LEU429  GLN430  VAL431  PHE432  ASP433  TYR453  SER462  ALA463  ILE464 

> <Gold.Protein.RotatedAtoms>
  217.4322   40.9853   18.5547 H   0  0  0  0  0  0  0  0  0  0  0  0  # atno 6579 bound_to 6563
  218.9466   42.5674   20.5409 H   0  0  0  0  0  0  0  0  0  0  0  0  # atno 6671 bound_to 6647
  221.6609   37.8883   20.7603 H   0  0  0  0  0  0  0  0  0  0  0  0  # atno 6811 bound_to 6793
  229.5794   38.9072   19.1148 H   0  0  0  0  0  0  0  0  0  0  0  0  # atno 7895 bound_to 7879
  230.9084   43.2517   19.6263 H   0  0  0  0  0  0  0  0  0  0  0  0  # atno 7899 bound_to 7884
  228.8647   40.7578   17.7286 H   0  0  0  0  0  0  0  0  0  0  0  0  # atno 7948 bound_to 7929
  227.9771   40.9745   14.5143 H   0  0  0  0  0  0  0  0  0  0  0  0  # atno 8031 bound_to 8015
  225.4671   39.8636   13.4210 H   0  0  0  0  0  0  0  0  0  0  0  0  # atno 8111 bound_to 8093
  222.5558   40.2559   11.2511 H   0  0  0  0  0  0  0  0  0  0  0  0  # atno 8171 bound_to 8157
  219.0865   39.1693   11.6871 H   0  0  0  0  0  0  0  0  0  0  0  0  # atno 8251 bound_to 8229
  216.5253   39.3783   10.2262 H   0  0  0  0  0  0  0  0  0  0  0  0  # atno 8319 bound_to 8303
  227.6907   42.5365    7.4364 H   0  0  0  0  0  0  0  0  0  0  0  0  # atno 9566 bound_to 9530
  223.3580   35.9294   12.1776 H   0  0  0  0  0  0  0  0  0  0  0  0  # atno 10191 bound_to 10175
  215.7558   43.3078   17.7336 LP  0  0  0  0  0  0  0  0  0  0  0  0  # atno 27200 bound_to 6326
  217.1072   44.3301   18.0924 LP  0  0  0  0  0  0  0  0  0  0  0  0  # atno 27201 bound_to 6326
  217.4980   42.7199   18.7637 LP  0  0  0  0  0  0  0  0  0  0  0  0  # atno 27202 bound_to 6563
  221.9135   40.7022   19.0929 LP  0  0  0  0  0  0  0  0  0  0  0  0  # atno 27203 bound_to 6566
  220.7950   39.6960   19.9511 LP  0  0  0  0  0  0  0  0  0  0  0  0  # atno 27204 bound_to 6566
  220.4414   42.1129   19.7578 LP  0  0  0  0  0  0  0  0  0  0  0  0  # atno 27205 bound_to 6647
  228.0800   43.0813   18.5356 LP  0  0  0  0  0  0  0  0  0  0  0  0  # atno 27206 bound_to 7882
  228.3860   42.7781   16.8580 LP  0  0  0  0  0  0  0  0  0  0  0  0  # atno 27207 bound_to 7882
  229.7838   38.3872   14.8778 LP  0  0  0  0  0  0  0  0  0  0  0  0  # atno 27208 bound_to 7932
  229.4217   39.2021   13.3930 LP  0  0  0  0  0  0  0  0  0  0  0  0  # atno 27209 bound_to 7932
  227.8002   40.1931   16.0707 LP  0  0  0  0  0  0  0  0  0  0  0  0  # atno 27210 bound_to 8015
  225.3956   41.5758   14.9354 LP  0  0  0  0  0  0  0  0  0  0  0  0  # atno 27211 bound_to 8018
  224.0698   41.2515   13.8690 LP  0  0  0  0  0  0  0  0  0  0  0  0  # atno 27212 bound_to 8018
  226.2323   39.2460   11.9801 LP  0  0  0  0  0  0  0  0  0  0  0  0  # atno 27213 bound_to 8093
  222.2783   38.0394   11.3401 LP  0  0  0  0  0  0  0  0  0  0  0  0  # atno 27214 bound_to 8096
  223.7441   37.8980   12.2520 LP  0  0  0  0  0  0  0  0  0  0  0  0  # atno 27215 bound_to 8096
  222.5858   41.1047   12.7781 LP  0  0  0  0  0  0  0  0  0  0  0  0  # atno 27216 bound_to 8157
  218.7925   41.9147   11.9474 LP  0  0  0  0  0  0  0  0  0  0  0  0  # atno 27217 bound_to 8160
  219.7425   42.0294   10.5037 LP  0  0  0  0  0  0  0  0  0  0  0  0  # atno 27218 bound_to 8160
  220.2588   39.3235   10.4014 LP  0  0  0  0  0  0  0  0  0  0  0  0  # atno 27219 bound_to 8229
  228.2748   41.1441    8.0429 LP  0  0  0  0  0  0  0  0  0  0  0  0  # atno 27220 bound_to 9530
  226.8667   41.7541    8.6012 LP  0  0  0  0  0  0  0  0  0  0  0  0  # atno 27221 bound_to 9530
  227.8394   38.2690   10.5845 LP  0  0  0  0  0  0  0  0  0  0  0  0  # atno 27222 bound_to 10090
  226.2000   38.0704   11.1068 LP  0  0  0  0  0  0  0  0  0  0  0  0  # atno 27223 bound_to 10090
  221.0052   37.2498   11.1224 LP  0  0  0  0  0  0  0  0  0  0  0  0  # atno 27224 bound_to 10178
  219.2941   37.0755   10.9181 LP  0  0  0  0  0  0  0  0  0  0  0  0  # atno 27225 bound_to 10178
  216.5708   41.0798   10.6415 LP  0  0  0  0  0  0  0  0  0  0  0  0  # atno 27226 bound_to 8303
  222.8312   35.8870   10.5085 LP  0  0  0  0  0  0  0  0  0  0  0  0  # atno 27227 bound_to 10175
  230.5961   40.5142   17.6773 LP  0  0  0  0  0  0  0  0  0  0  0  0  # atno 27228 bound_to 7929
  230.2519   38.6449   17.7118 LP  0  0  0  0  0  0  0  0  0  0  0  0  # atno 27229 bound_to 7724
  231.1998   37.9169   16.4582 LP  0  0  0  0  0  0  0  0  0  0  0  0  # atno 27230 bound_to 7724
  227.7480   38.6616   18.1767 LP  0  0  0  0  0  0  0  0  0  0  0  0  # atno 27231 bound_to 7802
  227.2076   38.4058   19.8023 LP  0  0  0  0  0  0  0  0  0  0  0  0  # atno 27232 bound_to 7802
  230.4391   39.5831   20.4721 LP  0  0  0  0  0  0  0  0  0  0  0  0  # atno 27233 bound_to 7879
  231.2809   41.6779   19.4480 LP  0  0  0  0  0  0  0  0  0  0  0  0  # atno 27234 bound_to 7884
  231.5402   42.4244   20.8769 LP  0  0  0  0  0  0  0  0  0  0  0  0  # atno 27235 bound_to 7884

> <Gold.Score>
     Fitness  S(hb_ext) S(vdw_ext)  S(hb_int)    S(int)      intcor
     25.55       3.10      16.72       0.00      -0.54      -0.76

> <Gold.Goldscore.Fitness>
25.5523

> <Gold.Goldscore.Internal.Vdw>
-0.7071

> <Gold.Goldscore.Internal.Torsion>
-0.5966

> <Gold.Goldscore.External.Vdw>
16.7183

> <Gold.Goldscore.Internal.HBond>
0.0000

> <Gold.Goldscore.External.HBond>
3.1033

> <Gold.Goldscore.Internal.Correction>
-0.7650

> <Gold.Goldscore.Hbonds>
donor molecule, donor type, donor heavy atom, donor atom, acceptor molecule, acceptor atom, score
      P1  H  8015  8031       L1     9  0.08
      L1  H     8    22       P1  7932  0.81
      L1  H    10    23       P1  9530  0.66

> <Gold.Goldscore.Internal.Vdw.Weighted>
-0.7071

> <Gold.Goldscore.Internal.Torsion.Weighted>
-0.5966

> <Gold.Goldscore.External.Vdw.Weighted>
22.9877

> <Gold.Goldscore.Internal.HBond.Weighted>
0.0000

> <Gold.Goldscore.External.HBond.Weighted>
3.1033

> <Gold.Goldscore.Internal.Correction.Weighted>
-0.7650

> <Gold.Rescore>
     Score     S(PLP)   S(hbond)     S(cho)   S(metal)  DE(clash)   DE(tors)     intcor
     23.72     -23.87       0.11       0.00       0.00       0.00       0.24       ----

> <Gold.PLP.Fitness>
23.7154

> <Gold.PLP.PLP>
-23.8698

> <Gold.PLP.part.hbond>
-2.5420

> <Gold.PLP.part.metal>
0.0000

> <Gold.PLP.part.buried>
-4.9049

> <Gold.PLP.part.nonpolar>
-17.7619

> <Gold.PLP.part.repulsive>
1.3637

> <Gold.PLP.ligand.clash>
0.0000

> <Gold.PLP.ligand.torsion>
0.2363

> <Gold.PLP.Chemscore.Hbond>
0.1061

> <Gold.PLP.Chemscore.CHOScore>
0.0000

> <Gold.PLP.Chemscore.Metal>
0.0000

> <Gold.Chemscore.Hbonds>
donor molecule, donor type, donor heavy atom, donor atom, acceptor molecule, acceptor atom, score
      L1  H    10    23       P1  9530  0.96

> <Gold.PLP.Chemscore.Internal.Correction>
   9.000000E+99

#       Name:                CT1002167954
#       Creating user name   hitesit
#       Creation time:       Sun Apr 16 23:01:26 2023


#       File generated by GOLD software.
#

@<TRIPOS>MOLECULE
CT1002167954|ligand_prepared|mol2|1|dock2
    29    30     1
SMALL
NO_CHARGES


@<TRIPOS>ATOM
      1 C1         229.4397  42.9308  11.7162 C.3            1 RES1               0.0000
      2 C2         230.2283  44.1332  11.1584 C.ar           1 RES1               0.0000
      3 C3         229.3162  43.1598  13.2198 C.2            1 RES1               0.0000
      4 C4         228.1060  42.9157  10.9776 C.2            1 RES1               0.0000
      5 C5         230.1310  41.5674  11.4822 C.3            1 RES1               0.0000
      6 C6         229.5718  45.3074  10.8020 C.ar           1 RES1               0.0000
      7 C7         231.6104  44.0843  10.9973 C.ar           1 RES1               0.0000
      8 N8         228.0987  43.5391  13.7032 N.am           1 RES1               0.0000
      9 O9         230.2820  43.0478  13.9647 O.2            1 RES1               0.0000
     10 N10        226.9679  43.1544  11.7024 N.am           1 RES1               0.0000
     11 O11        228.0320  42.7156   9.7714 O.2            1 RES1               0.0000
     12 C12        229.2128  40.3720  11.6825 C.3            1 RES1               0.0000
     13 C13        230.2719  46.3944  10.3054 C.ar           1 RES1               0.0000
     14 C14        232.3086  45.1724  10.5002 C.ar           1 RES1               0.0000
     15 C15        226.9065  43.4958  13.0260 C.2            1 RES1               0.0000
     16 C16        231.6406  46.3279  10.1546 C.ar           1 RES1               0.0000
     17 O17        225.8485  43.7490  13.5950 O.2            1 RES1               0.0000
     18 H18        230.5251  41.5424  10.4587 H              1 RES1               0.0000
     19 H19        230.9805  41.4794  12.1707 H              1 RES1               0.0000
     20 H20        228.4947  45.3775  10.9114 H              1 RES1               0.0000
     21 H21        232.1567  43.1853  11.2617 H              1 RES1               0.0000
     22 H22        228.0722  43.8872  14.6563 H              1 RES1               0.0000
     23 H23        226.0845  43.0696  11.2096 H              1 RES1               0.0000
     24 H24        229.7476  39.4411  11.5060 H              1 RES1               0.0000
     25 H25        228.8225  40.3514  12.6978 H              1 RES1               0.0000
     26 H26        228.3697  40.4140  10.9960 H              1 RES1               0.0000
     27 H27        229.7413  47.3010  10.0335 H              1 RES1               0.0000
     28 H28        233.3857  45.1154  10.3826 H              1 RES1               0.0000
     29 H29        232.1888  47.1796   9.7658 H              1 RES1               0.0000
@<TRIPOS>BOND
    1    1    2 1     
    2    1    3 1     
    3    1    4 1     
    4    1    5 1     
    5    2    6 ar    
    6    2    7 ar    
    7    3    8 1     
    8    3    9 2     
    9    4   10 1     
   10    4   11 2     
   11    5   12 1     
   12    5   18 1     
   13    5   19 1     
   14    6   13 ar    
   15    6   20 1     
   16    7   14 ar    
   17    7   21 1     
   18    8   15 1     
   19    8   22 1     
   20   10   15 1     
   21   10   23 1     
   22   12   24 1     
   23   12   25 1     
   24   12   26 1     
   25   13   16 ar    
   26   13   27 1     
   27   14   16 ar    
   28   14   28 1     
   29   15   17 2     
   30   16   29 1     
@<TRIPOS>SUBSTRUCTURE
      1 RES1           1
@<TRIPOS>SET
DONOR_HYDROGENS      STATIC     ATOMS    <user>   **** ""
2 22 23
ATOM$RED        STATIC     ATOMS    COLORGROUP SYSTEM
2 22 23
@<TRIPOS>COMMENT
> <Gold.Version>
2022.3.0

> <Gold.Id.Protein>
unknown|4v3u_clean|pdb

> <Gold.Protein.RotatedTorsions>
[ 6579 6563 6564 6565 ] final   82.79 input  113.83 | X-H torsion
[ 6671 6647 6648 6649 ] final   43.03 input  129.80 | X-H torsion
[ 8031 8015 8016 8017 ] final -179.20 input   49.80 | X-H torsion
[ 8111 8093 8094 8095 ] final -106.85 input   98.11 | X-H torsion
[ 8171 8157 8158 8159 ] final -138.33 input   64.44 | X-H torsion
[ 8251 8229 8230 8231 ] final  125.19 input   84.12 | X-H torsion
[ 9566 9530 9529 9527 ] final  -87.32 input   60.01 | X-H torsion
[ 8319 8303 8304 8305 ] final -139.29 input  100.38 | X-H torsion
[ 10191 10175 10176 10177 ] final  -37.12 input   40.16 | X-H torsion
[ 7948 7929 7930 7931 ] final   53.81 input   72.92 | X-H torsion
[ 7895 7879 7880 7881 ] final  -21.78 input   93.72 | X-H torsion
[ 7899 7884 7883 7880 ] final -165.73 input   60.02 | X-H torsion
[ 6811 6793 6794 6795 ] final -158.85 input  121.38 | X-H torsion
[ 27200 6326 6325 6324 ] final  158.66 input    0.00 | X-H torsion
[ 27203 6566 6565 6564 ] final  143.02 input   -0.00 | X-H torsion
[ 27206 7882 7881 7880 ] final -166.16 input   -0.00 | X-H torsion
[ 27208 7932 7931 7930 ] final   94.12 input    0.00 | X-H torsion
[ 27211 8018 8017 8016 ] final  -81.95 input    0.00 | X-H torsion
[ 27214 8096 8095 8094 ] final  -33.92 input   -0.00 | X-H torsion
[ 27217 8160 8159 8158 ] final  105.20 input    0.00 | X-H torsion
[ 27222 10090 10089 10088 ] final  -66.55 input    0.00 | X-H torsion
[ 27224 10178 10177 10176 ] final   82.46 input   -0.00 | X-H torsion
[ 27229 7724 7723 7722 ] final -153.98 input    0.00 | X-H torsion
[ 27231 7802 7801 7800 ] final  -15.17 input    0.00 | X-H torsion

> <Gold.Protein.ActiveResidues>
 ASP403  THR404  ILE407  TYR408  ALA410  LYS411  TRP414  GLN425  TRP426  SER427 
 LYS428  LEU429  GLN430  VAL431  PHE432  ASP433  TYR453  SER462  ALA463  ILE464 

> <Gold.Protein.RotatedAtoms>
  217.5500   42.6954   18.9552 H   0  0  0  0  0  0  0  0  0  0  0  0  # atno 6579 bound_to 6563
  218.9925   41.8506   20.3450 H   0  0  0  0  0  0  0  0  0  0  0  0  # atno 6671 bound_to 6647
  222.0480   38.0931   19.0488 H   0  0  0  0  0  0  0  0  0  0  0  0  # atno 6811 bound_to 6793
  229.9104   39.0667   18.9457 H   0  0  0  0  0  0  0  0  0  0  0  0  # atno 7895 bound_to 7879
  231.3926   42.8741   20.8054 H   0  0  0  0  0  0  0  0  0  0  0  0  # atno 7899 bound_to 7884
  230.0063   39.8125   17.4979 H   0  0  0  0  0  0  0  0  0  0  0  0  # atno 7948 bound_to 7929
  228.3151   39.8940   15.6806 H   0  0  0  0  0  0  0  0  0  0  0  0  # atno 8031 bound_to 8015
  225.8649   40.2521   13.2266 H   0  0  0  0  0  0  0  0  0  0  0  0  # atno 8111 bound_to 8093
  222.9518   39.9233   12.2578 H   0  0  0  0  0  0  0  0  0  0  0  0  # atno 8171 bound_to 8157
  220.0855   38.7179   10.4603 H   0  0  0  0  0  0  0  0  0  0  0  0  # atno 8251 bound_to 8229
  216.9179   39.8993   11.1734 H   0  0  0  0  0  0  0  0  0  0  0  0  # atno 8319 bound_to 8303
  228.4212   41.5229    7.6573 H   0  0  0  0  0  0  0  0  0  0  0  0  # atno 9566 bound_to 9530
  222.7231   36.0053   10.5224 H   0  0  0  0  0  0  0  0  0  0  0  0  # atno 10191 bound_to 10175
  217.0819   44.3026   18.2181 LP  0  0  0  0  0  0  0  0  0  0  0  0  # atno 27200 bound_to 6326
  215.7811   43.3353   17.6079 LP  0  0  0  0  0  0  0  0  0  0  0  0  # atno 27201 bound_to 6326
  217.3833   41.0550   18.3737 LP  0  0  0  0  0  0  0  0  0  0  0  0  # atno 27202 bound_to 6563
  221.8674   40.6656   20.0407 LP  0  0  0  0  0  0  0  0  0  0  0  0  # atno 27203 bound_to 6566
  220.8411   39.7325   19.0034 LP  0  0  0  0  0  0  0  0  0  0  0  0  # atno 27204 bound_to 6566
  220.3965   42.8131   19.9493 LP  0  0  0  0  0  0  0  0  0  0  0  0  # atno 27205 bound_to 6647
  228.3029   42.7300   16.8570 LP  0  0  0  0  0  0  0  0  0  0  0  0  # atno 27206 bound_to 7882
  228.1631   43.1294   18.5366 LP  0  0  0  0  0  0  0  0  0  0  0  0  # atno 27207 bound_to 7882
  229.5096   38.2729   14.8203 LP  0  0  0  0  0  0  0  0  0  0  0  0  # atno 27208 bound_to 7932
  229.6959   39.3164   13.4504 LP  0  0  0  0  0  0  0  0  0  0  0  0  # atno 27209 bound_to 7932
  227.4729   41.2390   14.9418 LP  0  0  0  0  0  0  0  0  0  0  0  0  # atno 27210 bound_to 8015
  224.1658   40.8442   14.7252 LP  0  0  0  0  0  0  0  0  0  0  0  0  # atno 27211 bound_to 8018
  225.2997   41.9831   14.0792 LP  0  0  0  0  0  0  0  0  0  0  0  0  # atno 27212 bound_to 8018
  225.8398   38.8628   12.1719 LP  0  0  0  0  0  0  0  0  0  0  0  0  # atno 27213 bound_to 8093
  223.6101   37.9409   11.1711 LP  0  0  0  0  0  0  0  0  0  0  0  0  # atno 27214 bound_to 8096
  222.4124   37.9966   12.4210 LP  0  0  0  0  0  0  0  0  0  0  0  0  # atno 27215 bound_to 8096
  222.1985   41.4300   11.7937 LP  0  0  0  0  0  0  0  0  0  0  0  0  # atno 27216 bound_to 8157
  219.7301   42.0245   10.4954 LP  0  0  0  0  0  0  0  0  0  0  0  0  # atno 27217 bound_to 8160
  218.8049   41.9196   11.9558 LP  0  0  0  0  0  0  0  0  0  0  0  0  # atno 27218 bound_to 8160
  219.2805   39.7656   11.6028 LP  0  0  0  0  0  0  0  0  0  0  0  0  # atno 27219 bound_to 8229
  227.1903   41.3052    8.6991 LP  0  0  0  0  0  0  0  0  0  0  0  0  # atno 27220 bound_to 9530
  227.2156   42.6138    7.7226 LP  0  0  0  0  0  0  0  0  0  0  0  0  # atno 27221 bound_to 9530
  227.2714   38.2246   11.6725 LP  0  0  0  0  0  0  0  0  0  0  0  0  # atno 27222 bound_to 10090
  226.7680   38.1148   10.0188 LP  0  0  0  0  0  0  0  0  0  0  0  0  # atno 27223 bound_to 10090
  220.6220   37.1180   10.2958 LP  0  0  0  0  0  0  0  0  0  0  0  0  # atno 27224 bound_to 10178
  219.6773   37.2073   11.7448 LP  0  0  0  0  0  0  0  0  0  0  0  0  # atno 27225 bound_to 10178
  216.1931   40.5785    9.7302 LP  0  0  0  0  0  0  0  0  0  0  0  0  # atno 27226 bound_to 8303
  223.4441   35.8138   12.1063 LP  0  0  0  0  0  0  0  0  0  0  0  0  # atno 27227 bound_to 10175
  229.4865   41.4331   17.9016 LP  0  0  0  0  0  0  0  0  0  0  0  0  # atno 27228 bound_to 7929
  230.2457   38.6368   17.7117 LP  0  0  0  0  0  0  0  0  0  0  0  0  # atno 27229 bound_to 7724
  231.2060   37.9249   16.4583 LP  0  0  0  0  0  0  0  0  0  0  0  0  # atno 27230 bound_to 7724
  227.5515   37.6925   18.7972 LP  0  0  0  0  0  0  0  0  0  0  0  0  # atno 27231 bound_to 7802
  227.4041   39.3748   19.1819 LP  0  0  0  0  0  0  0  0  0  0  0  0  # atno 27232 bound_to 7802
  230.1110   39.4249   20.6397 LP  0  0  0  0  0  0  0  0  0  0  0  0  # atno 27233 bound_to 7879
  230.8775   42.9413   19.2634 LP  0  0  0  0  0  0  0  0  0  0  0  0  # atno 27234 bound_to 7884
  231.4558   41.5415   19.8738 LP  0  0  0  0  0  0  0  0  0  0  0  0  # atno 27235 bound_to 7884

> <Gold.Score>
     Fitness  S(hb_ext) S(vdw_ext)  S(hb_int)    S(int)      intcor
     24.41       6.00      13.73       0.00      -0.47      -0.77

> <Gold.Goldscore.Fitness>
24.4102

> <Gold.Goldscore.Internal.Vdw>
-0.5037

> <Gold.Goldscore.Internal.Torsion>
-0.7330

> <Gold.Goldscore.External.Vdw>
13.7321

> <Gold.Goldscore.Internal.HBond>
0.0000

> <Gold.Goldscore.External.HBond>
6.0000

> <Gold.Goldscore.Internal.Correction>
-0.7653

> <Gold.Goldscore.Hbonds>
donor molecule, donor type, donor heavy atom, donor atom, acceptor molecule, acceptor atom, score
      L1  H    10    23       P1  8101  1.00

> <Gold.Goldscore.Internal.Vdw.Weighted>
-0.5037

> <Gold.Goldscore.Internal.Torsion.Weighted>
-0.7330

> <Gold.Goldscore.External.Vdw.Weighted>
18.8816

> <Gold.Goldscore.Internal.HBond.Weighted>
0.0000

> <Gold.Goldscore.External.HBond.Weighted>
6.0000

> <Gold.Goldscore.Internal.Correction.Weighted>
-0.7653

> <Gold.Rescore>
     Score     S(PLP)   S(hbond)     S(cho)   S(metal)  DE(clash)   DE(tors)     intcor
     25.72     -26.09       0.00       0.00       0.00       0.00       0.19       ----

> <Gold.PLP.Fitness>
25.7169

> <Gold.PLP.PLP>
-26.0947

> <Gold.PLP.part.hbond>
-1.4538

> <Gold.PLP.part.metal>
0.0000

> <Gold.PLP.part.buried>
-4.2221

> <Gold.PLP.part.nonpolar>
-20.1582

> <Gold.PLP.part.repulsive>
0.3110

> <Gold.PLP.ligand.clash>
0.0000

> <Gold.PLP.ligand.torsion>
0.1889

> <Gold.PLP.Chemscore.Hbond>
0.0000

> <Gold.PLP.Chemscore.CHOScore>
0.0000

> <Gold.PLP.Chemscore.Metal>
0.0000

> <Gold.Chemscore.Hbonds>
donor molecule, donor type, donor heavy atom, donor atom, acceptor molecule, acceptor atom, score
      L1  H    10    23       P1  8101  1.00

> <Gold.PLP.Chemscore.Internal.Correction>
   9.000000E+99

#       Name:                CT1002167954
#       Creating user name   hitesit
#       Creation time:       Sun Apr 16 23:01:30 2023


#       File generated by GOLD software.
#

@<TRIPOS>MOLECULE
CT1002167954|ligand_prepared|mol2|1|dock10
    29    30     1
SMALL
NO_CHARGES


@<TRIPOS>ATOM
      1 C1         224.7029  45.2389  12.6890 C.3            1 RES1               0.0000
      2 C2         225.9055  44.4947  12.0738 C.ar           1 RES1               0.0000
      3 C3         223.4622  44.7147  11.9720 C.2            1 RES1               0.0000
      4 C4         224.7326  44.9359  14.1830 C.2            1 RES1               0.0000
      5 C5         224.7608  46.7741  12.5117 C.3            1 RES1               0.0000
      6 C6         226.4395  44.8979  10.8535 C.ar           1 RES1               0.0000
      7 C7         226.4924  43.4069  12.7148 C.ar           1 RES1               0.0000
      8 N8         222.6459  43.8662  12.6602 N.am           1 RES1               0.0000
      9 O9         223.2248  45.0099  10.8072 O.2            1 RES1               0.0000
     10 N10        223.7031  44.2005  14.7096 N.am           1 RES1               0.0000
     11 O11        225.6466  45.3131  14.9058 O.2            1 RES1               0.0000
     12 C12        223.6991  47.5230  13.3016 C.3            1 RES1               0.0000
     13 C13        227.5227  44.2394  10.2956 C.ar           1 RES1               0.0000
     14 C14        227.5755  42.7496  12.1550 C.ar           1 RES1               0.0000
     15 C15        222.6770  43.6259  14.0103 C.2            1 RES1               0.0000
     16 C16        228.0917  43.1652  10.9461 C.ar           1 RES1               0.0000
     17 O17        221.8181  42.9323  14.5473 O.2            1 RES1               0.0000
     18 H18        225.7503  47.1287  12.8257 H              1 RES1               0.0000
     19 H19        224.6418  47.0113  11.4473 H              1 RES1               0.0000
     20 H20        226.0034  45.7396  10.3258 H              1 RES1               0.0000
     21 H21        226.1023  43.0617  13.6663 H              1 RES1               0.0000
     22 H22        221.9478  43.3639  12.1210 H              1 RES1               0.0000
     23 H23        223.7016  44.0695  15.7162 H              1 RES1               0.0000
     24 H24        223.7844  48.5958  13.1416 H              1 RES1               0.0000
     25 H25        222.7016  47.2133  12.9971 H              1 RES1               0.0000
     26 H26        223.8034  47.3300  14.3673 H              1 RES1               0.0000
     27 H27        227.9244  44.5695   9.3433 H              1 RES1               0.0000
     28 H28        228.0197  41.9043  12.6702 H              1 RES1               0.0000
     29 H29        228.9405  42.6498  10.5090 H              1 RES1               0.0000
@<TRIPOS>BOND
    1    1    2 1     
    2    1    3 1     
    3    1    4 1     
    4    1    5 1     
    5    2    6 ar    
    6    2    7 ar    
    7    3    8 1     
    8    3    9 2     
    9    4   10 1     
   10    4   11 2     
   11    5   12 1     
   12    5   18 1     
   13    5   19 1     
   14    6   13 ar    
   15    6   20 1     
   16    7   14 ar    
   17    7   21 1     
   18    8   15 1     
   19    8   22 1     
   20   10   15 1     
   21   10   23 1     
   22   12   24 1     
   23   12   25 1     
   24   12   26 1     
   25   13   16 ar    
   26   13   27 1     
   27   14   16 ar    
   28   14   28 1     
   29   15   17 2     
   30   16   29 1     
@<TRIPOS>SUBSTRUCTURE
      1 RES1           1
@<TRIPOS>SET
DONOR_HYDROGENS      STATIC     ATOMS    <user>   **** ""
2 22 23
ATOM$RED        STATIC     ATOMS    COLORGROUP SYSTEM
2 22 23
@<TRIPOS>COMMENT
> <Gold.Version>
2022.3.0

> <Gold.Id.Protein>
unknown|4v3u_clean|pdb

> <Gold.Protein.RotatedTorsions>
[ 6579 6563 6564 6565 ] final  145.15 input  113.83 | X-H torsion
[ 6671 6647 6648 6649 ] final -144.76 input  129.80 | X-H torsion
[ 8031 8015 8016 8017 ] final  -70.88 input   49.80 | X-H torsion
[ 8111 8093 8094 8095 ] final   35.02 input   98.11 | X-H torsion
[ 8171 8157 8158 8159 ] final  121.21 input   64.44 | X-H torsion
[ 8251 8229 8230 8231 ] final   62.66 input   84.12 | X-H torsion
[ 9566 9530 9529 9527 ] final  107.96 input   60.01 | X-H torsion
[ 8319 8303 8304 8305 ] final   -3.97 input  100.38 | X-H torsion
[ 10191 10175 10176 10177 ] final  -47.36 input   40.16 | X-H torsion
[ 7948 7929 7930 7931 ] final -144.84 input   72.92 | X-H torsion
[ 7895 7879 7880 7881 ] final  138.25 input   93.72 | X-H torsion
[ 7899 7884 7883 7880 ] final -112.35 input   60.02 | X-H torsion
[ 6811 6793 6794 6795 ] final   66.42 input  121.38 | X-H torsion
[ 27200 6326 6325 6324 ] final -174.82 input    0.00 | X-H torsion
[ 27203 6566 6565 6564 ] final  161.59 input   -0.00 | X-H torsion
[ 27206 7882 7881 7880 ] final   29.67 input   -0.00 | X-H torsion
[ 27208 7932 7931 7930 ] final  140.66 input    0.00 | X-H torsion
[ 27211 8018 8017 8016 ] final  -80.55 input    0.00 | X-H torsion
[ 27214 8096 8095 8094 ] final   57.72 input   -0.00 | X-H torsion
[ 27217 8160 8159 8158 ] final   19.39 input    0.00 | X-H torsion
[ 27222 10090 10089 10088 ] final  -84.88 input    0.00 | X-H torsion
[ 27224 10178 10177 10176 ] final   -0.77 input   -0.00 | X-H torsion
[ 27229 7724 7723 7722 ] final   26.97 input    0.00 | X-H torsion
[ 27231 7802 7801 7800 ] final  -91.95 input    0.00 | X-H torsion

> <Gold.Protein.ActiveResidues>
 ASP403  THR404  ILE407  TYR408  ALA410  LYS411  TRP414  GLN425  TRP426  SER427 
 LYS428  LEU429  GLN430  VAL431  PHE432  ASP433  TYR453  SER462  ALA463  ILE464 

> <Gold.Protein.RotatedAtoms>
  217.3587   42.5206   18.0753 H   0  0  0  0  0  0  0  0  0  0  0  0  # atno 6579 bound_to 6563
  220.3554   42.9153   19.9981 H   0  0  0  0  0  0  0  0  0  0  0  0  # atno 6671 bound_to 6647
  221.6428   38.4003   20.6048 H   0  0  0  0  0  0  0  0  0  0  0  0  # atno 6811 bound_to 6793
  230.3734   39.5369   20.5383 H   0  0  0  0  0  0  0  0  0  0  0  0  # atno 7895 bound_to 7879
  231.5975   42.0601   20.7545 H   0  0  0  0  0  0  0  0  0  0  0  0  # atno 7899 bound_to 7884
  229.7638   41.4981   17.9030 H   0  0  0  0  0  0  0  0  0  0  0  0  # atno 7948 bound_to 7929
  228.2391   40.7197   14.5007 H   0  0  0  0  0  0  0  0  0  0  0  0  # atno 8031 bound_to 8015
  225.4614   38.7737   12.5887 H   0  0  0  0  0  0  0  0  0  0  0  0  # atno 8111 bound_to 8093
  222.5820   41.1144   12.7951 H   0  0  0  0  0  0  0  0  0  0  0  0  # atno 8171 bound_to 8157
  219.4835   38.3871   11.0664 H   0  0  0  0  0  0  0  0  0  0  0  0  # atno 8251 bound_to 8229
  216.2092   39.9134    9.6816 H   0  0  0  0  0  0  0  0  0  0  0  0  # atno 8319 bound_to 8303
  226.8237   41.8939    8.5258 H   0  0  0  0  0  0  0  0  0  0  0  0  # atno 9566 bound_to 9530
  222.8021   35.8722   10.4860 H   0  0  0  0  0  0  0  0  0  0  0  0  # atno 10191 bound_to 10175
  216.9167   44.1540   18.5473 LP  0  0  0  0  0  0  0  0  0  0  0  0  # atno 27200 bound_to 6326
  215.9462   43.4839   17.2787 LP  0  0  0  0  0  0  0  0  0  0  0  0  # atno 27201 bound_to 6326
  217.5696   41.2252   19.2304 LP  0  0  0  0  0  0  0  0  0  0  0  0  # atno 27202 bound_to 6563
  221.7175   40.5312   20.2346 LP  0  0  0  0  0  0  0  0  0  0  0  0  # atno 27203 bound_to 6566
  220.9910   39.8669   18.8094 LP  0  0  0  0  0  0  0  0  0  0  0  0  # atno 27204 bound_to 6566
  219.0650   41.7730   20.2881 LP  0  0  0  0  0  0  0  0  0  0  0  0  # atno 27205 bound_to 6647
  228.3716   43.2373   18.4944 LP  0  0  0  0  0  0  0  0  0  0  0  0  # atno 27206 bound_to 7882
  228.0944   42.6221   16.8992 LP  0  0  0  0  0  0  0  0  0  0  0  0  # atno 27207 bound_to 7882
  228.9721   38.2619   14.3970 LP  0  0  0  0  0  0  0  0  0  0  0  0  # atno 27208 bound_to 7932
  230.2334   39.3274   13.8738 LP  0  0  0  0  0  0  0  0  0  0  0  0  # atno 27209 bound_to 7932
  227.5465   40.4397   16.0838 LP  0  0  0  0  0  0  0  0  0  0  0  0  # atno 27210 bound_to 8015
  224.1777   40.8427   14.7427 LP  0  0  0  0  0  0  0  0  0  0  0  0  # atno 27211 bound_to 8018
  225.2878   41.9846   14.0617 LP  0  0  0  0  0  0  0  0  0  0  0  0  # atno 27212 bound_to 8018
  226.2379   40.3213   12.8013 LP  0  0  0  0  0  0  0  0  0  0  0  0  # atno 27213 bound_to 8093
  223.6158   37.9032   12.4127 LP  0  0  0  0  0  0  0  0  0  0  0  0  # atno 27214 bound_to 8096
  222.4067   38.0342   11.1794 LP  0  0  0  0  0  0  0  0  0  0  0  0  # atno 27215 bound_to 8096
  222.5601   40.2652   11.2682 LP  0  0  0  0  0  0  0  0  0  0  0  0  # atno 27216 bound_to 8157
  219.9855   42.2455   11.6251 LP  0  0  0  0  0  0  0  0  0  0  0  0  # atno 27217 bound_to 8160
  218.5495   41.6985   10.8260 LP  0  0  0  0  0  0  0  0  0  0  0  0  # atno 27218 bound_to 8160
  219.8700   40.0896   11.0093 LP  0  0  0  0  0  0  0  0  0  0  0  0  # atno 27219 bound_to 8229
  227.8330   42.4704    7.3870 LP  0  0  0  0  0  0  0  0  0  0  0  0  # atno 27220 bound_to 9530
  228.1815   41.0750    8.1602 LP  0  0  0  0  0  0  0  0  0  0  0  0  # atno 27221 bound_to 9530
  227.0003   38.1905   11.7112 LP  0  0  0  0  0  0  0  0  0  0  0  0  # atno 27222 bound_to 10090
  227.0391   38.1489    9.9801 LP  0  0  0  0  0  0  0  0  0  0  0  0  # atno 27223 bound_to 10090
  220.9223   37.2749   11.3950 LP  0  0  0  0  0  0  0  0  0  0  0  0  # atno 27224 bound_to 10178
  219.3770   37.0504   10.6455 LP  0  0  0  0  0  0  0  0  0  0  0  0  # atno 27225 bound_to 10178
  216.8749   40.5650   11.1654 LP  0  0  0  0  0  0  0  0  0  0  0  0  # atno 27226 bound_to 8303
  223.3679   35.9422   12.1414 LP  0  0  0  0  0  0  0  0  0  0  0  0  # atno 27227 bound_to 10175
  229.7222   39.7947   17.5078 LP  0  0  0  0  0  0  0  0  0  0  0  0  # atno 27228 bound_to 7929
  231.1972   37.9135   16.4582 LP  0  0  0  0  0  0  0  0  0  0  0  0  # atno 27229 bound_to 7724
  230.2545   38.6482   17.7118 LP  0  0  0  0  0  0  0  0  0  0  0  0  # atno 27230 bound_to 7724
  227.7522   38.5418   18.1682 LP  0  0  0  0  0  0  0  0  0  0  0  0  # atno 27231 bound_to 7802
  227.2034   38.5256   19.8109 LP  0  0  0  0  0  0  0  0  0  0  0  0  # atno 27232 bound_to 7802
  229.6519   38.9588   19.0607 LP  0  0  0  0  0  0  0  0  0  0  0  0  # atno 27233 bound_to 7879
  230.9971   43.3637   19.9878 LP  0  0  0  0  0  0  0  0  0  0  0  0  # atno 27234 bound_to 7884
  231.1298   41.9391   19.2007 LP  0  0  0  0  0  0  0  0  0  0  0  0  # atno 27235 bound_to 7884

> <Gold.Score>
     Fitness  S(hb_ext) S(vdw_ext)  S(hb_int)    S(int)      intcor
     23.90       0.25      17.90       0.00      -0.97      -0.76

> <Gold.Goldscore.Fitness>
23.9013

> <Gold.Goldscore.Internal.Vdw>
-1.2361

> <Gold.Goldscore.Internal.Torsion>
-0.4949

> <Gold.Goldscore.External.Vdw>
17.9016

> <Gold.Goldscore.Internal.HBond>
0.0000

> <Gold.Goldscore.External.HBond>
0.2527

> <Gold.Goldscore.Internal.Correction>
-0.7650

> <Gold.Goldscore.Hbonds>
donor molecule, donor type, donor heavy atom, donor atom, acceptor molecule, acceptor atom, score
      P1  H  8100  8117       L1     9  0.01
      P1  H  8157  8171       L1    17  0.02
      L1  H     8    22       P1  8160  0.09

> <Gold.Goldscore.Internal.Vdw.Weighted>
-1.2361

> <Gold.Goldscore.Internal.Torsion.Weighted>
-0.4949

> <Gold.Goldscore.External.Vdw.Weighted>
24.6146

> <Gold.Goldscore.Internal.HBond.Weighted>
0.0000

> <Gold.Goldscore.External.HBond.Weighted>
0.2527

> <Gold.Goldscore.Internal.Correction.Weighted>
-0.7650

> <Gold.Rescore>
     Score     S(PLP)   S(hbond)     S(cho)   S(metal)  DE(clash)   DE(tors)     intcor
     12.71      -9.76       1.51       0.00       0.00       1.03       0.28       ----

> <Gold.PLP.Fitness>
12.7084

> <Gold.PLP.PLP>
-9.7644

> <Gold.PLP.part.hbond>
-1.5792

> <Gold.PLP.part.metal>
0.0000

> <Gold.PLP.part.buried>
-3.4672

> <Gold.PLP.part.nonpolar>
-6.3639

> <Gold.PLP.part.repulsive>
0.4729

> <Gold.PLP.ligand.clash>
1.0333

> <Gold.PLP.ligand.torsion>
0.2782

> <Gold.PLP.Chemscore.Hbond>
1.5112

> <Gold.PLP.Chemscore.CHOScore>
0.0000

> <Gold.PLP.Chemscore.Metal>
0.0000

> <Gold.Chemscore.Hbonds>
donor molecule, donor type, donor heavy atom, donor atom, acceptor molecule, acceptor atom, score
      P1  H  6801  6822       L1    11  0.70
      P1  H  8100  8117       L1     9  0.58

> <Gold.PLP.Chemscore.Internal.Correction>
   9.000000E+99

#       Name:                CT1002167954
#       Creating user name   hitesit
#       Creation time:       Sun Apr 16 23:01:29 2023


#       File generated by GOLD software.
#

@<TRIPOS>MOLECULE
CT1002167954|ligand_prepared|mol2|1|dock9
    29    30     1
SMALL
NO_CHARGES


@<TRIPOS>ATOM
      1 C1         226.4471  46.2320  14.2021 C.3            1 RES1               0.0000
      2 C2         225.2220  46.6235  15.0534 C.ar           1 RES1               0.0000
      3 C3         227.2973  45.3114  15.0727 C.2            1 RES1               0.0000
      4 C4         225.8980  45.5669  12.9448 C.2            1 RES1               0.0000
      5 C5         227.3152  47.4352  13.7659 C.3            1 RES1               0.0000
      6 C6         224.0929  45.8106  15.0862 C.ar           1 RES1               0.0000
      7 C7         225.2072  47.7910  15.8119 C.ar           1 RES1               0.0000
      8 N8         227.2961  43.9807  14.7742 N.am           1 RES1               0.0000
      9 O9         227.9278  45.7408  16.0310 O.2            1 RES1               0.0000
     10 N10        226.1673  44.2373  12.7518 N.am           1 RES1               0.0000
     11 O11        225.2205  46.1783  12.1278 O.2            1 RES1               0.0000
     12 C12        228.3765  47.0839  12.7352 C.3            1 RES1               0.0000
     13 C13        222.9901  46.1510  15.8518 C.ar           1 RES1               0.0000
     14 C14        224.1032  48.1296  16.5767 C.ar           1 RES1               0.0000
     15 C15        226.8155  43.4066  13.6248 C.2            1 RES1               0.0000
     16 C16        222.9946  47.3103  16.5978 C.ar           1 RES1               0.0000
     17 O17        226.9716  42.2088  13.4051 O.2            1 RES1               0.0000
     18 H18        226.6604  48.2101  13.3485 H              1 RES1               0.0000
     19 H19        227.8083  47.8544  14.6516 H              1 RES1               0.0000
     20 H20        224.0701  44.8956  14.5037 H              1 RES1               0.0000
     21 H21        226.0678  48.4513  15.8096 H              1 RES1               0.0000
     22 H22        227.6888  43.3545  15.4699 H              1 RES1               0.0000
     23 H23        225.8559  43.8289  11.8763 H              1 RES1               0.0000
     24 H24        228.9569  47.9633  12.4640 H              1 RES1               0.0000
     25 H25        229.0607  46.3337  13.1263 H              1 RES1               0.0000
     26 H26        227.9196  46.6873  11.8309 H              1 RES1               0.0000
     27 H27        222.1196  45.5035  15.8640 H              1 RES1               0.0000
     28 H28        224.1109  49.0433  17.1617 H              1 RES1               0.0000
     29 H29        222.1307  47.5765  17.1978 H              1 RES1               0.0000
@<TRIPOS>BOND
    1    1    2 1     
    2    1    3 1     
    3    1    4 1     
    4    1    5 1     
    5    2    6 ar    
    6    2    7 ar    
    7    3    8 1     
    8    3    9 2     
    9    4   10 1     
   10    4   11 2     
   11    5   12 1     
   12    5   18 1     
   13    5   19 1     
   14    6   13 ar    
   15    6   20 1     
   16    7   14 ar    
   17    7   21 1     
   18    8   15 1     
   19    8   22 1     
   20   10   15 1     
   21   10   23 1     
   22   12   24 1     
   23   12   25 1     
   24   12   26 1     
   25   13   16 ar    
   26   13   27 1     
   27   14   16 ar    
   28   14   28 1     
   29   15   17 2     
   30   16   29 1     
@<TRIPOS>SUBSTRUCTURE
      1 RES1           1
@<TRIPOS>SET
DONOR_HYDROGENS      STATIC     ATOMS    <user>   **** ""
2 22 23
ATOM$RED        STATIC     ATOMS    COLORGROUP SYSTEM
2 22 23
@<TRIPOS>COMMENT
> <Gold.Version>
2022.3.0

> <Gold.Id.Protein>
unknown|4v3u_clean|pdb

> <Gold.Protein.RotatedTorsions>
[ 6579 6563 6564 6565 ] final  123.80 input  113.83 | X-H torsion
[ 6671 6647 6648 6649 ] final  131.92 input  129.80 | X-H torsion
[ 8031 8015 8016 8017 ] final   -9.10 input   49.80 | X-H torsion
[ 8111 8093 8094 8095 ] final -129.26 input   98.11 | X-H torsion
[ 8171 8157 8158 8159 ] final  107.54 input   64.44 | X-H torsion
[ 8251 8229 8230 8231 ] final  -48.69 input   84.12 | X-H torsion
[ 9566 9530 9529 9527 ] final   57.63 input   60.01 | X-H torsion
[ 8319 8303 8304 8305 ] final  168.28 input  100.38 | X-H torsion
[ 10191 10175 10176 10177 ] final  177.71 input   40.16 | X-H torsion
[ 7948 7929 7930 7931 ] final  -91.33 input   72.92 | X-H torsion
[ 7895 7879 7880 7881 ] final  -49.83 input   93.72 | X-H torsion
[ 7899 7884 7883 7880 ] final -121.23 input   60.02 | X-H torsion
[ 6811 6793 6794 6795 ] final  -93.29 input  121.38 | X-H torsion
[ 27200 6326 6325 6324 ] final -100.90 input    0.00 | X-H torsion
[ 27203 6566 6565 6564 ] final   59.54 input   -0.00 | X-H torsion
[ 27206 7882 7881 7880 ] final -143.29 input   -0.00 | X-H torsion
[ 27208 7932 7931 7930 ] final  -58.53 input    0.00 | X-H torsion
[ 27211 8018 8017 8016 ] final    6.09 input    0.00 | X-H torsion
[ 27214 8096 8095 8094 ] final  -40.07 input   -0.00 | X-H torsion
[ 27217 8160 8159 8158 ] final  -68.48 input    0.00 | X-H torsion
[ 27222 10090 10089 10088 ] final -179.40 input    0.00 | X-H torsion
[ 27224 10178 10177 10176 ] final    4.44 input   -0.00 | X-H torsion
[ 27229 7724 7723 7722 ] final  -91.65 input    0.00 | X-H torsion
[ 27231 7802 7801 7800 ] final  131.50 input    0.00 | X-H torsion

> <Gold.Protein.ActiveResidues>
 ASP403  THR404  ILE407  TYR408  ALA410  LYS411  TRP414  GLN425  TRP426  SER427 
 LYS428  LEU429  GLN430  VAL431  PHE432  ASP433  TYR453  SER462  ALA463  ILE464 

> <Gold.Protein.RotatedAtoms>
  217.4203   42.6920   18.3483 H   0  0  0  0  0  0  0  0  0  0  0  0  # atno 6579 bound_to 6563
  219.2997   43.0399   20.4992 H   0  0  0  0  0  0  0  0  0  0  0  0  # atno 6671 bound_to 6647
  222.0589   37.2016   19.4057 H   0  0  0  0  0  0  0  0  0  0  0  0  # atno 6811 bound_to 6793
  229.5649   38.9009   19.1275 H   0  0  0  0  0  0  0  0  0  0  0  0  # atno 7895 bound_to 7879
  231.5815   42.1909   20.8149 H   0  0  0  0  0  0  0  0  0  0  0  0  # atno 7899 bound_to 7884
  229.0423   41.1645   17.8255 H   0  0  0  0  0  0  0  0  0  0  0  0  # atno 7948 bound_to 7929
  227.5429   41.2269   14.8043 H   0  0  0  0  0  0  0  0  0  0  0  0  # atno 8031 bound_to 8015
  226.1029   40.3383   12.9977 H   0  0  0  0  0  0  0  0  0  0  0  0  # atno 8111 bound_to 8093
  222.4892   41.2663   12.6834 H   0  0  0  0  0  0  0  0  0  0  0  0  # atno 8171 bound_to 8157
  219.2270   39.6999   11.6457 H   0  0  0  0  0  0  0  0  0  0  0  0  # atno 8251 bound_to 8229
  216.8286   40.6830   11.1642 H   0  0  0  0  0  0  0  0  0  0  0  0  # atno 8319 bound_to 8303
  226.9543   42.4802    8.0032 H   0  0  0  0  0  0  0  0  0  0  0  0  # atno 9566 bound_to 9530
  223.6085   35.3930   11.8379 H   0  0  0  0  0  0  0  0  0  0  0  0  # atno 10191 bound_to 10175
  216.1004   43.5160   18.6537 LP  0  0  0  0  0  0  0  0  0  0  0  0  # atno 27200 bound_to 6326
  216.7626   44.1219   17.1723 LP  0  0  0  0  0  0  0  0  0  0  0  0  # atno 27201 bound_to 6326
  217.5097   41.0583   18.9646 LP  0  0  0  0  0  0  0  0  0  0  0  0  # atno 27202 bound_to 6563
  221.7967   40.5955   18.8918 LP  0  0  0  0  0  0  0  0  0  0  0  0  # atno 27203 bound_to 6566
  220.9119   39.8026   20.1522 LP  0  0  0  0  0  0  0  0  0  0  0  0  # atno 27204 bound_to 6566
  220.0964   41.6512   19.7986 LP  0  0  0  0  0  0  0  0  0  0  0  0  # atno 27205 bound_to 6647
  228.0041   42.5811   16.9378 LP  0  0  0  0  0  0  0  0  0  0  0  0  # atno 27206 bound_to 7882
  228.4619   43.2782   18.4558 LP  0  0  0  0  0  0  0  0  0  0  0  0  # atno 27207 bound_to 7882
  230.0441   39.3681   13.6596 LP  0  0  0  0  0  0  0  0  0  0  0  0  # atno 27208 bound_to 7932
  229.1615   38.2212   14.6112 LP  0  0  0  0  0  0  0  0  0  0  0  0  # atno 27209 bound_to 7932
  228.2204   39.9488   15.7900 LP  0  0  0  0  0  0  0  0  0  0  0  0  # atno 27210 bound_to 8015
  225.1910   41.3261   15.1318 LP  0  0  0  0  0  0  0  0  0  0  0  0  # atno 27211 bound_to 8018
  224.2744   41.5012   13.6726 LP  0  0  0  0  0  0  0  0  0  0  0  0  # atno 27212 bound_to 8018
  225.6050   38.7777   12.3978 LP  0  0  0  0  0  0  0  0  0  0  0  0  # atno 27213 bound_to 8093
  223.5400   37.9481   11.1105 LP  0  0  0  0  0  0  0  0  0  0  0  0  # atno 27214 bound_to 8096
  222.4825   37.9893   12.4816 LP  0  0  0  0  0  0  0  0  0  0  0  0  # atno 27215 bound_to 8096
  222.6508   40.1167   11.3775 LP  0  0  0  0  0  0  0  0  0  0  0  0  # atno 27216 bound_to 8157
  218.8831   41.9496   12.0013 LP  0  0  0  0  0  0  0  0  0  0  0  0  # atno 27217 bound_to 8160
  219.6519   41.9944   10.4499 LP  0  0  0  0  0  0  0  0  0  0  0  0  # atno 27218 bound_to 8160
  220.1212   38.8040   10.4420 LP  0  0  0  0  0  0  0  0  0  0  0  0  # atno 27219 bound_to 8229
  228.3582   41.8682    7.4532 LP  0  0  0  0  0  0  0  0  0  0  0  0  # atno 27220 bound_to 9530
  227.5249   41.0868    8.6202 LP  0  0  0  0  0  0  0  0  0  0  0  0  # atno 27221 bound_to 9530
  226.1653   38.0566   10.7610 LP  0  0  0  0  0  0  0  0  0  0  0  0  # atno 27222 bound_to 10090
  227.8741   38.2828   10.9303 LP  0  0  0  0  0  0  0  0  0  0  0  0  # atno 27223 bound_to 10090
  220.9539   37.2691   11.3232 LP  0  0  0  0  0  0  0  0  0  0  0  0  # atno 27224 bound_to 10178
  219.3454   37.0562   10.7173 LP  0  0  0  0  0  0  0  0  0  0  0  0  # atno 27225 bound_to 10178
  216.2791   39.8247    9.7391 LP  0  0  0  0  0  0  0  0  0  0  0  0  # atno 27226 bound_to 8303
  222.5894   36.4048   10.8364 LP  0  0  0  0  0  0  0  0  0  0  0  0  # atno 27227 bound_to 10175
  230.4235   40.1189   17.5831 LP  0  0  0  0  0  0  0  0  0  0  0  0  # atno 27228 bound_to 7929
  230.9679   39.0561   17.3858 LP  0  0  0  0  0  0  0  0  0  0  0  0  # atno 27229 bound_to 7724
  230.4839   37.5056   16.7842 LP  0  0  0  0  0  0  0  0  0  0  0  0  # atno 27230 bound_to 7724
  227.2708   39.1233   19.5891 LP  0  0  0  0  0  0  0  0  0  0  0  0  # atno 27231 bound_to 7802
  227.6848   37.9440   18.3900 LP  0  0  0  0  0  0  0  0  0  0  0  0  # atno 27232 bound_to 7802
  230.4536   39.5894   20.4595 LP  0  0  0  0  0  0  0  0  0  0  0  0  # atno 27233 bound_to 7879
  230.9579   43.3422   19.8487 LP  0  0  0  0  0  0  0  0  0  0  0  0  # atno 27234 bound_to 7884
  231.1851   41.8288   19.2788 LP  0  0  0  0  0  0  0  0  0  0  0  0  # atno 27235 bound_to 7884

> <Gold.Score>
     Fitness  S(hb_ext) S(vdw_ext)  S(hb_int)    S(int)      intcor
     20.85       7.90       9.62       0.00      -0.28      -0.76

> <Gold.Goldscore.Fitness>
20.8492

> <Gold.Goldscore.Internal.Vdw>
-0.5172

> <Gold.Goldscore.Internal.Torsion>
-0.5234

> <Gold.Goldscore.External.Vdw>
9.6153

> <Gold.Goldscore.Internal.HBond>
0.0000

> <Gold.Goldscore.External.HBond>
7.9038

> <Gold.Goldscore.Internal.Correction>
-0.7650

> <Gold.Goldscore.Hbonds>
donor molecule, donor type, donor heavy atom, donor atom, acceptor molecule, acceptor atom, score
      P1  H  8015  8031       L1    17  0.22
      P1  H  8093  8111       L1    17  0.37
      L1  H     8    22       P1  7882  0.36
      L1  H    10    23       P1  8101  1.00

> <Gold.Goldscore.Internal.Vdw.Weighted>
-0.5172

> <Gold.Goldscore.Internal.Torsion.Weighted>
-0.5234

> <Gold.Goldscore.External.Vdw.Weighted>
13.2211

> <Gold.Goldscore.Internal.HBond.Weighted>
0.0000

> <Gold.Goldscore.External.HBond.Weighted>
7.9038

> <Gold.Goldscore.Internal.Correction.Weighted>
-0.7650

> <Gold.Rescore>
     Score     S(PLP)   S(hbond)     S(cho)   S(metal)  DE(clash)   DE(tors)     intcor
    -10.43      14.61       2.01       0.00       0.00       0.00       0.93       ----

> <Gold.PLP.Fitness>
-10.4302

> <Gold.PLP.PLP>
14.6064

> <Gold.PLP.part.hbond>
-1.3642

> <Gold.PLP.part.metal>
0.0000

> <Gold.PLP.part.buried>
13.1467

> <Gold.PLP.part.nonpolar>
-7.2937

> <Gold.PLP.part.repulsive>
8.3435

> <Gold.PLP.ligand.clash>
0.0000

> <Gold.PLP.ligand.torsion>
0.9301

> <Gold.PLP.Chemscore.Hbond>
2.0121

> <Gold.PLP.Chemscore.CHOScore>
0.0000

> <Gold.PLP.Chemscore.Metal>
0.0000

> <Gold.Chemscore.Hbonds>
donor molecule, donor type, donor heavy atom, donor atom, acceptor molecule, acceptor atom, score
      L1  H    10    23       P1  8101  0.73
      P1  H  8015  8031       L1    17  0.78
      P1  H  8093  8111       L1    17  0.97

> <Gold.PLP.Chemscore.Internal.Correction>
   9.000000E+99

#       Name:                CT1002167954
#       Creating user name   hitesit
#       Creation time:       Sun Apr 16 23:01:29 2023


#       File generated by GOLD software.
#

@<TRIPOS>MOLECULE
CT1002167954|ligand_prepared|mol2|1|dock8
    29    30     1
SMALL
NO_CHARGES


@<TRIPOS>ATOM
      1 C1         223.8540  45.7207  12.5934 C.3            1 RES1               0.0000
      2 C2         225.0449  45.2901  11.7130 C.ar           1 RES1               0.0000
      3 C3         222.6325  44.9837  12.0522 C.2            1 RES1               0.0000
      4 C4         224.2236  45.3455  14.0242 C.2            1 RES1               0.0000
      5 C5         223.5672  47.2399  12.5569 C.3            1 RES1               0.0000
      6 C6         225.2415  45.8601  10.4588 C.ar           1 RES1               0.0000
      7 C7         225.9551  44.3276  12.1417 C.ar           1 RES1               0.0000
      8 N8         222.1476  43.9410  12.7853 N.am           1 RES1               0.0000
      9 O9         222.1264  45.2877  10.9790 O.2            1 RES1               0.0000
     10 N10        223.4808  44.3764  14.6461 N.am           1 RES1               0.0000
     11 O11        225.1619  45.8684  14.6129 O.2            1 RES1               0.0000
     12 C12        222.5634  47.6997  13.6024 C.3            1 RES1               0.0000
     13 C13        226.3110  45.4839   9.6632 C.ar           1 RES1               0.0000
     14 C14        227.0238  43.9526  11.3444 C.ar           1 RES1               0.0000
     15 C15        222.4790  43.6354  14.0808 C.2            1 RES1               0.0000
     16 C16        227.2030  44.5304  10.1055 C.ar           1 RES1               0.0000
     17 O17        221.8936  42.7432  14.6878 O.2            1 RES1               0.0000
     18 H18        224.5092  47.7809  12.7098 H              1 RES1               0.0000
     19 H19        223.1868  47.5036  11.5623 H              1 RES1               0.0000
     20 H20        224.5485  46.6104  10.0928 H              1 RES1               0.0000
     21 H21        225.8333  43.8589  13.1123 H              1 RES1               0.0000
     22 H22        221.4766  43.3320  12.3279 H              1 RES1               0.0000
     23 H23        223.6943  44.1902  15.6209 H              1 RES1               0.0000
     24 H24        222.3985  48.7729  13.5331 H              1 RES1               0.0000
     25 H25        221.6067  47.2002  13.4645 H              1 RES1               0.0000
     26 H26        222.9212  47.4758  14.6053 H              1 RES1               0.0000
     27 H27        226.4468  45.9406   8.6884 H              1 RES1               0.0000
     28 H28        227.7230  43.2013  11.6963 H              1 RES1               0.0000
     29 H29        228.0409  44.2361   9.4822 H              1 RES1               0.0000
@<TRIPOS>BOND
    1    1    2 1     
    2    1    3 1     
    3    1    4 1     
    4    1    5 1     
    5    2    6 ar    
    6    2    7 ar    
    7    3    8 1     
    8    3    9 2     
    9    4   10 1     
   10    4   11 2     
   11    5   12 1     
   12    5   18 1     
   13    5   19 1     
   14    6   13 ar    
   15    6   20 1     
   16    7   14 ar    
   17    7   21 1     
   18    8   15 1     
   19    8   22 1     
   20   10   15 1     
   21   10   23 1     
   22   12   24 1     
   23   12   25 1     
   24   12   26 1     
   25   13   16 ar    
   26   13   27 1     
   27   14   16 ar    
   28   14   28 1     
   29   15   17 2     
   30   16   29 1     
@<TRIPOS>SUBSTRUCTURE
      1 RES1           1
@<TRIPOS>SET
DONOR_HYDROGENS      STATIC     ATOMS    <user>   **** ""
2 22 23
ATOM$RED        STATIC     ATOMS    COLORGROUP SYSTEM
2 22 23
@<TRIPOS>COMMENT
> <Gold.Version>
2022.3.0

> <Gold.Id.Protein>
unknown|4v3u_clean|pdb

> <Gold.Protein.RotatedTorsions>
[ 6579 6563 6564 6565 ] final    0.10 input  113.83 | X-H torsion
[ 6671 6647 6648 6649 ] final   57.28 input  129.80 | X-H torsion
[ 8031 8015 8016 8017 ] final -174.03 input   49.80 | X-H torsion
[ 8111 8093 8094 8095 ] final -154.34 input   98.11 | X-H torsion
[ 8171 8157 8158 8159 ] final   88.88 input   64.44 | X-H torsion
[ 8251 8229 8230 8231 ] final  135.07 input   84.12 | X-H torsion
[ 9566 9530 9529 9527 ] final   28.53 input   60.01 | X-H torsion
[ 8319 8303 8304 8305 ] final   56.43 input  100.38 | X-H torsion
[ 10191 10175 10176 10177 ] final  -21.28 input   40.16 | X-H torsion
[ 7948 7929 7930 7931 ] final  -46.06 input   72.92 | X-H torsion
[ 7895 7879 7880 7881 ] final   53.87 input   93.72 | X-H torsion
[ 7899 7884 7883 7880 ] final  131.79 input   60.02 | X-H torsion
[ 6811 6793 6794 6795 ] final   83.65 input  121.38 | X-H torsion
[ 27200 6326 6325 6324 ] final  117.24 input    0.00 | X-H torsion
[ 27203 6566 6565 6564 ] final   88.62 input   -0.00 | X-H torsion
[ 27206 7882 7881 7880 ] final   86.53 input   -0.00 | X-H torsion
[ 27208 7932 7931 7930 ] final  -98.93 input    0.00 | X-H torsion
[ 27211 8018 8017 8016 ] final -103.96 input    0.00 | X-H torsion
[ 27214 8096 8095 8094 ] final -153.41 input   -0.00 | X-H torsion
[ 27217 8160 8159 8158 ] final  -32.89 input    0.00 | X-H torsion
[ 27222 10090 10089 10088 ] final   51.66 input    0.00 | X-H torsion
[ 27224 10178 10177 10176 ] final   84.48 input   -0.00 | X-H torsion
[ 27229 7724 7723 7722 ] final  109.04 input    0.00 | X-H torsion
[ 27231 7802 7801 7800 ] final -178.00 input    0.00 | X-H torsion

> <Gold.Protein.ActiveResidues>
 ASP403  THR404  ILE407  TYR408  ALA410  LYS411  TRP414  GLN425  TRP426  SER427 
 LYS428  LEU429  GLN430  VAL431  PHE432  ASP433  TYR453  SER462  ALA463  ILE464 

> <Gold.Protein.RotatedAtoms>
  217.6481   41.6668   19.5047 H   0  0  0  0  0  0  0  0  0  0  0  0  # atno 6579 bound_to 6563
  218.9183   42.0410   20.4246 H   0  0  0  0  0  0  0  0  0  0  0  0  # atno 6671 bound_to 6647
  221.6643   38.5963   20.4267 H   0  0  0  0  0  0  0  0  0  0  0  0  # atno 6811 bound_to 6793
  230.7263   39.5801   19.4178 H   0  0  0  0  0  0  0  0  0  0  0  0  # atno 7895 bound_to 7879
  231.0172   43.3592   20.0529 H   0  0  0  0  0  0  0  0  0  0  0  0  # atno 7899 bound_to 7884
  228.8632   40.5238   17.6725 H   0  0  0  0  0  0  0  0  0  0  0  0  # atno 7948 bound_to 7929
  228.3603   39.8906   15.6143 H   0  0  0  0  0  0  0  0  0  0  0  0  # atno 8031 bound_to 8015
  226.3233   40.2938   12.6898 H   0  0  0  0  0  0  0  0  0  0  0  0  # atno 8111 bound_to 8093
  222.3708   41.4192   12.4720 H   0  0  0  0  0  0  0  0  0  0  0  0  # atno 8171 bound_to 8157
  220.1534   38.8449   10.4117 H   0  0  0  0  0  0  0  0  0  0  0  0  # atno 8251 bound_to 8229
  216.1868   40.7978    9.8366 H   0  0  0  0  0  0  0  0  0  0  0  0  # atno 8319 bound_to 8303
  227.2694   42.6138    7.6805 H   0  0  0  0  0  0  0  0  0  0  0  0  # atno 9566 bound_to 9530
  222.6240   36.2031   10.6288 H   0  0  0  0  0  0  0  0  0  0  0  0  # atno 10191 bound_to 10175
  217.0627   44.3264   17.6063 LP  0  0  0  0  0  0  0  0  0  0  0  0  # atno 27200 bound_to 6326
  215.8003   43.3115   18.2196 LP  0  0  0  0  0  0  0  0  0  0  0  0  # atno 27201 bound_to 6326
  217.2879   42.0565   17.8388 LP  0  0  0  0  0  0  0  0  0  0  0  0  # atno 27202 bound_to 6563
  221.9674   40.7518   19.2601 LP  0  0  0  0  0  0  0  0  0  0  0  0  # atno 27203 bound_to 6566
  220.7411   39.6463   19.7839 LP  0  0  0  0  0  0  0  0  0  0  0  0  # atno 27204 bound_to 6566
  220.4690   42.6271   19.8714 LP  0  0  0  0  0  0  0  0  0  0  0  0  # atno 27205 bound_to 6647
  228.9326   43.3932   17.9104 LP  0  0  0  0  0  0  0  0  0  0  0  0  # atno 27206 bound_to 7882
  227.5333   42.4662   17.4832 LP  0  0  0  0  0  0  0  0  0  0  0  0  # atno 27207 bound_to 7882
  229.5173   39.2488   13.4030 LP  0  0  0  0  0  0  0  0  0  0  0  0  # atno 27208 bound_to 7932
  229.6883   38.3405   14.8678 LP  0  0  0  0  0  0  0  0  0  0  0  0  # atno 27209 bound_to 7932
  227.4292   41.2423   15.0059 LP  0  0  0  0  0  0  0  0  0  0  0  0  # atno 27210 bound_to 8015
  224.0280   40.9112   14.4322 LP  0  0  0  0  0  0  0  0  0  0  0  0  # atno 27211 bound_to 8018
  225.4375   41.9161   14.3722 LP  0  0  0  0  0  0  0  0  0  0  0  0  # atno 27212 bound_to 8018
  225.3875   38.8216   12.7015 LP  0  0  0  0  0  0  0  0  0  0  0  0  # atno 27213 bound_to 8093
  222.1751   38.0402   11.5823 LP  0  0  0  0  0  0  0  0  0  0  0  0  # atno 27214 bound_to 8096
  223.8474   37.8973   12.0099 LP  0  0  0  0  0  0  0  0  0  0  0  0  # atno 27215 bound_to 8096
  222.7666   39.9672   11.5842 LP  0  0  0  0  0  0  0  0  0  0  0  0  # atno 27216 bound_to 8157
  219.3814   42.1136   12.0723 LP  0  0  0  0  0  0  0  0  0  0  0  0  # atno 27217 bound_to 8160
  219.1536   41.8305   10.3788 LP  0  0  0  0  0  0  0  0  0  0  0  0  # atno 27218 bound_to 8160
  219.2140   39.6413   11.6504 LP  0  0  0  0  0  0  0  0  0  0  0  0  # atno 27219 bound_to 8229
  228.4251   41.4683    7.6983 LP  0  0  0  0  0  0  0  0  0  0  0  0  # atno 27220 bound_to 9530
  227.1407   41.3521    8.7001 LP  0  0  0  0  0  0  0  0  0  0  0  0  # atno 27221 bound_to 9530
  227.6243   38.2315   10.2287 LP  0  0  0  0  0  0  0  0  0  0  0  0  # atno 27222 bound_to 10090
  226.4151   38.1079   11.4626 LP  0  0  0  0  0  0  0  0  0  0  0  0  # atno 27223 bound_to 10090
  220.5962   37.1139   10.2799 LP  0  0  0  0  0  0  0  0  0  0  0  0  # atno 27224 bound_to 10178
  219.7031   37.2114   11.7607 LP  0  0  0  0  0  0  0  0  0  0  0  0  # atno 27225 bound_to 10178
  216.8965   39.7142   11.0163 LP  0  0  0  0  0  0  0  0  0  0  0  0  # atno 27226 bound_to 8303
  223.5398   35.6228   12.0036 LP  0  0  0  0  0  0  0  0  0  0  0  0  # atno 27227 bound_to 10175
  230.5976   40.7417   17.7319 LP  0  0  0  0  0  0  0  0  0  0  0  0  # atno 27228 bound_to 7929
  230.2631   37.5540   16.9979 LP  0  0  0  0  0  0  0  0  0  0  0  0  # atno 27229 bound_to 7724
  231.1886   39.0077   17.1721 LP  0  0  0  0  0  0  0  0  0  0  0  0  # atno 27230 bound_to 7724
  227.4855   39.3981   18.9376 LP  0  0  0  0  0  0  0  0  0  0  0  0  # atno 27231 bound_to 7802
  227.4702   37.6692   19.0414 LP  0  0  0  0  0  0  0  0  0  0  0  0  # atno 27232 bound_to 7802
  229.3020   38.9160   20.1716 LP  0  0  0  0  0  0  0  0  0  0  0  0  # atno 27233 bound_to 7879
  231.1049   41.9948   19.1706 LP  0  0  0  0  0  0  0  0  0  0  0  0  # atno 27234 bound_to 7884
  231.6066   41.9993   20.7246 LP  0  0  0  0  0  0  0  0  0  0  0  0  # atno 27235 bound_to 7884

> <Gold.Score>
     Fitness  S(hb_ext) S(vdw_ext)  S(hb_int)    S(int)      intcor
     19.67       0.45      14.69       0.00      -0.97      -0.76

> <Gold.Goldscore.Fitness>
19.6682

> <Gold.Goldscore.Internal.Vdw>
-1.2110

> <Gold.Goldscore.Internal.Torsion>
-0.5275

> <Gold.Goldscore.External.Vdw>
14.6867

> <Gold.Goldscore.Internal.HBond>
0.0000

> <Gold.Goldscore.External.HBond>
0.4474

> <Gold.Goldscore.Internal.Correction>
-0.7650

> <Gold.Goldscore.Hbonds>
donor molecule, donor type, donor heavy atom, donor atom, acceptor molecule, acceptor atom, score
      P1  H  8100  8117       L1     9  0.07
      L1  H     8    22       P1  8160  0.15

> <Gold.Goldscore.Internal.Vdw.Weighted>
-1.2110

> <Gold.Goldscore.Internal.Torsion.Weighted>
-0.5275

> <Gold.Goldscore.External.Vdw.Weighted>
20.1942

> <Gold.Goldscore.Internal.HBond.Weighted>
0.0000

> <Gold.Goldscore.External.HBond.Weighted>
0.4474

> <Gold.Goldscore.Internal.Correction.Weighted>
-0.7650

> <Gold.Rescore>
     Score     S(PLP)   S(hbond)     S(cho)   S(metal)  DE(clash)   DE(tors)     intcor
     12.23      -9.83       1.38       0.00       0.00       1.04       0.35       ----

> <Gold.PLP.Fitness>
12.2270

> <Gold.PLP.PLP>
-9.8267

> <Gold.PLP.part.hbond>
-1.5510

> <Gold.PLP.part.metal>
0.0000

> <Gold.PLP.part.buried>
-3.8408

> <Gold.PLP.part.nonpolar>
-6.3329

> <Gold.PLP.part.repulsive>
0.9718

> <Gold.PLP.ligand.clash>
1.0434

> <Gold.PLP.ligand.torsion>
0.3500

> <Gold.PLP.Chemscore.Hbond>
1.3813

> <Gold.PLP.Chemscore.CHOScore>
0.0000

> <Gold.PLP.Chemscore.Metal>
0.0000

> <Gold.Chemscore.Hbonds>
donor molecule, donor type, donor heavy atom, donor atom, acceptor molecule, acceptor atom, score
      P1  H  8100  8117       L1     9  0.82

> <Gold.PLP.Chemscore.Internal.Correction>
   9.000000E+99

#       Name:                CT1002167954
#       Creating user name   hitesit
#       Creation time:       Sun Apr 16 23:01:28 2023


#       File generated by GOLD software.
#

@<TRIPOS>MOLECULE
CT1002167954|ligand_prepared|mol2|1|dock7
    29    30     1
SMALL
NO_CHARGES


@<TRIPOS>ATOM
      1 C1         231.5995  42.6710   9.2417 C.3            1 RES1               0.0000
      2 C2         232.4283  41.5251   8.6261 C.ar           1 RES1               0.0000
      3 C3         230.1636  42.4628   8.7694 C.2            1 RES1               0.0000
      4 C4         231.7794  42.5639  10.7520 C.2            1 RES1               0.0000
      5 C5         232.0610  44.0807   8.8044 C.3            1 RES1               0.0000
      6 C6         233.1569  41.7261   7.4576 C.ar           1 RES1               0.0000
      7 C7         232.4762  40.2647   9.2157 C.ar           1 RES1               0.0000
      8 N8         229.2607  41.9963   9.6788 N.am           1 RES1               0.0000
      9 O9         229.8375  42.6671   7.6066 O.2            1 RES1               0.0000
     10 N10        230.6813  42.2487  11.5086 N.am           1 RES1               0.0000
     11 O11        232.8657  42.7332  11.2919 O.2            1 RES1               0.0000
     12 C12        231.4163  45.2092   9.5937 C.3            1 RES1               0.0000
     13 C13        233.9085  40.7050   6.9002 C.ar           1 RES1               0.0000
     14 C14        233.2283  39.2448   8.6565 C.ar           1 RES1               0.0000
     15 C15        229.4368  41.9299  11.0376 C.2            1 RES1               0.0000
     16 C16        233.9451  39.4639   7.4994 C.ar           1 RES1               0.0000
     17 O17        228.5134  41.6037  11.7780 O.2            1 RES1               0.0000
     18 H18        233.1500  44.1471   8.9188 H              1 RES1               0.0000
     19 H19        231.8267  44.2149   7.7411 H              1 RES1               0.0000
     20 H20        233.1383  42.6954   6.9705 H              1 RES1               0.0000
     21 H21        231.9194  40.0691  10.1258 H              1 RES1               0.0000
     22 H22        228.3724  41.6663   9.3150 H              1 RES1               0.0000
     23 H23        230.8028  42.2522  12.5164 H              1 RES1               0.0000
     24 H24        231.7745  46.1762   9.2469 H              1 RES1               0.0000
     25 H25        230.3342  45.1888   9.4822 H              1 RES1               0.0000
     26 H26        231.6496  45.1213  10.6528 H              1 RES1               0.0000
     27 H27        234.4697  40.8821   5.9886 H              1 RES1               0.0000
     28 H28        233.2537  38.2695   9.1312 H              1 RES1               0.0000
     29 H29        234.5342  38.6643   7.0627 H              1 RES1               0.0000
@<TRIPOS>BOND
    1    1    2 1     
    2    1    3 1     
    3    1    4 1     
    4    1    5 1     
    5    2    6 ar    
    6    2    7 ar    
    7    3    8 1     
    8    3    9 2     
    9    4   10 1     
   10    4   11 2     
   11    5   12 1     
   12    5   18 1     
   13    5   19 1     
   14    6   13 ar    
   15    6   20 1     
   16    7   14 ar    
   17    7   21 1     
   18    8   15 1     
   19    8   22 1     
   20   10   15 1     
   21   10   23 1     
   22   12   24 1     
   23   12   25 1     
   24   12   26 1     
   25   13   16 ar    
   26   13   27 1     
   27   14   16 ar    
   28   14   28 1     
   29   15   17 2     
   30   16   29 1     
@<TRIPOS>SUBSTRUCTURE
      1 RES1           1
@<TRIPOS>SET
DONOR_HYDROGENS      STATIC     ATOMS    <user>   **** ""
2 22 23
ATOM$RED        STATIC     ATOMS    COLORGROUP SYSTEM
2 22 23
@<TRIPOS>COMMENT
> <Gold.Version>
2022.3.0

> <Gold.Id.Protein>
unknown|4v3u_clean|pdb

> <Gold.Protein.RotatedTorsions>
[ 6579 6563 6564 6565 ] final   94.04 input  113.83 | X-H torsion
[ 6671 6647 6648 6649 ] final  -51.85 input  129.80 | X-H torsion
[ 8031 8015 8016 8017 ] final   65.57 input   49.80 | X-H torsion
[ 8111 8093 8094 8095 ] final -172.04 input   98.11 | X-H torsion
[ 8171 8157 8158 8159 ] final -147.72 input   64.44 | X-H torsion
[ 8251 8229 8230 8231 ] final  -57.95 input   84.12 | X-H torsion
[ 9566 9530 9529 9527 ] final  -43.57 input   60.01 | X-H torsion
[ 8319 8303 8304 8305 ] final   18.36 input  100.38 | X-H torsion
[ 10191 10175 10176 10177 ] final  156.13 input   40.16 | X-H torsion
[ 7948 7929 7930 7931 ] final  -33.89 input   72.92 | X-H torsion
[ 7895 7879 7880 7881 ] final -145.54 input   93.72 | X-H torsion
[ 7899 7884 7883 7880 ] final    6.63 input   60.02 | X-H torsion
[ 6811 6793 6794 6795 ] final   58.14 input  121.38 | X-H torsion
[ 27200 6326 6325 6324 ] final   48.67 input    0.00 | X-H torsion
[ 27203 6566 6565 6564 ] final -161.52 input   -0.00 | X-H torsion
[ 27206 7882 7881 7880 ] final    1.47 input   -0.00 | X-H torsion
[ 27208 7932 7931 7930 ] final -103.95 input    0.00 | X-H torsion
[ 27211 8018 8017 8016 ] final -105.88 input    0.00 | X-H torsion
[ 27214 8096 8095 8094 ] final  -41.03 input   -0.00 | X-H torsion
[ 27217 8160 8159 8158 ] final   -7.09 input    0.00 | X-H torsion
[ 27222 10090 10089 10088 ] final  118.60 input    0.00 | X-H torsion
[ 27224 10178 10177 10176 ] final    7.18 input   -0.00 | X-H torsion
[ 27229 7724 7723 7722 ] final  -32.10 input    0.00 | X-H torsion
[ 27231 7802 7801 7800 ] final  -36.16 input    0.00 | X-H torsion

> <Gold.Protein.ActiveResidues>
 ASP403  THR404  ILE407  TYR408  ALA410  LYS411  TRP414  GLN425  TRP426  SER427 
 LYS428  LEU429  GLN430  VAL431  PHE432  ASP433  TYR453  SER462  ALA463  ILE464 

> <Gold.Protein.RotatedAtoms>
  217.5157   42.7391   18.7906 H   0  0  0  0  0  0  0  0  0  0  0  0  # atno 6579 bound_to 6563
  220.1530   41.6683   19.7831 H   0  0  0  0  0  0  0  0  0  0  0  0  # atno 6671 bound_to 6647
  221.6396   38.2894   20.6686 H   0  0  0  0  0  0  0  0  0  0  0  0  # atno 6811 bound_to 6793
  229.4406   39.0063   20.4150 H   0  0  0  0  0  0  0  0  0  0  0  0  # atno 7895 bound_to 7879
  231.1350   41.9291   19.2149 H   0  0  0  0  0  0  0  0  0  0  0  0  # atno 7899 bound_to 7884
  228.9071   40.3460   17.6297 H   0  0  0  0  0  0  0  0  0  0  0  0  # atno 7948 bound_to 7929
  227.2247   40.9215   15.7888 H   0  0  0  0  0  0  0  0  0  0  0  0  # atno 8031 bound_to 8015
  226.4277   40.1764   12.4699 H   0  0  0  0  0  0  0  0  0  0  0  0  # atno 8111 bound_to 8093
  222.9603   39.9819   12.3897 H   0  0  0  0  0  0  0  0  0  0  0  0  # atno 8171 bound_to 8157
  219.2949   39.8141   11.5944 H   0  0  0  0  0  0  0  0  0  0  0  0  # atno 8251 bound_to 8229
  216.1518   40.2514    9.6379 H   0  0  0  0  0  0  0  0  0  0  0  0  # atno 8319 bound_to 8303
  228.2060   42.1221    7.3721 H   0  0  0  0  0  0  0  0  0  0  0  0  # atno 9566 bound_to 9530
  223.5219   35.6298   12.0562 H   0  0  0  0  0  0  0  0  0  0  0  0  # atno 10191 bound_to 10175
  216.4128   43.8593   17.0481 LP  0  0  0  0  0  0  0  0  0  0  0  0  # atno 27200 bound_to 6326
  216.4501   43.7786   18.7779 LP  0  0  0  0  0  0  0  0  0  0  0  0  # atno 27201 bound_to 6326
  217.4168   41.0125   18.5340 LP  0  0  0  0  0  0  0  0  0  0  0  0  # atno 27202 bound_to 6563
  221.3267   40.1788   20.3874 LP  0  0  0  0  0  0  0  0  0  0  0  0  # atno 27203 bound_to 6566
  221.3818   40.2193   18.6567 LP  0  0  0  0  0  0  0  0  0  0  0  0  # atno 27204 bound_to 6566
  219.2627   42.9913   20.4982 LP  0  0  0  0  0  0  0  0  0  0  0  0  # atno 27205 bound_to 6647
  228.0031   43.0341   18.5252 LP  0  0  0  0  0  0  0  0  0  0  0  0  # atno 27206 bound_to 7882
  228.4629   42.8253   16.8684 LP  0  0  0  0  0  0  0  0  0  0  0  0  # atno 27207 bound_to 7882
  229.4492   39.2164   13.3947 LP  0  0  0  0  0  0  0  0  0  0  0  0  # atno 27208 bound_to 7932
  229.7563   38.3729   14.8760 LP  0  0  0  0  0  0  0  0  0  0  0  0  # atno 27209 bound_to 7932
  228.5285   40.2444   14.8370 LP  0  0  0  0  0  0  0  0  0  0  0  0  # atno 27210 bound_to 8015
  224.0206   40.9208   14.4058 LP  0  0  0  0  0  0  0  0  0  0  0  0  # atno 27211 bound_to 8018
  225.4448   41.9065   14.3986 LP  0  0  0  0  0  0  0  0  0  0  0  0  # atno 27212 bound_to 8018
  225.2845   38.9374   12.9185 LP  0  0  0  0  0  0  0  0  0  0  0  0  # atno 27213 bound_to 8093
  223.5285   37.9493   11.1018 LP  0  0  0  0  0  0  0  0  0  0  0  0  # atno 27214 bound_to 8096
  222.4940   37.9882   12.4904 LP  0  0  0  0  0  0  0  0  0  0  0  0  # atno 27215 bound_to 8096
  222.1902   41.3727   11.6647 LP  0  0  0  0  0  0  0  0  0  0  0  0  # atno 27216 bound_to 8157
  219.7268   42.2023   11.9227 LP  0  0  0  0  0  0  0  0  0  0  0  0  # atno 27217 bound_to 8160
  218.8082   41.7417   10.5285 LP  0  0  0  0  0  0  0  0  0  0  0  0  # atno 27218 bound_to 8160
  220.0548   38.6921   10.4922 LP  0  0  0  0  0  0  0  0  0  0  0  0  # atno 27219 bound_to 8229
  227.7914   41.0105    8.4858 LP  0  0  0  0  0  0  0  0  0  0  0  0  # atno 27220 bound_to 9530
  226.8312   42.3050    8.2231 LP  0  0  0  0  0  0  0  0  0  0  0  0  # atno 27221 bound_to 9530
  226.6954   38.1061   10.0452 LP  0  0  0  0  0  0  0  0  0  0  0  0  # atno 27222 bound_to 10090
  227.3440   38.2333   11.6462 LP  0  0  0  0  0  0  0  0  0  0  0  0  # atno 27223 bound_to 10090
  220.9679   37.2657   11.2844 LP  0  0  0  0  0  0  0  0  0  0  0  0  # atno 27224 bound_to 10178
  219.3314   37.0596   10.7561 LP  0  0  0  0  0  0  0  0  0  0  0  0  # atno 27225 bound_to 10178
  216.9301   40.2398   11.2074 LP  0  0  0  0  0  0  0  0  0  0  0  0  # atno 27226 bound_to 8303
  222.6730   36.1762   10.6258 LP  0  0  0  0  0  0  0  0  0  0  0  0  # atno 27227 bound_to 10175
  230.5549   40.9145   17.7735 LP  0  0  0  0  0  0  0  0  0  0  0  0  # atno 27228 bound_to 7929
  231.4252   38.6777   16.7633 LP  0  0  0  0  0  0  0  0  0  0  0  0  # atno 27229 bound_to 7724
  230.0265   37.8840   17.4066 LP  0  0  0  0  0  0  0  0  0  0  0  0  # atno 27230 bound_to 7724
  227.6414   37.8221   18.5238 LP  0  0  0  0  0  0  0  0  0  0  0  0  # atno 27231 bound_to 7802
  227.3142   39.2453   19.4552 LP  0  0  0  0  0  0  0  0  0  0  0  0  # atno 27232 bound_to 7802
  230.5768   39.4849   19.1829 LP  0  0  0  0  0  0  0  0  0  0  0  0  # atno 27233 bound_to 7879
  231.6005   42.0724   20.7675 LP  0  0  0  0  0  0  0  0  0  0  0  0  # atno 27234 bound_to 7884
  230.9923   43.3623   19.9719 LP  0  0  0  0  0  0  0  0  0  0  0  0  # atno 27235 bound_to 7884

> <Gold.Score>
     Fitness  S(hb_ext) S(vdw_ext)  S(hb_int)    S(int)      intcor
     19.51       1.17      13.75       0.00      -0.56      -0.76

> <Gold.Goldscore.Fitness>
19.5112

> <Gold.Goldscore.Internal.Vdw>
-0.7931

> <Gold.Goldscore.Internal.Torsion>
-0.5307

> <Gold.Goldscore.External.Vdw>
13.7485

> <Gold.Goldscore.Internal.HBond>
0.0000

> <Gold.Goldscore.External.HBond>
1.1658

> <Gold.Goldscore.Internal.Correction>
-0.7650

> <Gold.Goldscore.Hbonds>
donor molecule, donor type, donor heavy atom, donor atom, acceptor molecule, acceptor atom, score
      P1  H  8093  8111       L1    17  0.35
      P1  H  9530  9566       L1     9  0.22
      L1  H     8    22       P1  9530  0.01

> <Gold.Goldscore.Internal.Vdw.Weighted>
-0.7931

> <Gold.Goldscore.Internal.Torsion.Weighted>
-0.5307

> <Gold.Goldscore.External.Vdw.Weighted>
18.9042

> <Gold.Goldscore.Internal.HBond.Weighted>
0.0000

> <Gold.Goldscore.External.HBond.Weighted>
1.1658

> <Gold.Goldscore.Internal.Correction.Weighted>
-0.7650

> <Gold.Rescore>
     Score     S(PLP)   S(hbond)     S(cho)   S(metal)  DE(clash)   DE(tors)     intcor
     25.36     -21.17       2.17       0.00       0.00       0.00       1.16       ----

> <Gold.PLP.Fitness>
25.3563

> <Gold.PLP.PLP>
-21.1678

> <Gold.PLP.part.hbond>
-3.2290

> <Gold.PLP.part.metal>
0.0000

> <Gold.PLP.part.buried>
-2.4244

> <Gold.PLP.part.nonpolar>
-16.3337

> <Gold.PLP.part.repulsive>
0.2519

> <Gold.PLP.ligand.clash>
0.0000

> <Gold.PLP.ligand.torsion>
1.1625

> <Gold.PLP.Chemscore.Hbond>
2.1712

> <Gold.PLP.Chemscore.CHOScore>
0.0000

> <Gold.PLP.Chemscore.Metal>
0.0000

> <Gold.Chemscore.Hbonds>
donor molecule, donor type, donor heavy atom, donor atom, acceptor molecule, acceptor atom, score
      L1  H     8    22       P1  9530  0.32
      P1  H  9530  9566       L1     9  0.90

> <Gold.PLP.Chemscore.Internal.Correction>
   9.000000E+99

#       Name:                CT1002167954
#       Creating user name   hitesit
#       Creation time:       Sun Apr 16 23:01:27 2023


#       File generated by GOLD software.
#

@<TRIPOS>MOLECULE
CT1002167954|ligand_prepared|mol2|1|dock5
    29    30     1
SMALL
NO_CHARGES


@<TRIPOS>ATOM
      1 C1         229.6307  43.6594  10.9935 C.3            1 RES1               0.0000
      2 C2         230.1762  45.0968  10.8707 C.ar           1 RES1               0.0000
      3 C3         229.5843  43.3448  12.4858 C.2            1 RES1               0.0000
      4 C4         228.2650  43.6620  10.3155 C.2            1 RES1               0.0000
      5 C5         230.5091  42.5959  10.2943 C.3            1 RES1               0.0000
      6 C6         230.5893  45.5951   9.6387 C.ar           1 RES1               0.0000
      7 C7         230.2697  45.9357  11.9779 C.ar           1 RES1               0.0000
      8 N8         228.3614  43.3221  13.0891 N.am           1 RES1               0.0000
      9 O9         230.6082  43.1584  13.1317 O.2            1 RES1               0.0000
     10 N10        227.1603  43.4419  11.0959 N.am           1 RES1               0.0000
     11 O11        228.1343  43.8692   9.1154 O.2            1 RES1               0.0000
     12 C12        230.0173  41.1702  10.4888 C.3            1 RES1               0.0000
     13 C13        231.0754  46.8864   9.5174 C.ar           1 RES1               0.0000
     14 C14        230.7564  47.2266  11.8545 C.ar           1 RES1               0.0000
     15 C15        227.1442  43.3026  12.4569 C.2            1 RES1               0.0000
     16 C16        231.1589  47.7030  10.6249 C.ar           1 RES1               0.0000
     17 O17        226.1046  43.1622  13.0947 O.2            1 RES1               0.0000
     18 H18        230.5409  42.8150   9.2199 H              1 RES1               0.0000
     19 H19        231.5323  42.6724  10.6824 H              1 RES1               0.0000
     20 H20        230.5332  44.9663   8.7564 H              1 RES1               0.0000
     21 H21        229.9598  45.5819  12.9554 H              1 RES1               0.0000
     22 H22        228.3510  43.3195  14.1040 H              1 RES1               0.0000
     23 H23        226.2674  43.3756  10.6178 H              1 RES1               0.0000
     24 H24        230.6691  40.4644   9.9782 H              1 RES1               0.0000
     25 H25        229.9971  40.9099  11.5450 H              1 RES1               0.0000
     26 H26        229.0115  41.0516  10.0912 H              1 RES1               0.0000
     27 H27        231.3922  47.2561   8.5478 H              1 RES1               0.0000
     28 H28        230.8209  47.8657  12.7289 H              1 RES1               0.0000
     29 H29        231.5394  48.7146  10.5296 H              1 RES1               0.0000
@<TRIPOS>BOND
    1    1    2 1     
    2    1    3 1     
    3    1    4 1     
    4    1    5 1     
    5    2    6 ar    
    6    2    7 ar    
    7    3    8 1     
    8    3    9 2     
    9    4   10 1     
   10    4   11 2     
   11    5   12 1     
   12    5   18 1     
   13    5   19 1     
   14    6   13 ar    
   15    6   20 1     
   16    7   14 ar    
   17    7   21 1     
   18    8   15 1     
   19    8   22 1     
   20   10   15 1     
   21   10   23 1     
   22   12   24 1     
   23   12   25 1     
   24   12   26 1     
   25   13   16 ar    
   26   13   27 1     
   27   14   16 ar    
   28   14   28 1     
   29   15   17 2     
   30   16   29 1     
@<TRIPOS>SUBSTRUCTURE
      1 RES1           1
@<TRIPOS>SET
DONOR_HYDROGENS      STATIC     ATOMS    <user>   **** ""
2 22 23
ATOM$RED        STATIC     ATOMS    COLORGROUP SYSTEM
2 22 23
@<TRIPOS>COMMENT
> <Gold.Version>
2022.3.0

> <Gold.Id.Protein>
unknown|4v3u_clean|pdb

> <Gold.Protein.RotatedTorsions>
[ 6579 6563 6564 6565 ] final  127.88 input  113.83 | X-H torsion
[ 6671 6647 6648 6649 ] final  169.50 input  129.80 | X-H torsion
[ 8031 8015 8016 8017 ] final  -76.42 input   49.80 | X-H torsion
[ 8111 8093 8094 8095 ] final   64.34 input   98.11 | X-H torsion
[ 8171 8157 8158 8159 ] final  109.32 input   64.44 | X-H torsion
[ 8251 8229 8230 8231 ] final   40.56 input   84.12 | X-H torsion
[ 9566 9530 9529 9527 ] final    4.19 input   60.01 | X-H torsion
[ 8319 8303 8304 8305 ] final  -44.33 input  100.38 | X-H torsion
[ 10191 10175 10176 10177 ] final  -41.52 input   40.16 | X-H torsion
[ 7948 7929 7930 7931 ] final  127.88 input   72.92 | X-H torsion
[ 7895 7879 7880 7881 ] final   48.56 input   93.72 | X-H torsion
[ 7899 7884 7883 7880 ] final  112.95 input   60.02 | X-H torsion
[ 6811 6793 6794 6795 ] final -138.50 input  121.38 | X-H torsion
[ 27200 6326 6325 6324 ] final  -55.33 input    0.00 | X-H torsion
[ 27203 6566 6565 6564 ] final   58.91 input   -0.00 | X-H torsion
[ 27206 7882 7881 7880 ] final -102.56 input   -0.00 | X-H torsion
[ 27208 7932 7931 7930 ] final   26.50 input    0.00 | X-H torsion
[ 27211 8018 8017 8016 ] final  -35.51 input    0.00 | X-H torsion
[ 27214 8096 8095 8094 ] final -150.70 input   -0.00 | X-H torsion
[ 27217 8160 8159 8158 ] final  168.36 input    0.00 | X-H torsion
[ 27222 10090 10089 10088 ] final   96.54 input    0.00 | X-H torsion
[ 27224 10178 10177 10176 ] final -166.38 input   -0.00 | X-H torsion
[ 27229 7724 7723 7722 ] final   61.45 input    0.00 | X-H torsion
[ 27231 7802 7801 7800 ] final  136.97 input    0.00 | X-H torsion

> <Gold.Protein.ActiveResidues>
 ASP403  THR404  ILE407  TYR408  ALA410  LYS411  TRP414  GLN425  TRP426  SER427 
 LYS428  LEU429  GLN430  VAL431  PHE432  ASP433  TYR453  SER462  ALA463  ILE464 

> <Gold.Protein.RotatedAtoms>
  217.4077   42.6675   18.2916 H   0  0  0  0  0  0  0  0  0  0  0  0  # atno 6579 bound_to 6563
  219.8125   43.1990   20.3095 H   0  0  0  0  0  0  0  0  0  0  0  0  # atno 6671 bound_to 6647
  222.0818   37.7816   19.0480 H   0  0  0  0  0  0  0  0  0  0  0  0  # atno 6811 bound_to 6793
  230.6965   39.5541   19.3471 H   0  0  0  0  0  0  0  0  0  0  0  0  # atno 7895 bound_to 7879
  230.9364   43.3098   19.7616 H   0  0  0  0  0  0  0  0  0  0  0  0  # atno 7899 bound_to 7884
  230.6294   40.6570   17.6982 H   0  0  0  0  0  0  0  0  0  0  0  0  # atno 7948 bound_to 7929
  228.2930   40.6549   14.5175 H   0  0  0  0  0  0  0  0  0  0  0  0  # atno 8031 bound_to 8015
  225.7501   38.8018   12.2520 H   0  0  0  0  0  0  0  0  0  0  0  0  # atno 8111 bound_to 8093
  222.5012   41.2482   12.7002 H   0  0  0  0  0  0  0  0  0  0  0  0  # atno 8171 bound_to 8157
  219.2870   38.5065   11.3145 H   0  0  0  0  0  0  0  0  0  0  0  0  # atno 8251 bound_to 8229
  216.4262   39.4579   10.0352 H   0  0  0  0  0  0  0  0  0  0  0  0  # atno 8319 bound_to 8303
  227.6032   42.5700    7.4743 H   0  0  0  0  0  0  0  0  0  0  0  0  # atno 9566 bound_to 9530
  222.7557   35.9483   10.5035 H   0  0  0  0  0  0  0  0  0  0  0  0  # atno 10191 bound_to 10175
  215.7710   43.2956   18.1126 LP  0  0  0  0  0  0  0  0  0  0  0  0  # atno 27200 bound_to 6326
  217.0920   44.3423   17.7134 LP  0  0  0  0  0  0  0  0  0  0  0  0  # atno 27201 bound_to 6326
  217.5219   41.0822   19.0198 LP  0  0  0  0  0  0  0  0  0  0  0  0  # atno 27202 bound_to 6563
  221.7915   40.5908   18.8853 LP  0  0  0  0  0  0  0  0  0  0  0  0  # atno 27203 bound_to 6566
  220.9170   39.8073   20.1587 LP  0  0  0  0  0  0  0  0  0  0  0  0  # atno 27204 bound_to 6566
  219.5954   41.4958   19.9839 LP  0  0  0  0  0  0  0  0  0  0  0  0  # atno 27205 bound_to 6647
  227.5881   42.4617   17.3574 LP  0  0  0  0  0  0  0  0  0  0  0  0  # atno 27206 bound_to 7882
  228.8778   43.3976   18.0362 LP  0  0  0  0  0  0  0  0  0  0  0  0  # atno 27207 bound_to 7882
  230.2891   38.8176   14.6630 LP  0  0  0  0  0  0  0  0  0  0  0  0  # atno 27208 bound_to 7932
  228.9164   38.7717   13.6077 LP  0  0  0  0  0  0  0  0  0  0  0  0  # atno 27209 bound_to 7932
  227.4943   40.5025   16.0676 LP  0  0  0  0  0  0  0  0  0  0  0  0  # atno 27210 bound_to 8015
  224.6885   40.9719   15.1458 LP  0  0  0  0  0  0  0  0  0  0  0  0  # atno 27211 bound_to 8018
  224.7769   41.8554   13.6586 LP  0  0  0  0  0  0  0  0  0  0  0  0  # atno 27212 bound_to 8018
  225.9530   40.2935   13.1334 LP  0  0  0  0  0  0  0  0  0  0  0  0  # atno 27213 bound_to 8093
  222.1861   38.0405   11.5429 LP  0  0  0  0  0  0  0  0  0  0  0  0  # atno 27214 bound_to 8096
  223.8363   37.8970   12.0492 LP  0  0  0  0  0  0  0  0  0  0  0  0  # atno 27215 bound_to 8096
  222.6392   40.1344   11.3610 LP  0  0  0  0  0  0  0  0  0  0  0  0  # atno 27216 bound_to 8157
  218.8643   41.7545   10.4907 LP  0  0  0  0  0  0  0  0  0  0  0  0  # atno 27217 bound_to 8160
  219.6707   42.1896   11.9605 LP  0  0  0  0  0  0  0  0  0  0  0  0  # atno 27218 bound_to 8160
  220.0625   39.9726   10.7663 LP  0  0  0  0  0  0  0  0  0  0  0  0  # atno 27219 bound_to 8229
  228.3224   41.1971    7.9702 LP  0  0  0  0  0  0  0  0  0  0  0  0  # atno 27220 bound_to 9530
  226.9073   41.6674    8.6358 LP  0  0  0  0  0  0  0  0  0  0  0  0  # atno 27221 bound_to 9530
  227.0177   38.1461    9.9800 LP  0  0  0  0  0  0  0  0  0  0  0  0  # atno 27222 bound_to 10090
  227.0217   38.1932   11.7114 LP  0  0  0  0  0  0  0  0  0  0  0  0  # atno 27223 bound_to 10090
  219.3059   37.0684   10.8496 LP  0  0  0  0  0  0  0  0  0  0  0  0  # atno 27224 bound_to 10178
  220.9935   37.2569   11.1909 LP  0  0  0  0  0  0  0  0  0  0  0  0  # atno 27225 bound_to 10178
  216.6662   41.0031   10.8252 LP  0  0  0  0  0  0  0  0  0  0  0  0  # atno 27226 bound_to 8303
  223.4126   35.8688   12.1245 LP  0  0  0  0  0  0  0  0  0  0  0  0  # atno 27227 bound_to 10175
  228.8809   40.6123   17.7068 LP  0  0  0  0  0  0  0  0  0  0  0  0  # atno 27228 bound_to 7929
  230.8127   37.5916   16.5680 LP  0  0  0  0  0  0  0  0  0  0  0  0  # atno 27229 bound_to 7724
  230.6390   38.9702   17.6020 LP  0  0  0  0  0  0  0  0  0  0  0  0  # atno 27230 bound_to 7724
  227.2890   39.1811   19.5328 LP  0  0  0  0  0  0  0  0  0  0  0  0  # atno 27231 bound_to 7802
  227.6666   37.8862   18.4463 LP  0  0  0  0  0  0  0  0  0  0  0  0  # atno 27232 bound_to 7802
  229.3316   38.9417   20.2417 LP  0  0  0  0  0  0  0  0  0  0  0  0  # atno 27233 bound_to 7879
  231.2222   41.7646   19.3393 LP  0  0  0  0  0  0  0  0  0  0  0  0  # atno 27234 bound_to 7884
  231.5708   42.2793   20.8494 LP  0  0  0  0  0  0  0  0  0  0  0  0  # atno 27235 bound_to 7884

> <Gold.Score>
     Fitness  S(hb_ext) S(vdw_ext)  S(hb_int)    S(int)      intcor
     18.80       6.00      10.37       0.00      -1.46      -0.76

> <Gold.Goldscore.Fitness>
18.7956

> <Gold.Goldscore.Internal.Vdw>
-1.8389

> <Gold.Goldscore.Internal.Torsion>
-0.3902

> <Gold.Goldscore.External.Vdw>
10.3707

> <Gold.Goldscore.Internal.HBond>
0.0000

> <Gold.Goldscore.External.HBond>
6.0000

> <Gold.Goldscore.Internal.Correction>
-0.7650

> <Gold.Goldscore.Hbonds>
donor molecule, donor type, donor heavy atom, donor atom, acceptor molecule, acceptor atom, score
      L1  H    10    23       P1  8101  1.00

> <Gold.Goldscore.Internal.Vdw.Weighted>
-1.8389

> <Gold.Goldscore.Internal.Torsion.Weighted>
-0.3902

> <Gold.Goldscore.External.Vdw.Weighted>
14.2597

> <Gold.Goldscore.Internal.HBond.Weighted>
0.0000

> <Gold.Goldscore.External.HBond.Weighted>
6.0000

> <Gold.Goldscore.Internal.Correction.Weighted>
-0.7650

> <Gold.Rescore>
     Score     S(PLP)   S(hbond)     S(cho)   S(metal)  DE(clash)   DE(tors)     intcor
     15.50     -13.64       1.09       0.00       0.00       1.36       0.02       ----

> <Gold.PLP.Fitness>
15.4955

> <Gold.PLP.PLP>
-13.6392

> <Gold.PLP.part.hbond>
-2.0000

> <Gold.PLP.part.metal>
0.0000

> <Gold.PLP.part.buried>
-3.9772

> <Gold.PLP.part.nonpolar>
-7.7222

> <Gold.PLP.part.repulsive>
0.2457

> <Gold.PLP.ligand.clash>
1.3607

> <Gold.PLP.ligand.torsion>
0.0225

> <Gold.PLP.Chemscore.Hbond>
1.0874

> <Gold.PLP.Chemscore.CHOScore>
0.0000

> <Gold.PLP.Chemscore.Metal>
0.0000

> <Gold.Chemscore.Hbonds>
donor molecule, donor type, donor heavy atom, donor atom, acceptor molecule, acceptor atom, score
      L1  H    10    23       P1  8101  0.91
      P1  H  9530  9566       L1    11  0.19

> <Gold.PLP.Chemscore.Internal.Correction>
   9.000000E+99

