#       Name:                CT1002167954
#       Creating user name   hitesit
#       Creation time:       Sun Apr 16 23:01:26 2023


#       File generated by GOLD software.
#

@<TRIPOS>MOLECULE
CT1002167954|ligand_prepared|mol2|1|dock3
    29    30     1
SMALL
NO_CHARGES


@<TRIPOS>ATOM
      1 C1         230.1913  41.7133  10.7516 C.3            1 RES1               0.0000
      2 C2         230.1945  42.7318   9.5935 C.ar           1 RES1               0.0000
      3 C3         230.5244  42.5007  12.0155 C.2            1 RES1               0.0000
      4 C4         228.8039  41.0811  10.7600 C.2            1 RES1               0.0000
      5 C5         231.2316  40.5805  10.5902 C.3            1 RES1               0.0000
      6 C6         229.5239  43.9452   9.7151 C.ar           1 RES1               0.0000
      7 C7         230.8645  42.4738   8.4005 C.ar           1 RES1               0.0000
      8 N8         229.5102  42.7434  12.8944 N.am           1 RES1               0.0000
      9 O9         231.6511  42.9360  12.2189 O.2            1 RES1               0.0000
     10 N10        227.9971  41.3176  11.8421 N.am           1 RES1               0.0000
     11 O11        228.3959  40.3939   9.8318 O.2            1 RES1               0.0000
     12 C12        231.3431  39.6727  11.8050 C.3            1 RES1               0.0000
     13 C13        229.5255  44.8685   8.6827 C.ar           1 RES1               0.0000
     14 C14        230.8646  43.3985   7.3693 C.ar           1 RES1               0.0000
     15 C15        228.2758  42.1452  12.8955 C.2            1 RES1               0.0000
     16 C16        230.1961  44.5961   7.5094 C.ar           1 RES1               0.0000
     17 O17        227.4767  42.3498  13.8047 O.2            1 RES1               0.0000
     18 H18        230.9591  39.9723   9.7188 H              1 RES1               0.0000
     19 H19        232.2135  41.0282  10.3928 H              1 RES1               0.0000
     20 H20        228.9885  44.1761  10.6300 H              1 RES1               0.0000
     21 H21        231.3963  41.5378   8.2676 H              1 RES1               0.0000
     22 H22        229.6858  43.4337  13.6176 H              1 RES1               0.0000
     23 H23        227.1062  40.8316  11.8644 H              1 RES1               0.0000
     24 H24        232.0863  38.8957  11.6390 H              1 RES1               0.0000
     25 H25        231.6373  40.2406  12.6852 H              1 RES1               0.0000
     26 H26        230.3903  39.1910  12.0153 H              1 RES1               0.0000
     27 H27        228.9966  45.8090   8.7975 H              1 RES1               0.0000
     28 H28        231.3933  43.1796   6.4474 H              1 RES1               0.0000
     29 H29        230.1975  45.3197   6.7010 H              1 RES1               0.0000
@<TRIPOS>BOND
    1    1    2 1     
    2    1    3 1     
    3    1    4 1     
    4    1    5 1     
    5    2    6 ar    
    6    2    7 ar    
    7    3    8 1     
    8    3    9 2     
    9    4   10 1     
   10    4   11 2     
   11    5   12 1     
   12    5   18 1     
   13    5   19 1     
   14    6   13 ar    
   15    6   20 1     
   16    7   14 ar    
   17    7   21 1     
   18    8   15 1     
   19    8   22 1     
   20   10   15 1     
   21   10   23 1     
   22   12   24 1     
   23   12   25 1     
   24   12   26 1     
   25   13   16 ar    
   26   13   27 1     
   27   14   16 ar    
   28   14   28 1     
   29   15   17 2     
   30   16   29 1     
@<TRIPOS>SUBSTRUCTURE
      1 RES1           1
@<TRIPOS>SET
DONOR_HYDROGENS      STATIC     ATOMS    <user>   **** ""
2 22 23
ATOM$RED        STATIC     ATOMS    COLORGROUP SYSTEM
2 22 23
@<TRIPOS>COMMENT
> <Gold.Version>
2022.3.0

> <Gold.Id.Protein>
unknown|4v3u_clean|pdb

> <Gold.Protein.RotatedTorsions>
[ 6579 6563 6564 6565 ] final -103.83 input  113.83 | X-H torsion
[ 6671 6647 6648 6649 ] final  145.06 input  129.80 | X-H torsion
[ 8031 8015 8016 8017 ] final  -10.55 input   49.80 | X-H torsion
[ 8111 8093 8094 8095 ] final  -22.26 input   98.11 | X-H torsion
[ 8171 8157 8158 8159 ] final  -12.11 input   64.44 | X-H torsion
[ 8251 8229 8230 8231 ] final  102.14 input   84.12 | X-H torsion
[ 9566 9530 9529 9527 ] final -108.21 input   60.01 | X-H torsion
[ 8319 8303 8304 8305 ] final  -23.49 input  100.38 | X-H torsion
[ 10191 10175 10176 10177 ] final   78.65 input   40.16 | X-H torsion
[ 7948 7929 7930 7931 ] final -152.33 input   72.92 | X-H torsion
[ 7895 7879 7880 7881 ] final   65.38 input   93.72 | X-H torsion
[ 7899 7884 7883 7880 ] final -112.78 input   60.02 | X-H torsion
[ 6811 6793 6794 6795 ] final -134.17 input  121.38 | X-H torsion
[ 27200 6326 6325 6324 ] final  -84.29 input    0.00 | X-H torsion
[ 27203 6566 6565 6564 ] final  -17.70 input   -0.00 | X-H torsion
[ 27206 7882 7881 7880 ] final  -58.69 input   -0.00 | X-H torsion
[ 27208 7932 7931 7930 ] final    7.52 input    0.00 | X-H torsion
[ 27211 8018 8017 8016 ] final -132.75 input    0.00 | X-H torsion
[ 27214 8096 8095 8094 ] final  -78.96 input   -0.00 | X-H torsion
[ 27217 8160 8159 8158 ] final   82.01 input    0.00 | X-H torsion
[ 27222 10090 10089 10088 ] final   65.99 input    0.00 | X-H torsion
[ 27224 10178 10177 10176 ] final  -30.90 input   -0.00 | X-H torsion
[ 27229 7724 7723 7722 ] final   11.45 input    0.00 | X-H torsion
[ 27231 7802 7801 7800 ] final -123.48 input    0.00 | X-H torsion

> <Gold.Protein.ActiveResidues>
 ASP403  THR404  ILE407  TYR408  ALA410  LYS411  TRP414  GLN425  TRP426  SER427 
 LYS428  LEU429  GLN430  VAL431  PHE432  ASP433  TYR453  SER462  ALA463  ILE464 

> <Gold.Protein.RotatedAtoms>
  217.3734   41.0736   18.2718 H   0  0  0  0  0  0  0  0  0  0  0  0  # atno 6579 bound_to 6563
  219.4702   43.1352   20.4465 H   0  0  0  0  0  0  0  0  0  0  0  0  # atno 6671 bound_to 6647
  222.0856   37.7162   19.0618 H   0  0  0  0  0  0  0  0  0  0  0  0  # atno 6811 bound_to 6793
  230.7699   39.6262   19.5815 H   0  0  0  0  0  0  0  0  0  0  0  0  # atno 7895 bound_to 7879
  231.5969   42.0663   20.7579 H   0  0  0  0  0  0  0  0  0  0  0  0  # atno 7899 bound_to 7884
  229.8792   41.4881   17.9002 H   0  0  0  0  0  0  0  0  0  0  0  0  # atno 7948 bound_to 7929
  227.5579   41.2220   14.7881 H   0  0  0  0  0  0  0  0  0  0  0  0  # atno 8031 bound_to 8015
  225.2329   39.2534   13.2416 H   0  0  0  0  0  0  0  0  0  0  0  0  # atno 8111 bound_to 8093
  222.2759   40.8948   11.2173 H   0  0  0  0  0  0  0  0  0  0  0  0  # atno 8171 bound_to 8157
  219.8842   38.4883   10.6367 H   0  0  0  0  0  0  0  0  0  0  0  0  # atno 8251 bound_to 8229
  216.2998   39.6568    9.8142 H   0  0  0  0  0  0  0  0  0  0  0  0  # atno 8319 bound_to 8303
  228.3628   41.2744    7.8810 H   0  0  0  0  0  0  0  0  0  0  0  0  # atno 9566 bound_to 9530
  222.8637   36.5212   11.9335 H   0  0  0  0  0  0  0  0  0  0  0  0  # atno 10191 bound_to 10175
  215.9426   43.4041   18.4951 LP  0  0  0  0  0  0  0  0  0  0  0  0  # atno 27200 bound_to 6326
  216.9204   44.2339   17.3309 LP  0  0  0  0  0  0  0  0  0  0  0  0  # atno 27201 bound_to 6326
  217.5553   42.6340   19.0391 LP  0  0  0  0  0  0  0  0  0  0  0  0  # atno 27202 bound_to 6563
  220.9976   39.8728   18.8034 LP  0  0  0  0  0  0  0  0  0  0  0  0  # atno 27203 bound_to 6566
  221.7109   40.5253   20.2406 LP  0  0  0  0  0  0  0  0  0  0  0  0  # atno 27204 bound_to 6566
  219.9298   41.5581   19.8500 LP  0  0  0  0  0  0  0  0  0  0  0  0  # atno 27205 bound_to 6647
  227.4922   42.5859   17.9851 LP  0  0  0  0  0  0  0  0  0  0  0  0  # atno 27206 bound_to 7882
  228.9737   43.2735   17.4085 LP  0  0  0  0  0  0  0  0  0  0  0  0  # atno 27207 bound_to 7882
  230.3765   39.0029   14.4641 LP  0  0  0  0  0  0  0  0  0  0  0  0  # atno 27208 bound_to 7932
  228.8291   38.5864   13.8067 LP  0  0  0  0  0  0  0  0  0  0  0  0  # atno 27209 bound_to 7932
  228.2059   39.9535   15.8056 LP  0  0  0  0  0  0  0  0  0  0  0  0  # atno 27210 bound_to 8015
  224.0040   41.1065   14.0492 LP  0  0  0  0  0  0  0  0  0  0  0  0  # atno 27211 bound_to 8018
  225.4614   41.7208   14.7552 LP  0  0  0  0  0  0  0  0  0  0  0  0  # atno 27212 bound_to 8018
  226.4633   39.8480   12.1572 LP  0  0  0  0  0  0  0  0  0  0  0  0  # atno 27213 bound_to 8093
  222.9943   37.9960   10.9306 LP  0  0  0  0  0  0  0  0  0  0  0  0  # atno 27214 bound_to 8096
  223.0282   37.9415   12.6615 LP  0  0  0  0  0  0  0  0  0  0  0  0  # atno 27215 bound_to 8096
  222.8594   40.4800   12.8112 LP  0  0  0  0  0  0  0  0  0  0  0  0  # atno 27216 bound_to 8157
  219.9629   42.1267   10.7332 LP  0  0  0  0  0  0  0  0  0  0  0  0  # atno 27217 bound_to 8160
  218.5721   41.8174   11.7180 LP  0  0  0  0  0  0  0  0  0  0  0  0  # atno 27218 bound_to 8160
  219.4776   39.9904   11.4301 LP  0  0  0  0  0  0  0  0  0  0  0  0  # atno 27219 bound_to 8229
  226.9683   41.5633    8.6684 LP  0  0  0  0  0  0  0  0  0  0  0  0  # atno 27220 bound_to 9530
  227.4964   42.6059    7.5280 LP  0  0  0  0  0  0  0  0  0  0  0  0  # atno 27221 bound_to 9530
  227.4547   38.2059   10.0977 LP  0  0  0  0  0  0  0  0  0  0  0  0  # atno 27222 bound_to 10090
  226.5848   38.1334   11.5937 LP  0  0  0  0  0  0  0  0  0  0  0  0  # atno 27223 bound_to 10090
  220.6251   37.2889   11.7330 LP  0  0  0  0  0  0  0  0  0  0  0  0  # atno 27224 bound_to 10178
  219.6742   37.0363   10.3075 LP  0  0  0  0  0  0  0  0  0  0  0  0  # atno 27225 bound_to 10178
  216.7877   40.8119   11.0378 LP  0  0  0  0  0  0  0  0  0  0  0  0  # atno 27226 bound_to 8303
  223.3084   35.3157   10.7442 LP  0  0  0  0  0  0  0  0  0  0  0  0  # atno 27227 bound_to 10175
  229.6101   39.8044   17.5105 LP  0  0  0  0  0  0  0  0  0  0  0  0  # atno 27228 bound_to 7929
  231.3226   38.1096   16.4812 LP  0  0  0  0  0  0  0  0  0  0  0  0  # atno 27229 bound_to 7724
  230.1291   38.4521   17.6888 LP  0  0  0  0  0  0  0  0  0  0  0  0  # atno 27230 bound_to 7724
  227.7058   38.9934   18.2919 LP  0  0  0  0  0  0  0  0  0  0  0  0  # atno 27231 bound_to 7802
  227.2498   38.0739   19.6871 LP  0  0  0  0  0  0  0  0  0  0  0  0  # atno 27232 bound_to 7802
  229.2587   38.8702   20.0093 LP  0  0  0  0  0  0  0  0  0  0  0  0  # atno 27233 bound_to 7879
  230.9950   43.3631   19.9810 LP  0  0  0  0  0  0  0  0  0  0  0  0  # atno 27234 bound_to 7884
  231.1325   41.9334   19.2041 LP  0  0  0  0  0  0  0  0  0  0  0  0  # atno 27235 bound_to 7884

> <Gold.Score>
     Fitness  S(hb_ext) S(vdw_ext)  S(hb_int)    S(int)      intcor
     33.56       5.41      20.53       0.00      -0.08      -0.76

> <Gold.Goldscore.Fitness>
33.5593

> <Gold.Goldscore.Internal.Vdw>
-0.3961

> <Gold.Goldscore.Internal.Torsion>
-0.4446

> <Gold.Goldscore.External.Vdw>
20.5285

> <Gold.Goldscore.Internal.HBond>
0.0000

> <Gold.Goldscore.External.HBond>
5.4085

> <Gold.Goldscore.Internal.Correction>
-0.7650

> <Gold.Goldscore.Hbonds>
donor molecule, donor type, donor heavy atom, donor atom, acceptor molecule, acceptor atom, score
      P1  H  8015  8031       L1    17  0.09
      L1  H    10    23       P1  8093  0.87

> <Gold.Goldscore.Internal.Vdw.Weighted>
-0.3961

> <Gold.Goldscore.Internal.Torsion.Weighted>
-0.4446

> <Gold.Goldscore.External.Vdw.Weighted>
28.2266

> <Gold.Goldscore.Internal.HBond.Weighted>
0.0000

> <Gold.Goldscore.External.HBond.Weighted>
5.4085

> <Gold.Goldscore.Internal.Correction.Weighted>
-0.7650

> <Gold.Rescore>
     Score     S(PLP)   S(hbond)     S(cho)   S(metal)  DE(clash)   DE(tors)     intcor
     31.23     -26.52       1.71       0.00       0.00       0.00       0.21       ----

> <Gold.PLP.Fitness>
31.2276

> <Gold.PLP.PLP>
-26.5241

> <Gold.PLP.part.hbond>
-1.8701

> <Gold.PLP.part.metal>
0.0000

> <Gold.PLP.part.buried>
-6.1212

> <Gold.PLP.part.nonpolar>
-18.8757

> <Gold.PLP.part.repulsive>
0.2996

> <Gold.PLP.ligand.clash>
0.0000

> <Gold.PLP.ligand.torsion>
0.2136

> <Gold.PLP.Chemscore.Hbond>
1.7103

> <Gold.PLP.Chemscore.CHOScore>
0.0000

> <Gold.PLP.Chemscore.Metal>
0.0000

> <Gold.Chemscore.Hbonds>
donor molecule, donor type, donor heavy atom, donor atom, acceptor molecule, acceptor atom, score
      L1  H    10    23       P1  8093  1.00
      P1  H  8015  8031       L1    17  0.75
      P1  H  9530  9566       L1    11  0.07

> <Gold.PLP.Chemscore.Internal.Correction>
   9.000000E+99

