#       Name:                CT1002167954
#       Creating user name   hitesit
#       Creation time:       Sun Apr 16 23:01:29 2023


#       File generated by GOLD software.
#

@<TRIPOS>MOLECULE
CT1002167954|ligand_prepared|mol2|1|dock8
    29    30     1
SMALL
NO_CHARGES


@<TRIPOS>ATOM
      1 C1         223.8540  45.7207  12.5934 C.3            1 RES1               0.0000
      2 C2         225.0449  45.2901  11.7130 C.ar           1 RES1               0.0000
      3 C3         222.6325  44.9837  12.0522 C.2            1 RES1               0.0000
      4 C4         224.2236  45.3455  14.0242 C.2            1 RES1               0.0000
      5 C5         223.5672  47.2399  12.5569 C.3            1 RES1               0.0000
      6 C6         225.2415  45.8601  10.4588 C.ar           1 RES1               0.0000
      7 C7         225.9551  44.3276  12.1417 C.ar           1 RES1               0.0000
      8 N8         222.1476  43.9410  12.7853 N.am           1 RES1               0.0000
      9 O9         222.1264  45.2877  10.9790 O.2            1 RES1               0.0000
     10 N10        223.4808  44.3764  14.6461 N.am           1 RES1               0.0000
     11 O11        225.1619  45.8684  14.6129 O.2            1 RES1               0.0000
     12 C12        222.5634  47.6997  13.6024 C.3            1 RES1               0.0000
     13 C13        226.3110  45.4839   9.6632 C.ar           1 RES1               0.0000
     14 C14        227.0238  43.9526  11.3444 C.ar           1 RES1               0.0000
     15 C15        222.4790  43.6354  14.0808 C.2            1 RES1               0.0000
     16 C16        227.2030  44.5304  10.1055 C.ar           1 RES1               0.0000
     17 O17        221.8936  42.7432  14.6878 O.2            1 RES1               0.0000
     18 H18        224.5092  47.7809  12.7098 H              1 RES1               0.0000
     19 H19        223.1868  47.5036  11.5623 H              1 RES1               0.0000
     20 H20        224.5485  46.6104  10.0928 H              1 RES1               0.0000
     21 H21        225.8333  43.8589  13.1123 H              1 RES1               0.0000
     22 H22        221.4766  43.3320  12.3279 H              1 RES1               0.0000
     23 H23        223.6943  44.1902  15.6209 H              1 RES1               0.0000
     24 H24        222.3985  48.7729  13.5331 H              1 RES1               0.0000
     25 H25        221.6067  47.2002  13.4645 H              1 RES1               0.0000
     26 H26        222.9212  47.4758  14.6053 H              1 RES1               0.0000
     27 H27        226.4468  45.9406   8.6884 H              1 RES1               0.0000
     28 H28        227.7230  43.2013  11.6963 H              1 RES1               0.0000
     29 H29        228.0409  44.2361   9.4822 H              1 RES1               0.0000
@<TRIPOS>BOND
    1    1    2 1     
    2    1    3 1     
    3    1    4 1     
    4    1    5 1     
    5    2    6 ar    
    6    2    7 ar    
    7    3    8 1     
    8    3    9 2     
    9    4   10 1     
   10    4   11 2     
   11    5   12 1     
   12    5   18 1     
   13    5   19 1     
   14    6   13 ar    
   15    6   20 1     
   16    7   14 ar    
   17    7   21 1     
   18    8   15 1     
   19    8   22 1     
   20   10   15 1     
   21   10   23 1     
   22   12   24 1     
   23   12   25 1     
   24   12   26 1     
   25   13   16 ar    
   26   13   27 1     
   27   14   16 ar    
   28   14   28 1     
   29   15   17 2     
   30   16   29 1     
@<TRIPOS>SUBSTRUCTURE
      1 RES1           1
@<TRIPOS>SET
DONOR_HYDROGENS      STATIC     ATOMS    <user>   **** ""
2 22 23
ATOM$RED        STATIC     ATOMS    COLORGROUP SYSTEM
2 22 23
@<TRIPOS>COMMENT
> <Gold.Version>
2022.3.0

> <Gold.Id.Protein>
unknown|4v3u_clean|pdb

> <Gold.Protein.RotatedTorsions>
[ 6579 6563 6564 6565 ] final    0.10 input  113.83 | X-H torsion
[ 6671 6647 6648 6649 ] final   57.28 input  129.80 | X-H torsion
[ 8031 8015 8016 8017 ] final -174.03 input   49.80 | X-H torsion
[ 8111 8093 8094 8095 ] final -154.34 input   98.11 | X-H torsion
[ 8171 8157 8158 8159 ] final   88.88 input   64.44 | X-H torsion
[ 8251 8229 8230 8231 ] final  135.07 input   84.12 | X-H torsion
[ 9566 9530 9529 9527 ] final   28.53 input   60.01 | X-H torsion
[ 8319 8303 8304 8305 ] final   56.43 input  100.38 | X-H torsion
[ 10191 10175 10176 10177 ] final  -21.28 input   40.16 | X-H torsion
[ 7948 7929 7930 7931 ] final  -46.06 input   72.92 | X-H torsion
[ 7895 7879 7880 7881 ] final   53.87 input   93.72 | X-H torsion
[ 7899 7884 7883 7880 ] final  131.79 input   60.02 | X-H torsion
[ 6811 6793 6794 6795 ] final   83.65 input  121.38 | X-H torsion
[ 27200 6326 6325 6324 ] final  117.24 input    0.00 | X-H torsion
[ 27203 6566 6565 6564 ] final   88.62 input   -0.00 | X-H torsion
[ 27206 7882 7881 7880 ] final   86.53 input   -0.00 | X-H torsion
[ 27208 7932 7931 7930 ] final  -98.93 input    0.00 | X-H torsion
[ 27211 8018 8017 8016 ] final -103.96 input    0.00 | X-H torsion
[ 27214 8096 8095 8094 ] final -153.41 input   -0.00 | X-H torsion
[ 27217 8160 8159 8158 ] final  -32.89 input    0.00 | X-H torsion
[ 27222 10090 10089 10088 ] final   51.66 input    0.00 | X-H torsion
[ 27224 10178 10177 10176 ] final   84.48 input   -0.00 | X-H torsion
[ 27229 7724 7723 7722 ] final  109.04 input    0.00 | X-H torsion
[ 27231 7802 7801 7800 ] final -178.00 input    0.00 | X-H torsion

> <Gold.Protein.ActiveResidues>
 ASP403  THR404  ILE407  TYR408  ALA410  LYS411  TRP414  GLN425  TRP426  SER427 
 LYS428  LEU429  GLN430  VAL431  PHE432  ASP433  TYR453  SER462  ALA463  ILE464 

> <Gold.Protein.RotatedAtoms>
  217.6481   41.6668   19.5047 H   0  0  0  0  0  0  0  0  0  0  0  0  # atno 6579 bound_to 6563
  218.9183   42.0410   20.4246 H   0  0  0  0  0  0  0  0  0  0  0  0  # atno 6671 bound_to 6647
  221.6643   38.5963   20.4267 H   0  0  0  0  0  0  0  0  0  0  0  0  # atno 6811 bound_to 6793
  230.7263   39.5801   19.4178 H   0  0  0  0  0  0  0  0  0  0  0  0  # atno 7895 bound_to 7879
  231.0172   43.3592   20.0529 H   0  0  0  0  0  0  0  0  0  0  0  0  # atno 7899 bound_to 7884
  228.8632   40.5238   17.6725 H   0  0  0  0  0  0  0  0  0  0  0  0  # atno 7948 bound_to 7929
  228.3603   39.8906   15.6143 H   0  0  0  0  0  0  0  0  0  0  0  0  # atno 8031 bound_to 8015
  226.3233   40.2938   12.6898 H   0  0  0  0  0  0  0  0  0  0  0  0  # atno 8111 bound_to 8093
  222.3708   41.4192   12.4720 H   0  0  0  0  0  0  0  0  0  0  0  0  # atno 8171 bound_to 8157
  220.1534   38.8449   10.4117 H   0  0  0  0  0  0  0  0  0  0  0  0  # atno 8251 bound_to 8229
  216.1868   40.7978    9.8366 H   0  0  0  0  0  0  0  0  0  0  0  0  # atno 8319 bound_to 8303
  227.2694   42.6138    7.6805 H   0  0  0  0  0  0  0  0  0  0  0  0  # atno 9566 bound_to 9530
  222.6240   36.2031   10.6288 H   0  0  0  0  0  0  0  0  0  0  0  0  # atno 10191 bound_to 10175
  217.0627   44.3264   17.6063 LP  0  0  0  0  0  0  0  0  0  0  0  0  # atno 27200 bound_to 6326
  215.8003   43.3115   18.2196 LP  0  0  0  0  0  0  0  0  0  0  0  0  # atno 27201 bound_to 6326
  217.2879   42.0565   17.8388 LP  0  0  0  0  0  0  0  0  0  0  0  0  # atno 27202 bound_to 6563
  221.9674   40.7518   19.2601 LP  0  0  0  0  0  0  0  0  0  0  0  0  # atno 27203 bound_to 6566
  220.7411   39.6463   19.7839 LP  0  0  0  0  0  0  0  0  0  0  0  0  # atno 27204 bound_to 6566
  220.4690   42.6271   19.8714 LP  0  0  0  0  0  0  0  0  0  0  0  0  # atno 27205 bound_to 6647
  228.9326   43.3932   17.9104 LP  0  0  0  0  0  0  0  0  0  0  0  0  # atno 27206 bound_to 7882
  227.5333   42.4662   17.4832 LP  0  0  0  0  0  0  0  0  0  0  0  0  # atno 27207 bound_to 7882
  229.5173   39.2488   13.4030 LP  0  0  0  0  0  0  0  0  0  0  0  0  # atno 27208 bound_to 7932
  229.6883   38.3405   14.8678 LP  0  0  0  0  0  0  0  0  0  0  0  0  # atno 27209 bound_to 7932
  227.4292   41.2423   15.0059 LP  0  0  0  0  0  0  0  0  0  0  0  0  # atno 27210 bound_to 8015
  224.0280   40.9112   14.4322 LP  0  0  0  0  0  0  0  0  0  0  0  0  # atno 27211 bound_to 8018
  225.4375   41.9161   14.3722 LP  0  0  0  0  0  0  0  0  0  0  0  0  # atno 27212 bound_to 8018
  225.3875   38.8216   12.7015 LP  0  0  0  0  0  0  0  0  0  0  0  0  # atno 27213 bound_to 8093
  222.1751   38.0402   11.5823 LP  0  0  0  0  0  0  0  0  0  0  0  0  # atno 27214 bound_to 8096
  223.8474   37.8973   12.0099 LP  0  0  0  0  0  0  0  0  0  0  0  0  # atno 27215 bound_to 8096
  222.7666   39.9672   11.5842 LP  0  0  0  0  0  0  0  0  0  0  0  0  # atno 27216 bound_to 8157
  219.3814   42.1136   12.0723 LP  0  0  0  0  0  0  0  0  0  0  0  0  # atno 27217 bound_to 8160
  219.1536   41.8305   10.3788 LP  0  0  0  0  0  0  0  0  0  0  0  0  # atno 27218 bound_to 8160
  219.2140   39.6413   11.6504 LP  0  0  0  0  0  0  0  0  0  0  0  0  # atno 27219 bound_to 8229
  228.4251   41.4683    7.6983 LP  0  0  0  0  0  0  0  0  0  0  0  0  # atno 27220 bound_to 9530
  227.1407   41.3521    8.7001 LP  0  0  0  0  0  0  0  0  0  0  0  0  # atno 27221 bound_to 9530
  227.6243   38.2315   10.2287 LP  0  0  0  0  0  0  0  0  0  0  0  0  # atno 27222 bound_to 10090
  226.4151   38.1079   11.4626 LP  0  0  0  0  0  0  0  0  0  0  0  0  # atno 27223 bound_to 10090
  220.5962   37.1139   10.2799 LP  0  0  0  0  0  0  0  0  0  0  0  0  # atno 27224 bound_to 10178
  219.7031   37.2114   11.7607 LP  0  0  0  0  0  0  0  0  0  0  0  0  # atno 27225 bound_to 10178
  216.8965   39.7142   11.0163 LP  0  0  0  0  0  0  0  0  0  0  0  0  # atno 27226 bound_to 8303
  223.5398   35.6228   12.0036 LP  0  0  0  0  0  0  0  0  0  0  0  0  # atno 27227 bound_to 10175
  230.5976   40.7417   17.7319 LP  0  0  0  0  0  0  0  0  0  0  0  0  # atno 27228 bound_to 7929
  230.2631   37.5540   16.9979 LP  0  0  0  0  0  0  0  0  0  0  0  0  # atno 27229 bound_to 7724
  231.1886   39.0077   17.1721 LP  0  0  0  0  0  0  0  0  0  0  0  0  # atno 27230 bound_to 7724
  227.4855   39.3981   18.9376 LP  0  0  0  0  0  0  0  0  0  0  0  0  # atno 27231 bound_to 7802
  227.4702   37.6692   19.0414 LP  0  0  0  0  0  0  0  0  0  0  0  0  # atno 27232 bound_to 7802
  229.3020   38.9160   20.1716 LP  0  0  0  0  0  0  0  0  0  0  0  0  # atno 27233 bound_to 7879
  231.1049   41.9948   19.1706 LP  0  0  0  0  0  0  0  0  0  0  0  0  # atno 27234 bound_to 7884
  231.6066   41.9993   20.7246 LP  0  0  0  0  0  0  0  0  0  0  0  0  # atno 27235 bound_to 7884

> <Gold.Score>
     Fitness  S(hb_ext) S(vdw_ext)  S(hb_int)    S(int)      intcor
     19.67       0.45      14.69       0.00      -0.97      -0.76

> <Gold.Goldscore.Fitness>
19.6682

> <Gold.Goldscore.Internal.Vdw>
-1.2110

> <Gold.Goldscore.Internal.Torsion>
-0.5275

> <Gold.Goldscore.External.Vdw>
14.6867

> <Gold.Goldscore.Internal.HBond>
0.0000

> <Gold.Goldscore.External.HBond>
0.4474

> <Gold.Goldscore.Internal.Correction>
-0.7650

> <Gold.Goldscore.Hbonds>
donor molecule, donor type, donor heavy atom, donor atom, acceptor molecule, acceptor atom, score
      P1  H  8100  8117       L1     9  0.07
      L1  H     8    22       P1  8160  0.15

> <Gold.Goldscore.Internal.Vdw.Weighted>
-1.2110

> <Gold.Goldscore.Internal.Torsion.Weighted>
-0.5275

> <Gold.Goldscore.External.Vdw.Weighted>
20.1942

> <Gold.Goldscore.Internal.HBond.Weighted>
0.0000

> <Gold.Goldscore.External.HBond.Weighted>
0.4474

> <Gold.Goldscore.Internal.Correction.Weighted>
-0.7650

> <Gold.Rescore>
     Score     S(PLP)   S(hbond)     S(cho)   S(metal)  DE(clash)   DE(tors)     intcor
     12.23      -9.83       1.38       0.00       0.00       1.04       0.35       ----

> <Gold.PLP.Fitness>
12.2270

> <Gold.PLP.PLP>
-9.8267

> <Gold.PLP.part.hbond>
-1.5510

> <Gold.PLP.part.metal>
0.0000

> <Gold.PLP.part.buried>
-3.8408

> <Gold.PLP.part.nonpolar>
-6.3329

> <Gold.PLP.part.repulsive>
0.9718

> <Gold.PLP.ligand.clash>
1.0434

> <Gold.PLP.ligand.torsion>
0.3500

> <Gold.PLP.Chemscore.Hbond>
1.3813

> <Gold.PLP.Chemscore.CHOScore>
0.0000

> <Gold.PLP.Chemscore.Metal>
0.0000

> <Gold.Chemscore.Hbonds>
donor molecule, donor type, donor heavy atom, donor atom, acceptor molecule, acceptor atom, score
      P1  H  8100  8117       L1     9  0.82

> <Gold.PLP.Chemscore.Internal.Correction>
   9.000000E+99

