#       Name:                CT1002167954
#       Creating user name   hitesit
#       Creation time:       Sun Apr 16 23:01:26 2023


#       File generated by GOLD software.
#

@<TRIPOS>MOLECULE
CT1002167954|ligand_prepared|mol2|1|dock2
    29    30     1
SMALL
NO_CHARGES


@<TRIPOS>ATOM
      1 C1         229.4397  42.9308  11.7162 C.3            1 RES1               0.0000
      2 C2         230.2283  44.1332  11.1584 C.ar           1 RES1               0.0000
      3 C3         229.3162  43.1598  13.2198 C.2            1 RES1               0.0000
      4 C4         228.1060  42.9157  10.9776 C.2            1 RES1               0.0000
      5 C5         230.1310  41.5674  11.4822 C.3            1 RES1               0.0000
      6 C6         229.5718  45.3074  10.8020 C.ar           1 RES1               0.0000
      7 C7         231.6104  44.0843  10.9973 C.ar           1 RES1               0.0000
      8 N8         228.0987  43.5391  13.7032 N.am           1 RES1               0.0000
      9 O9         230.2820  43.0478  13.9647 O.2            1 RES1               0.0000
     10 N10        226.9679  43.1544  11.7024 N.am           1 RES1               0.0000
     11 O11        228.0320  42.7156   9.7714 O.2            1 RES1               0.0000
     12 C12        229.2128  40.3720  11.6825 C.3            1 RES1               0.0000
     13 C13        230.2719  46.3944  10.3054 C.ar           1 RES1               0.0000
     14 C14        232.3086  45.1724  10.5002 C.ar           1 RES1               0.0000
     15 C15        226.9065  43.4958  13.0260 C.2            1 RES1               0.0000
     16 C16        231.6406  46.3279  10.1546 C.ar           1 RES1               0.0000
     17 O17        225.8485  43.7490  13.5950 O.2            1 RES1               0.0000
     18 H18        230.5251  41.5424  10.4587 H              1 RES1               0.0000
     19 H19        230.9805  41.4794  12.1707 H              1 RES1               0.0000
     20 H20        228.4947  45.3775  10.9114 H              1 RES1               0.0000
     21 H21        232.1567  43.1853  11.2617 H              1 RES1               0.0000
     22 H22        228.0722  43.8872  14.6563 H              1 RES1               0.0000
     23 H23        226.0845  43.0696  11.2096 H              1 RES1               0.0000
     24 H24        229.7476  39.4411  11.5060 H              1 RES1               0.0000
     25 H25        228.8225  40.3514  12.6978 H              1 RES1               0.0000
     26 H26        228.3697  40.4140  10.9960 H              1 RES1               0.0000
     27 H27        229.7413  47.3010  10.0335 H              1 RES1               0.0000
     28 H28        233.3857  45.1154  10.3826 H              1 RES1               0.0000
     29 H29        232.1888  47.1796   9.7658 H              1 RES1               0.0000
@<TRIPOS>BOND
    1    1    2 1     
    2    1    3 1     
    3    1    4 1     
    4    1    5 1     
    5    2    6 ar    
    6    2    7 ar    
    7    3    8 1     
    8    3    9 2     
    9    4   10 1     
   10    4   11 2     
   11    5   12 1     
   12    5   18 1     
   13    5   19 1     
   14    6   13 ar    
   15    6   20 1     
   16    7   14 ar    
   17    7   21 1     
   18    8   15 1     
   19    8   22 1     
   20   10   15 1     
   21   10   23 1     
   22   12   24 1     
   23   12   25 1     
   24   12   26 1     
   25   13   16 ar    
   26   13   27 1     
   27   14   16 ar    
   28   14   28 1     
   29   15   17 2     
   30   16   29 1     
@<TRIPOS>SUBSTRUCTURE
      1 RES1           1
@<TRIPOS>SET
DONOR_HYDROGENS      STATIC     ATOMS    <user>   **** ""
2 22 23
ATOM$RED        STATIC     ATOMS    COLORGROUP SYSTEM
2 22 23
@<TRIPOS>COMMENT
> <Gold.Version>
2022.3.0

> <Gold.Id.Protein>
unknown|4v3u_clean|pdb

> <Gold.Protein.RotatedTorsions>
[ 6579 6563 6564 6565 ] final   82.79 input  113.83 | X-H torsion
[ 6671 6647 6648 6649 ] final   43.03 input  129.80 | X-H torsion
[ 8031 8015 8016 8017 ] final -179.20 input   49.80 | X-H torsion
[ 8111 8093 8094 8095 ] final -106.85 input   98.11 | X-H torsion
[ 8171 8157 8158 8159 ] final -138.33 input   64.44 | X-H torsion
[ 8251 8229 8230 8231 ] final  125.19 input   84.12 | X-H torsion
[ 9566 9530 9529 9527 ] final  -87.32 input   60.01 | X-H torsion
[ 8319 8303 8304 8305 ] final -139.29 input  100.38 | X-H torsion
[ 10191 10175 10176 10177 ] final  -37.12 input   40.16 | X-H torsion
[ 7948 7929 7930 7931 ] final   53.81 input   72.92 | X-H torsion
[ 7895 7879 7880 7881 ] final  -21.78 input   93.72 | X-H torsion
[ 7899 7884 7883 7880 ] final -165.73 input   60.02 | X-H torsion
[ 6811 6793 6794 6795 ] final -158.85 input  121.38 | X-H torsion
[ 27200 6326 6325 6324 ] final  158.66 input    0.00 | X-H torsion
[ 27203 6566 6565 6564 ] final  143.02 input   -0.00 | X-H torsion
[ 27206 7882 7881 7880 ] final -166.16 input   -0.00 | X-H torsion
[ 27208 7932 7931 7930 ] final   94.12 input    0.00 | X-H torsion
[ 27211 8018 8017 8016 ] final  -81.95 input    0.00 | X-H torsion
[ 27214 8096 8095 8094 ] final  -33.92 input   -0.00 | X-H torsion
[ 27217 8160 8159 8158 ] final  105.20 input    0.00 | X-H torsion
[ 27222 10090 10089 10088 ] final  -66.55 input    0.00 | X-H torsion
[ 27224 10178 10177 10176 ] final   82.46 input   -0.00 | X-H torsion
[ 27229 7724 7723 7722 ] final -153.98 input    0.00 | X-H torsion
[ 27231 7802 7801 7800 ] final  -15.17 input    0.00 | X-H torsion

> <Gold.Protein.ActiveResidues>
 ASP403  THR404  ILE407  TYR408  ALA410  LYS411  TRP414  GLN425  TRP426  SER427 
 LYS428  LEU429  GLN430  VAL431  PHE432  ASP433  TYR453  SER462  ALA463  ILE464 

> <Gold.Protein.RotatedAtoms>
  217.5500   42.6954   18.9552 H   0  0  0  0  0  0  0  0  0  0  0  0  # atno 6579 bound_to 6563
  218.9925   41.8506   20.3450 H   0  0  0  0  0  0  0  0  0  0  0  0  # atno 6671 bound_to 6647
  222.0480   38.0931   19.0488 H   0  0  0  0  0  0  0  0  0  0  0  0  # atno 6811 bound_to 6793
  229.9104   39.0667   18.9457 H   0  0  0  0  0  0  0  0  0  0  0  0  # atno 7895 bound_to 7879
  231.3926   42.8741   20.8054 H   0  0  0  0  0  0  0  0  0  0  0  0  # atno 7899 bound_to 7884
  230.0063   39.8125   17.4979 H   0  0  0  0  0  0  0  0  0  0  0  0  # atno 7948 bound_to 7929
  228.3151   39.8940   15.6806 H   0  0  0  0  0  0  0  0  0  0  0  0  # atno 8031 bound_to 8015
  225.8649   40.2521   13.2266 H   0  0  0  0  0  0  0  0  0  0  0  0  # atno 8111 bound_to 8093
  222.9518   39.9233   12.2578 H   0  0  0  0  0  0  0  0  0  0  0  0  # atno 8171 bound_to 8157
  220.0855   38.7179   10.4603 H   0  0  0  0  0  0  0  0  0  0  0  0  # atno 8251 bound_to 8229
  216.9179   39.8993   11.1734 H   0  0  0  0  0  0  0  0  0  0  0  0  # atno 8319 bound_to 8303
  228.4212   41.5229    7.6573 H   0  0  0  0  0  0  0  0  0  0  0  0  # atno 9566 bound_to 9530
  222.7231   36.0053   10.5224 H   0  0  0  0  0  0  0  0  0  0  0  0  # atno 10191 bound_to 10175
  217.0819   44.3026   18.2181 LP  0  0  0  0  0  0  0  0  0  0  0  0  # atno 27200 bound_to 6326
  215.7811   43.3353   17.6079 LP  0  0  0  0  0  0  0  0  0  0  0  0  # atno 27201 bound_to 6326
  217.3833   41.0550   18.3737 LP  0  0  0  0  0  0  0  0  0  0  0  0  # atno 27202 bound_to 6563
  221.8674   40.6656   20.0407 LP  0  0  0  0  0  0  0  0  0  0  0  0  # atno 27203 bound_to 6566
  220.8411   39.7325   19.0034 LP  0  0  0  0  0  0  0  0  0  0  0  0  # atno 27204 bound_to 6566
  220.3965   42.8131   19.9493 LP  0  0  0  0  0  0  0  0  0  0  0  0  # atno 27205 bound_to 6647
  228.3029   42.7300   16.8570 LP  0  0  0  0  0  0  0  0  0  0  0  0  # atno 27206 bound_to 7882
  228.1631   43.1294   18.5366 LP  0  0  0  0  0  0  0  0  0  0  0  0  # atno 27207 bound_to 7882
  229.5096   38.2729   14.8203 LP  0  0  0  0  0  0  0  0  0  0  0  0  # atno 27208 bound_to 7932
  229.6959   39.3164   13.4504 LP  0  0  0  0  0  0  0  0  0  0  0  0  # atno 27209 bound_to 7932
  227.4729   41.2390   14.9418 LP  0  0  0  0  0  0  0  0  0  0  0  0  # atno 27210 bound_to 8015
  224.1658   40.8442   14.7252 LP  0  0  0  0  0  0  0  0  0  0  0  0  # atno 27211 bound_to 8018
  225.2997   41.9831   14.0792 LP  0  0  0  0  0  0  0  0  0  0  0  0  # atno 27212 bound_to 8018
  225.8398   38.8628   12.1719 LP  0  0  0  0  0  0  0  0  0  0  0  0  # atno 27213 bound_to 8093
  223.6101   37.9409   11.1711 LP  0  0  0  0  0  0  0  0  0  0  0  0  # atno 27214 bound_to 8096
  222.4124   37.9966   12.4210 LP  0  0  0  0  0  0  0  0  0  0  0  0  # atno 27215 bound_to 8096
  222.1985   41.4300   11.7937 LP  0  0  0  0  0  0  0  0  0  0  0  0  # atno 27216 bound_to 8157
  219.7301   42.0245   10.4954 LP  0  0  0  0  0  0  0  0  0  0  0  0  # atno 27217 bound_to 8160
  218.8049   41.9196   11.9558 LP  0  0  0  0  0  0  0  0  0  0  0  0  # atno 27218 bound_to 8160
  219.2805   39.7656   11.6028 LP  0  0  0  0  0  0  0  0  0  0  0  0  # atno 27219 bound_to 8229
  227.1903   41.3052    8.6991 LP  0  0  0  0  0  0  0  0  0  0  0  0  # atno 27220 bound_to 9530
  227.2156   42.6138    7.7226 LP  0  0  0  0  0  0  0  0  0  0  0  0  # atno 27221 bound_to 9530
  227.2714   38.2246   11.6725 LP  0  0  0  0  0  0  0  0  0  0  0  0  # atno 27222 bound_to 10090
  226.7680   38.1148   10.0188 LP  0  0  0  0  0  0  0  0  0  0  0  0  # atno 27223 bound_to 10090
  220.6220   37.1180   10.2958 LP  0  0  0  0  0  0  0  0  0  0  0  0  # atno 27224 bound_to 10178
  219.6773   37.2073   11.7448 LP  0  0  0  0  0  0  0  0  0  0  0  0  # atno 27225 bound_to 10178
  216.1931   40.5785    9.7302 LP  0  0  0  0  0  0  0  0  0  0  0  0  # atno 27226 bound_to 8303
  223.4441   35.8138   12.1063 LP  0  0  0  0  0  0  0  0  0  0  0  0  # atno 27227 bound_to 10175
  229.4865   41.4331   17.9016 LP  0  0  0  0  0  0  0  0  0  0  0  0  # atno 27228 bound_to 7929
  230.2457   38.6368   17.7117 LP  0  0  0  0  0  0  0  0  0  0  0  0  # atno 27229 bound_to 7724
  231.2060   37.9249   16.4583 LP  0  0  0  0  0  0  0  0  0  0  0  0  # atno 27230 bound_to 7724
  227.5515   37.6925   18.7972 LP  0  0  0  0  0  0  0  0  0  0  0  0  # atno 27231 bound_to 7802
  227.4041   39.3748   19.1819 LP  0  0  0  0  0  0  0  0  0  0  0  0  # atno 27232 bound_to 7802
  230.1110   39.4249   20.6397 LP  0  0  0  0  0  0  0  0  0  0  0  0  # atno 27233 bound_to 7879
  230.8775   42.9413   19.2634 LP  0  0  0  0  0  0  0  0  0  0  0  0  # atno 27234 bound_to 7884
  231.4558   41.5415   19.8738 LP  0  0  0  0  0  0  0  0  0  0  0  0  # atno 27235 bound_to 7884

> <Gold.Score>
     Fitness  S(hb_ext) S(vdw_ext)  S(hb_int)    S(int)      intcor
     24.41       6.00      13.73       0.00      -0.47      -0.77

> <Gold.Goldscore.Fitness>
24.4102

> <Gold.Goldscore.Internal.Vdw>
-0.5037

> <Gold.Goldscore.Internal.Torsion>
-0.7330

> <Gold.Goldscore.External.Vdw>
13.7321

> <Gold.Goldscore.Internal.HBond>
0.0000

> <Gold.Goldscore.External.HBond>
6.0000

> <Gold.Goldscore.Internal.Correction>
-0.7653

> <Gold.Goldscore.Hbonds>
donor molecule, donor type, donor heavy atom, donor atom, acceptor molecule, acceptor atom, score
      L1  H    10    23       P1  8101  1.00

> <Gold.Goldscore.Internal.Vdw.Weighted>
-0.5037

> <Gold.Goldscore.Internal.Torsion.Weighted>
-0.7330

> <Gold.Goldscore.External.Vdw.Weighted>
18.8816

> <Gold.Goldscore.Internal.HBond.Weighted>
0.0000

> <Gold.Goldscore.External.HBond.Weighted>
6.0000

> <Gold.Goldscore.Internal.Correction.Weighted>
-0.7653

> <Gold.Rescore>
     Score     S(PLP)   S(hbond)     S(cho)   S(metal)  DE(clash)   DE(tors)     intcor
     25.72     -26.09       0.00       0.00       0.00       0.00       0.19       ----

> <Gold.PLP.Fitness>
25.7169

> <Gold.PLP.PLP>
-26.0947

> <Gold.PLP.part.hbond>
-1.4538

> <Gold.PLP.part.metal>
0.0000

> <Gold.PLP.part.buried>
-4.2221

> <Gold.PLP.part.nonpolar>
-20.1582

> <Gold.PLP.part.repulsive>
0.3110

> <Gold.PLP.ligand.clash>
0.0000

> <Gold.PLP.ligand.torsion>
0.1889

> <Gold.PLP.Chemscore.Hbond>
0.0000

> <Gold.PLP.Chemscore.CHOScore>
0.0000

> <Gold.PLP.Chemscore.Metal>
0.0000

> <Gold.Chemscore.Hbonds>
donor molecule, donor type, donor heavy atom, donor atom, acceptor molecule, acceptor atom, score
      L1  H    10    23       P1  8101  1.00

> <Gold.PLP.Chemscore.Internal.Correction>
   9.000000E+99

