#       Name:                CT1002167954
#       Creating user name   hitesit
#       Creation time:       Sun Apr 16 23:01:25 2023


#       File generated by GOLD software.
#

@<TRIPOS>MOLECULE
CT1002167954|ligand_prepared|mol2|1|dock1
    29    30     1
SMALL
NO_CHARGES


@<TRIPOS>ATOM
      1 C1         229.1495  43.5108  11.8866 C.3            1 RES1               0.0000
      2 C2         229.8052  42.1631  11.5227 C.ar           1 RES1               0.0000
      3 C3         227.8902  43.6193  11.0318 C.2            1 RES1               0.0000
      4 C4         228.8809  43.4632  13.3867 C.2            1 RES1               0.0000
      5 C5         230.0449  44.7388  11.6003 C.3            1 RES1               0.0000
      6 C6         229.1491  40.9632  11.7807 C.ar           1 RES1               0.0000
      7 C7         231.0623  42.1038  10.9271 C.ar           1 RES1               0.0000
      8 N8         226.6886  43.4414  11.6517 N.am           1 RES1               0.0000
      9 O9         227.9524  43.8186   9.8249 O.2            1 RES1               0.0000
     10 N10        227.5763  43.4683  13.8059 N.am           1 RES1               0.0000
     11 O11        229.7870  43.4047  14.2089 O.2            1 RES1               0.0000
     12 C12        229.4275  46.0608  12.0283 C.3            1 RES1               0.0000
     13 C13        229.7273  39.7482  11.4526 C.ar           1 RES1               0.0000
     14 C14        231.6389  40.8877  10.6000 C.ar           1 RES1               0.0000
     15 C15        226.4676  43.4242  13.0054 C.2            1 RES1               0.0000
     16 C16        230.9723  39.7096  10.8617 C.ar           1 RES1               0.0000
     17 O17        225.3273  43.3759  13.4576 O.2            1 RES1               0.0000
     18 H18        231.0000  44.6091  12.1239 H              1 RES1               0.0000
     19 H19        230.2551  44.7792  10.5244 H              1 RES1               0.0000
     20 H20        228.1697  40.9737  12.2474 H              1 RES1               0.0000
     21 H21        231.6057  43.0179  10.7130 H              1 RES1               0.0000
     22 H22        225.8794  43.3087  11.0533 H              1 RES1               0.0000
     23 H23        227.4170  43.5088  14.8076 H              1 RES1               0.0000
     24 H24        230.0965  46.8892  11.8048 H              1 RES1               0.0000
     25 H25        228.4879  46.2343  11.5079 H              1 RES1               0.0000
     26 H26        229.2284  46.0652  13.0979 H              1 RES1               0.0000
     27 H27        229.1991  38.8239  11.6619 H              1 RES1               0.0000
     28 H28        232.6192  40.8620  10.1356 H              1 RES1               0.0000
     29 H29        231.4249  38.7577  10.6043 H              1 RES1               0.0000
@<TRIPOS>BOND
    1    1    2 1     
    2    1    3 1     
    3    1    4 1     
    4    1    5 1     
    5    2    6 ar    
    6    2    7 ar    
    7    3    8 1     
    8    3    9 2     
    9    4   10 1     
   10    4   11 2     
   11    5   12 1     
   12    5   18 1     
   13    5   19 1     
   14    6   13 ar    
   15    6   20 1     
   16    7   14 ar    
   17    7   21 1     
   18    8   15 1     
   19    8   22 1     
   20   10   15 1     
   21   10   23 1     
   22   12   24 1     
   23   12   25 1     
   24   12   26 1     
   25   13   16 ar    
   26   13   27 1     
   27   14   16 ar    
   28   14   28 1     
   29   15   17 2     
   30   16   29 1     
@<TRIPOS>SUBSTRUCTURE
      1 RES1           1
@<TRIPOS>SET
DONOR_HYDROGENS      STATIC     ATOMS    <user>   **** ""
2 22 23
ATOM$RED        STATIC     ATOMS    COLORGROUP SYSTEM
2 22 23
@<TRIPOS>COMMENT
> <Gold.Version>
2022.3.0

> <Gold.Id.Protein>
unknown|4v3u_clean|pdb

> <Gold.Protein.RotatedTorsions>
[ 6579 6563 6564 6565 ] final   39.35 input  113.83 | X-H torsion
[ 6671 6647 6648 6649 ] final   64.51 input  129.80 | X-H torsion
[ 8031 8015 8016 8017 ] final   25.17 input   49.80 | X-H torsion
[ 8111 8093 8094 8095 ] final  -81.67 input   98.11 | X-H torsion
[ 8171 8157 8158 8159 ] final   76.18 input   64.44 | X-H torsion
[ 8251 8229 8230 8231 ] final -146.90 input   84.12 | X-H torsion
[ 9566 9530 9529 9527 ] final    8.08 input   60.01 | X-H torsion
[ 8319 8303 8304 8305 ] final   70.94 input  100.38 | X-H torsion
[ 10191 10175 10176 10177 ] final -163.12 input   40.16 | X-H torsion
[ 7948 7929 7930 7931 ] final  -71.95 input   72.92 | X-H torsion
[ 7895 7879 7880 7881 ] final   -3.51 input   93.72 | X-H torsion
[ 7899 7884 7883 7880 ] final    8.23 input   60.02 | X-H torsion
[ 6811 6793 6794 6795 ] final -156.22 input  121.38 | X-H torsion
[ 27200 6326 6325 6324 ] final -145.31 input    0.00 | X-H torsion
[ 27203 6566 6565 6564 ] final -127.00 input   -0.00 | X-H torsion
[ 27206 7882 7881 7880 ] final  -41.96 input   -0.00 | X-H torsion
[ 27208 7932 7931 7930 ] final   78.01 input    0.00 | X-H torsion
[ 27211 8018 8017 8016 ] final  160.32 input    0.00 | X-H torsion
[ 27214 8096 8095 8094 ] final   96.71 input   -0.00 | X-H torsion
[ 27217 8160 8159 8158 ] final  -76.74 input    0.00 | X-H torsion
[ 27222 10090 10089 10088 ] final   97.52 input    0.00 | X-H torsion
[ 27224 10178 10177 10176 ] final    2.75 input   -0.00 | X-H torsion
[ 27229 7724 7723 7722 ] final  117.37 input    0.00 | X-H torsion
[ 27231 7802 7801 7800 ] final   86.82 input    0.00 | X-H torsion

> <Gold.Protein.ActiveResidues>
 ASP403  THR404  ILE407  TYR408  ALA410  LYS411  TRP414  GLN425  TRP426  SER427 
 LYS428  LEU429  GLN430  VAL431  PHE432  ASP433  TYR453  SER462  ALA463  ILE464 

> <Gold.Protein.RotatedAtoms>
  217.6441   42.2576   19.4340 H   0  0  0  0  0  0  0  0  0  0  0  0  # atno 6579 bound_to 6563
  218.8990   42.1454   20.4588 H   0  0  0  0  0  0  0  0  0  0  0  0  # atno 6671 bound_to 6647
  222.0538   38.0533   19.0426 H   0  0  0  0  0  0  0  0  0  0  0  0  # atno 6811 bound_to 6793
  230.1542   39.1995   18.9342 H   0  0  0  0  0  0  0  0  0  0  0  0  # atno 7895 bound_to 7879
  231.1253   41.9499   19.2025 H   0  0  0  0  0  0  0  0  0  0  0  0  # atno 7899 bound_to 7884
  228.9014   40.9083   17.7646 H   0  0  0  0  0  0  0  0  0  0  0  0  # atno 7948 bound_to 7929
  227.2706   41.2163   15.2519 H   0  0  0  0  0  0  0  0  0  0  0  0  # atno 8031 bound_to 8015
  225.5975   40.0301   13.3873 H   0  0  0  0  0  0  0  0  0  0  0  0  # atno 8111 bound_to 8093
  222.3015   41.4796   12.2996 H   0  0  0  0  0  0  0  0  0  0  0  0  # atno 8171 bound_to 8157
  220.1237   39.9219   10.6830 H   0  0  0  0  0  0  0  0  0  0  0  0  # atno 8251 bound_to 8229
  216.2422   40.9542    9.9893 H   0  0  0  0  0  0  0  0  0  0  0  0  # atno 8319 bound_to 8303
  227.5481   42.5865    7.5015 H   0  0  0  0  0  0  0  0  0  0  0  0  # atno 9566 bound_to 9530
  223.6234   35.2415   11.5833 H   0  0  0  0  0  0  0  0  0  0  0  0  # atno 10191 bound_to 10175
  216.6151   43.9076   18.7547 LP  0  0  0  0  0  0  0  0  0  0  0  0  # atno 27200 bound_to 6326
  216.2479   43.7303   17.0713 LP  0  0  0  0  0  0  0  0  0  0  0  0  # atno 27201 bound_to 6326
  217.2918   41.4813   17.9076 LP  0  0  0  0  0  0  0  0  0  0  0  0  # atno 27202 bound_to 6563
  220.9677   39.8535   20.2157 LP  0  0  0  0  0  0  0  0  0  0  0  0  # atno 27203 bound_to 6566
  221.7408   40.5446   18.8283 LP  0  0  0  0  0  0  0  0  0  0  0  0  # atno 27204 bound_to 6566
  220.4879   42.5251   19.8380 LP  0  0  0  0  0  0  0  0  0  0  0  0  # atno 27205 bound_to 6647
  227.5696   42.6919   18.2002 LP  0  0  0  0  0  0  0  0  0  0  0  0  # atno 27206 bound_to 7882
  228.8963   43.1675   17.1934 LP  0  0  0  0  0  0  0  0  0  0  0  0  # atno 27207 bound_to 7882
  229.7299   38.3599   14.8735 LP  0  0  0  0  0  0  0  0  0  0  0  0  # atno 27208 bound_to 7932
  229.4756   39.2294   13.3973 LP  0  0  0  0  0  0  0  0  0  0  0  0  # atno 27209 bound_to 7932
  228.4840   39.9591   15.3567 LP  0  0  0  0  0  0  0  0  0  0  0  0  # atno 27210 bound_to 8015
  224.5733   41.7388   13.6155 LP  0  0  0  0  0  0  0  0  0  0  0  0  # atno 27211 bound_to 8018
  224.8921   41.0885   15.1889 LP  0  0  0  0  0  0  0  0  0  0  0  0  # atno 27212 bound_to 8018
  226.1035   39.0818   12.0134 LP  0  0  0  0  0  0  0  0  0  0  0  0  # atno 27213 bound_to 8093
  223.0933   37.9365   12.6576 LP  0  0  0  0  0  0  0  0  0  0  0  0  # atno 27214 bound_to 8096
  222.9292   38.0009   10.9345 LP  0  0  0  0  0  0  0  0  0  0  0  0  # atno 27215 bound_to 8096
  222.8344   39.9080   11.7528 LP  0  0  0  0  0  0  0  0  0  0  0  0  # atno 27216 bound_to 8157
  218.7818   41.9104   11.9400 LP  0  0  0  0  0  0  0  0  0  0  0  0  # atno 27217 bound_to 8160
  219.7532   42.0336   10.5112 LP  0  0  0  0  0  0  0  0  0  0  0  0  # atno 27218 bound_to 8160
  219.2431   38.5865   11.3847 LP  0  0  0  0  0  0  0  0  0  0  0  0  # atno 27219 bound_to 8229
  228.3481   41.2342    7.9247 LP  0  0  0  0  0  0  0  0  0  0  0  0  # atno 27220 bound_to 9530
  226.9371   41.6136    8.6539 LP  0  0  0  0  0  0  0  0  0  0  0  0  # atno 27221 bound_to 9530
  227.0031   38.1442    9.9802 LP  0  0  0  0  0  0  0  0  0  0  0  0  # atno 27222 bound_to 10090
  227.0364   38.1951   11.7111 LP  0  0  0  0  0  0  0  0  0  0  0  0  # atno 27223 bound_to 10090
  220.9444   37.2711   11.3468 LP  0  0  0  0  0  0  0  0  0  0  0  0  # atno 27224 bound_to 10178
  219.3549   37.0542   10.6937 LP  0  0  0  0  0  0  0  0  0  0  0  0  # atno 27225 bound_to 10178
  216.8432   39.5637   10.8694 LP  0  0  0  0  0  0  0  0  0  0  0  0  # atno 27226 bound_to 8303
  222.5750   36.5511   11.0822 LP  0  0  0  0  0  0  0  0  0  0  0  0  # atno 27227 bound_to 10175
  230.5604   40.3679   17.6423 LP  0  0  0  0  0  0  0  0  0  0  0  0  # atno 27228 bound_to 7929
  230.1898   37.6007   17.0887 LP  0  0  0  0  0  0  0  0  0  0  0  0  # atno 27229 bound_to 7724
  231.2620   38.9610   17.0812 LP  0  0  0  0  0  0  0  0  0  0  0  0  # atno 27230 bound_to 7724
  227.2037   38.5070   19.8106 LP  0  0  0  0  0  0  0  0  0  0  0  0  # atno 27231 bound_to 7802
  227.7519   38.5603   18.1685 LP  0  0  0  0  0  0  0  0  0  0  0  0  # atno 27232 bound_to 7802
  229.8693   39.2933   20.6512 LP  0  0  0  0  0  0  0  0  0  0  0  0  # atno 27233 bound_to 7879
  231.6027   42.0495   20.7549 LP  0  0  0  0  0  0  0  0  0  0  0  0  # atno 27234 bound_to 7884
  230.9999   43.3643   19.9970 LP  0  0  0  0  0  0  0  0  0  0  0  0  # atno 27235 bound_to 7884

> <Gold.Score>
     Fitness  S(hb_ext) S(vdw_ext)  S(hb_int)    S(int)      intcor
     33.26       5.96      19.89       0.00      -0.04      -0.77

> <Gold.Goldscore.Fitness>
33.2614

> <Gold.Goldscore.Internal.Vdw>
-0.4279

> <Gold.Goldscore.Internal.Torsion>
-0.3815

> <Gold.Goldscore.External.Vdw>
19.8857

> <Gold.Goldscore.Internal.HBond>
0.0000

> <Gold.Goldscore.External.HBond>
5.9628

> <Gold.Goldscore.Internal.Correction>
-0.7653

> <Gold.Goldscore.Hbonds>
donor molecule, donor type, donor heavy atom, donor atom, acceptor molecule, acceptor atom, score
      L1  H     8    22       P1  8101  0.99

> <Gold.Goldscore.Internal.Vdw.Weighted>
-0.4279

> <Gold.Goldscore.Internal.Torsion.Weighted>
-0.3815

> <Gold.Goldscore.External.Vdw.Weighted>
27.3428

> <Gold.Goldscore.Internal.HBond.Weighted>
0.0000

> <Gold.Goldscore.External.HBond.Weighted>
5.9628

> <Gold.Goldscore.Internal.Correction.Weighted>
-0.7653

> <Gold.Rescore>
     Score     S(PLP)   S(hbond)     S(cho)   S(metal)  DE(clash)   DE(tors)     intcor
     29.05     -26.47       1.00       0.00       0.00       0.00       0.21       ----

> <Gold.PLP.Fitness>
29.0458

> <Gold.PLP.PLP>
-26.4695

> <Gold.PLP.part.hbond>
-1.7013

> <Gold.PLP.part.metal>
0.0000

> <Gold.PLP.part.buried>
-4.2178

> <Gold.PLP.part.nonpolar>
-20.2323

> <Gold.PLP.part.repulsive>
0.3105

> <Gold.PLP.ligand.clash>
0.0000

> <Gold.PLP.ligand.torsion>
0.2118

> <Gold.PLP.Chemscore.Hbond>
1.0000

> <Gold.PLP.Chemscore.CHOScore>
0.0000

> <Gold.PLP.Chemscore.Metal>
0.0000

> <Gold.Chemscore.Hbonds>
donor molecule, donor type, donor heavy atom, donor atom, acceptor molecule, acceptor atom, score
      L1  H     8    22       P1  8101  0.67

> <Gold.PLP.Chemscore.Internal.Correction>
   9.000000E+99

