#       Name:                CT1002167954
#       Creating user name   hitesit
#       Creation time:       Sun Apr 16 23:01:27 2023


#       File generated by GOLD software.
#

@<TRIPOS>MOLECULE
CT1002167954|ligand_prepared|mol2|1|dock4
    29    30     1
SMALL
NO_CHARGES


@<TRIPOS>ATOM
      1 C1         228.1028  43.8680  12.0609 C.3            1 RES1               0.0000
      2 C2         226.8533  44.1447  12.9218 C.ar           1 RES1               0.0000
      3 C3         228.9005  42.7949  12.7960 C.2            1 RES1               0.0000
      4 C4         227.5902  43.4340  10.6921 C.2            1 RES1               0.0000
      5 C5         229.0102  45.1043  11.8612 C.3            1 RES1               0.0000
      6 C6         226.8402  45.1949  13.8348 C.ar           1 RES1               0.0000
      7 C7         225.7074  43.3614  12.8124 C.ar           1 RES1               0.0000
      8 N8         228.8853  41.5323  12.2808 N.am           1 RES1               0.0000
      9 O9         229.5015  43.0440  13.8338 O.2            1 RES1               0.0000
     10 N10        227.8411  42.1480  10.2907 N.am           1 RES1               0.0000
     11 O11        226.9569  44.1889   9.9646 O.2            1 RES1               0.0000
     12 C12        230.0698  44.9199  10.7864 C.3            1 RES1               0.0000
     13 C13        225.7211  45.4546  14.6084 C.ar           1 RES1               0.0000
     14 C14        224.5894  43.6227  13.5871 C.ar           1 RES1               0.0000
     15 C15        228.4387  41.1683  11.0359 C.2            1 RES1               0.0000
     16 C16        224.5949  44.6691  14.4848 C.ar           1 RES1               0.0000
     17 O17        228.5801  40.0197  10.6261 O.2            1 RES1               0.0000
     18 H18        228.3826  45.9636  11.5947 H              1 RES1               0.0000
     19 H19        229.5077  45.3343  12.8115 H              1 RES1               0.0000
     20 H20        227.7181  45.8223  13.9476 H              1 RES1               0.0000
     21 H21        225.6808  42.5323  12.1136 H              1 RES1               0.0000
     22 H22        229.2385  40.7900  12.8763 H              1 RES1               0.0000
     23 H23        227.5561  41.8980   9.3491 H              1 RES1               0.0000
     24 H24        230.6786  45.8161  10.6871 H              1 RES1               0.0000
     25 H25        230.7278  44.0888  11.0318 H              1 RES1               0.0000
     26 H26        229.6094  44.7144   9.8222 H              1 RES1               0.0000
     27 H27        225.7310  46.2785  15.3143 H              1 RES1               0.0000
     28 H28        223.7055  43.0015  13.4870 H              1 RES1               0.0000
     29 H29        223.7182  44.8730  15.0906 H              1 RES1               0.0000
@<TRIPOS>BOND
    1    1    2 1     
    2    1    3 1     
    3    1    4 1     
    4    1    5 1     
    5    2    6 ar    
    6    2    7 ar    
    7    3    8 1     
    8    3    9 2     
    9    4   10 1     
   10    4   11 2     
   11    5   12 1     
   12    5   18 1     
   13    5   19 1     
   14    6   13 ar    
   15    6   20 1     
   16    7   14 ar    
   17    7   21 1     
   18    8   15 1     
   19    8   22 1     
   20   10   15 1     
   21   10   23 1     
   22   12   24 1     
   23   12   25 1     
   24   12   26 1     
   25   13   16 ar    
   26   13   27 1     
   27   14   16 ar    
   28   14   28 1     
   29   15   17 2     
   30   16   29 1     
@<TRIPOS>SUBSTRUCTURE
      1 RES1           1
@<TRIPOS>SET
DONOR_HYDROGENS      STATIC     ATOMS    <user>   **** ""
2 22 23
ATOM$RED        STATIC     ATOMS    COLORGROUP SYSTEM
2 22 23
@<TRIPOS>COMMENT
> <Gold.Version>
2022.3.0

> <Gold.Id.Protein>
unknown|4v3u_clean|pdb

> <Gold.Protein.RotatedTorsions>
[ 6579 6563 6564 6565 ] final  -84.19 input  113.83 | X-H torsion
[ 6671 6647 6648 6649 ] final   92.84 input  129.80 | X-H torsion
[ 8031 8015 8016 8017 ] final  -47.15 input   49.80 | X-H torsion
[ 8111 8093 8094 8095 ] final  -67.66 input   98.11 | X-H torsion
[ 8171 8157 8158 8159 ] final  -58.67 input   64.44 | X-H torsion
[ 8251 8229 8230 8231 ] final  -12.35 input   84.12 | X-H torsion
[ 9566 9530 9529 9527 ] final   -2.00 input   60.01 | X-H torsion
[ 8319 8303 8304 8305 ] final  -59.10 input  100.38 | X-H torsion
[ 10191 10175 10176 10177 ] final  132.66 input   40.16 | X-H torsion
[ 7948 7929 7930 7931 ] final  -61.66 input   72.92 | X-H torsion
[ 7895 7879 7880 7881 ] final  -48.50 input   93.72 | X-H torsion
[ 7899 7884 7883 7880 ] final  103.78 input   60.02 | X-H torsion
[ 6811 6793 6794 6795 ] final   31.28 input  121.38 | X-H torsion
[ 27200 6326 6325 6324 ] final  -30.02 input    0.00 | X-H torsion
[ 27203 6566 6565 6564 ] final   76.52 input   -0.00 | X-H torsion
[ 27206 7882 7881 7880 ] final    7.48 input   -0.00 | X-H torsion
[ 27208 7932 7931 7930 ] final   74.00 input    0.00 | X-H torsion
[ 27211 8018 8017 8016 ] final   31.29 input    0.00 | X-H torsion
[ 27214 8096 8095 8094 ] final -135.92 input   -0.00 | X-H torsion
[ 27217 8160 8159 8158 ] final  -75.84 input    0.00 | X-H torsion
[ 27222 10090 10089 10088 ] final   23.77 input    0.00 | X-H torsion
[ 27224 10178 10177 10176 ] final   18.24 input   -0.00 | X-H torsion
[ 27229 7724 7723 7722 ] final -153.31 input    0.00 | X-H torsion
[ 27231 7802 7801 7800 ] final  -99.91 input    0.00 | X-H torsion

> <Gold.Protein.ActiveResidues>
 ASP403  THR404  ILE407  TYR408  ALA410  LYS411  TRP414  GLN425  TRP426  SER427 
 LYS428  LEU429  GLN430  VAL431  PHE432  ASP433  TYR453  SER462  ALA463  ILE464 

> <Gold.Protein.RotatedAtoms>
  217.4322   40.9853   18.5547 H   0  0  0  0  0  0  0  0  0  0  0  0  # atno 6579 bound_to 6563
  218.9466   42.5674   20.5409 H   0  0  0  0  0  0  0  0  0  0  0  0  # atno 6671 bound_to 6647
  221.6609   37.8883   20.7603 H   0  0  0  0  0  0  0  0  0  0  0  0  # atno 6811 bound_to 6793
  229.5794   38.9072   19.1148 H   0  0  0  0  0  0  0  0  0  0  0  0  # atno 7895 bound_to 7879
  230.9084   43.2517   19.6263 H   0  0  0  0  0  0  0  0  0  0  0  0  # atno 7899 bound_to 7884
  228.8647   40.7578   17.7286 H   0  0  0  0  0  0  0  0  0  0  0  0  # atno 7948 bound_to 7929
  227.9771   40.9745   14.5143 H   0  0  0  0  0  0  0  0  0  0  0  0  # atno 8031 bound_to 8015
  225.4671   39.8636   13.4210 H   0  0  0  0  0  0  0  0  0  0  0  0  # atno 8111 bound_to 8093
  222.5558   40.2559   11.2511 H   0  0  0  0  0  0  0  0  0  0  0  0  # atno 8171 bound_to 8157
  219.0865   39.1693   11.6871 H   0  0  0  0  0  0  0  0  0  0  0  0  # atno 8251 bound_to 8229
  216.5253   39.3783   10.2262 H   0  0  0  0  0  0  0  0  0  0  0  0  # atno 8319 bound_to 8303
  227.6907   42.5365    7.4364 H   0  0  0  0  0  0  0  0  0  0  0  0  # atno 9566 bound_to 9530
  223.3580   35.9294   12.1776 H   0  0  0  0  0  0  0  0  0  0  0  0  # atno 10191 bound_to 10175
  215.7558   43.3078   17.7336 LP  0  0  0  0  0  0  0  0  0  0  0  0  # atno 27200 bound_to 6326
  217.1072   44.3301   18.0924 LP  0  0  0  0  0  0  0  0  0  0  0  0  # atno 27201 bound_to 6326
  217.4980   42.7199   18.7637 LP  0  0  0  0  0  0  0  0  0  0  0  0  # atno 27202 bound_to 6563
  221.9135   40.7022   19.0929 LP  0  0  0  0  0  0  0  0  0  0  0  0  # atno 27203 bound_to 6566
  220.7950   39.6960   19.9511 LP  0  0  0  0  0  0  0  0  0  0  0  0  # atno 27204 bound_to 6566
  220.4414   42.1129   19.7578 LP  0  0  0  0  0  0  0  0  0  0  0  0  # atno 27205 bound_to 6647
  228.0800   43.0813   18.5356 LP  0  0  0  0  0  0  0  0  0  0  0  0  # atno 27206 bound_to 7882
  228.3860   42.7781   16.8580 LP  0  0  0  0  0  0  0  0  0  0  0  0  # atno 27207 bound_to 7882
  229.7838   38.3872   14.8778 LP  0  0  0  0  0  0  0  0  0  0  0  0  # atno 27208 bound_to 7932
  229.4217   39.2021   13.3930 LP  0  0  0  0  0  0  0  0  0  0  0  0  # atno 27209 bound_to 7932
  227.8002   40.1931   16.0707 LP  0  0  0  0  0  0  0  0  0  0  0  0  # atno 27210 bound_to 8015
  225.3956   41.5758   14.9354 LP  0  0  0  0  0  0  0  0  0  0  0  0  # atno 27211 bound_to 8018
  224.0698   41.2515   13.8690 LP  0  0  0  0  0  0  0  0  0  0  0  0  # atno 27212 bound_to 8018
  226.2323   39.2460   11.9801 LP  0  0  0  0  0  0  0  0  0  0  0  0  # atno 27213 bound_to 8093
  222.2783   38.0394   11.3401 LP  0  0  0  0  0  0  0  0  0  0  0  0  # atno 27214 bound_to 8096
  223.7441   37.8980   12.2520 LP  0  0  0  0  0  0  0  0  0  0  0  0  # atno 27215 bound_to 8096
  222.5858   41.1047   12.7781 LP  0  0  0  0  0  0  0  0  0  0  0  0  # atno 27216 bound_to 8157
  218.7925   41.9147   11.9474 LP  0  0  0  0  0  0  0  0  0  0  0  0  # atno 27217 bound_to 8160
  219.7425   42.0294   10.5037 LP  0  0  0  0  0  0  0  0  0  0  0  0  # atno 27218 bound_to 8160
  220.2588   39.3235   10.4014 LP  0  0  0  0  0  0  0  0  0  0  0  0  # atno 27219 bound_to 8229
  228.2748   41.1441    8.0429 LP  0  0  0  0  0  0  0  0  0  0  0  0  # atno 27220 bound_to 9530
  226.8667   41.7541    8.6012 LP  0  0  0  0  0  0  0  0  0  0  0  0  # atno 27221 bound_to 9530
  227.8394   38.2690   10.5845 LP  0  0  0  0  0  0  0  0  0  0  0  0  # atno 27222 bound_to 10090
  226.2000   38.0704   11.1068 LP  0  0  0  0  0  0  0  0  0  0  0  0  # atno 27223 bound_to 10090
  221.0052   37.2498   11.1224 LP  0  0  0  0  0  0  0  0  0  0  0  0  # atno 27224 bound_to 10178
  219.2941   37.0755   10.9181 LP  0  0  0  0  0  0  0  0  0  0  0  0  # atno 27225 bound_to 10178
  216.5708   41.0798   10.6415 LP  0  0  0  0  0  0  0  0  0  0  0  0  # atno 27226 bound_to 8303
  222.8312   35.8870   10.5085 LP  0  0  0  0  0  0  0  0  0  0  0  0  # atno 27227 bound_to 10175
  230.5961   40.5142   17.6773 LP  0  0  0  0  0  0  0  0  0  0  0  0  # atno 27228 bound_to 7929
  230.2519   38.6449   17.7118 LP  0  0  0  0  0  0  0  0  0  0  0  0  # atno 27229 bound_to 7724
  231.1998   37.9169   16.4582 LP  0  0  0  0  0  0  0  0  0  0  0  0  # atno 27230 bound_to 7724
  227.7480   38.6616   18.1767 LP  0  0  0  0  0  0  0  0  0  0  0  0  # atno 27231 bound_to 7802
  227.2076   38.4058   19.8023 LP  0  0  0  0  0  0  0  0  0  0  0  0  # atno 27232 bound_to 7802
  230.4391   39.5831   20.4721 LP  0  0  0  0  0  0  0  0  0  0  0  0  # atno 27233 bound_to 7879
  231.2809   41.6779   19.4480 LP  0  0  0  0  0  0  0  0  0  0  0  0  # atno 27234 bound_to 7884
  231.5402   42.4244   20.8769 LP  0  0  0  0  0  0  0  0  0  0  0  0  # atno 27235 bound_to 7884

> <Gold.Score>
     Fitness  S(hb_ext) S(vdw_ext)  S(hb_int)    S(int)      intcor
     25.55       3.10      16.72       0.00      -0.54      -0.76

> <Gold.Goldscore.Fitness>
25.5523

> <Gold.Goldscore.Internal.Vdw>
-0.7071

> <Gold.Goldscore.Internal.Torsion>
-0.5966

> <Gold.Goldscore.External.Vdw>
16.7183

> <Gold.Goldscore.Internal.HBond>
0.0000

> <Gold.Goldscore.External.HBond>
3.1033

> <Gold.Goldscore.Internal.Correction>
-0.7650

> <Gold.Goldscore.Hbonds>
donor molecule, donor type, donor heavy atom, donor atom, acceptor molecule, acceptor atom, score
      P1  H  8015  8031       L1     9  0.08
      L1  H     8    22       P1  7932  0.81
      L1  H    10    23       P1  9530  0.66

> <Gold.Goldscore.Internal.Vdw.Weighted>
-0.7071

> <Gold.Goldscore.Internal.Torsion.Weighted>
-0.5966

> <Gold.Goldscore.External.Vdw.Weighted>
22.9877

> <Gold.Goldscore.Internal.HBond.Weighted>
0.0000

> <Gold.Goldscore.External.HBond.Weighted>
3.1033

> <Gold.Goldscore.Internal.Correction.Weighted>
-0.7650

> <Gold.Rescore>
     Score     S(PLP)   S(hbond)     S(cho)   S(metal)  DE(clash)   DE(tors)     intcor
     23.72     -23.87       0.11       0.00       0.00       0.00       0.24       ----

> <Gold.PLP.Fitness>
23.7154

> <Gold.PLP.PLP>
-23.8698

> <Gold.PLP.part.hbond>
-2.5420

> <Gold.PLP.part.metal>
0.0000

> <Gold.PLP.part.buried>
-4.9049

> <Gold.PLP.part.nonpolar>
-17.7619

> <Gold.PLP.part.repulsive>
1.3637

> <Gold.PLP.ligand.clash>
0.0000

> <Gold.PLP.ligand.torsion>
0.2363

> <Gold.PLP.Chemscore.Hbond>
0.1061

> <Gold.PLP.Chemscore.CHOScore>
0.0000

> <Gold.PLP.Chemscore.Metal>
0.0000

> <Gold.Chemscore.Hbonds>
donor molecule, donor type, donor heavy atom, donor atom, acceptor molecule, acceptor atom, score
      L1  H    10    23       P1  9530  0.96

> <Gold.PLP.Chemscore.Internal.Correction>
   9.000000E+99

