#       Name:                CT1002167954
#       Creating user name   hitesit
#       Creation time:       Sun Apr 16 23:01:28 2023


#       File generated by GOLD software.
#

@<TRIPOS>MOLECULE
CT1002167954|ligand_prepared|mol2|1|dock6
    29    30     1
SMALL
NO_CHARGES


@<TRIPOS>ATOM
      1 C1         229.0502  43.4851  11.8564 C.3            1 RES1               0.0000
      2 C2         229.6656  42.1125  11.5157 C.ar           1 RES1               0.0000
      3 C3         227.8053  43.6246  10.9853 C.2            1 RES1               0.0000
      4 C4         228.7627  43.4640  13.3536 C.2            1 RES1               0.0000
      5 C5         229.9887  44.6797  11.5670 C.3            1 RES1               0.0000
      6 C6         230.8479  42.0273  10.7867 C.ar           1 RES1               0.0000
      7 C7         229.0650  40.9250  11.9251 C.ar           1 RES1               0.0000
      8 N8         226.5912  43.4933  11.5926 N.am           1 RES1               0.0000
      9 O9         227.8881  43.8077   9.7770 O.2            1 RES1               0.0000
     10 N10        227.4542  43.5165  13.7570 N.am           1 RES1               0.0000
     11 O11        229.6567  43.3854  14.1872 O.2            1 RES1               0.0000
     12 C12        229.4836  46.0038  12.1184 C.3            1 RES1               0.0000
     13 C13        231.4111  40.7996  10.4805 C.ar           1 RES1               0.0000
     14 C14        229.6298  39.6982  11.6177 C.ar           1 RES1               0.0000
     15 C15        226.3540  43.4993  12.9436 C.2            1 RES1               0.0000
     16 C16        230.8028  39.6343  10.8961 C.ar           1 RES1               0.0000
     17 O17        225.2075  43.4935  13.3826 O.2            1 RES1               0.0000
     18 H18        230.9734  44.4687  12.0020 H              1 RES1               0.0000
     19 H19        230.1150  44.7746  10.4814 H              1 RES1               0.0000
     20 H20        231.3397  42.9335  10.4490 H              1 RES1               0.0000
     21 H21        228.1411  40.9510  12.4930 H              1 RES1               0.0000
     22 H22        225.7852  43.3802  10.9860 H              1 RES1               0.0000
     23 H23        227.2845  43.5740  14.7561 H              1 RES1               0.0000
     24 H24        230.1790  46.8081  11.8876 H              1 RES1               0.0000
     25 H25        228.5171  46.2574  11.6878 H              1 RES1               0.0000
     26 H26        229.3704  45.9534  13.1994 H              1 RES1               0.0000
     27 H27        232.3337  40.7547   9.9112 H              1 RES1               0.0000
     28 H28        229.1472  38.7837  11.9463 H              1 RES1               0.0000
     29 H29        231.2444  38.6727  10.6564 H              1 RES1               0.0000
@<TRIPOS>BOND
    1    1    2 1     
    2    1    3 1     
    3    1    4 1     
    4    1    5 1     
    5    2    6 ar    
    6    2    7 ar    
    7    3    8 1     
    8    3    9 2     
    9    4   10 1     
   10    4   11 2     
   11    5   12 1     
   12    5   18 1     
   13    5   19 1     
   14    6   13 ar    
   15    6   20 1     
   16    7   14 ar    
   17    7   21 1     
   18    8   15 1     
   19    8   22 1     
   20   10   15 1     
   21   10   23 1     
   22   12   24 1     
   23   12   25 1     
   24   12   26 1     
   25   13   16 ar    
   26   13   27 1     
   27   14   16 ar    
   28   14   28 1     
   29   15   17 2     
   30   16   29 1     
@<TRIPOS>SUBSTRUCTURE
      1 RES1           1
@<TRIPOS>SET
DONOR_HYDROGENS      STATIC     ATOMS    <user>   **** ""
2 22 23
ATOM$RED        STATIC     ATOMS    COLORGROUP SYSTEM
2 22 23
@<TRIPOS>COMMENT
> <Gold.Version>
2022.3.0

> <Gold.Id.Protein>
unknown|4v3u_clean|pdb

> <Gold.Protein.RotatedTorsions>
[ 6579 6563 6564 6565 ] final   55.86 input  113.83 | X-H torsion
[ 6671 6647 6648 6649 ] final  -71.19 input  129.80 | X-H torsion
[ 8031 8015 8016 8017 ] final   69.70 input   49.80 | X-H torsion
[ 8111 8093 8094 8095 ] final    8.03 input   98.11 | X-H torsion
[ 8171 8157 8158 8159 ] final   79.94 input   64.44 | X-H torsion
[ 8251 8229 8230 8231 ] final  -44.89 input   84.12 | X-H torsion
[ 9566 9530 9529 9527 ] final   56.20 input   60.01 | X-H torsion
[ 8319 8303 8304 8305 ] final  168.72 input  100.38 | X-H torsion
[ 10191 10175 10176 10177 ] final -106.08 input   40.16 | X-H torsion
[ 7948 7929 7930 7931 ] final -121.91 input   72.92 | X-H torsion
[ 7895 7879 7880 7881 ] final   35.45 input   93.72 | X-H torsion
[ 7899 7884 7883 7880 ] final -117.63 input   60.02 | X-H torsion
[ 6811 6793 6794 6795 ] final -179.98 input  121.38 | X-H torsion
[ 27200 6326 6325 6324 ] final -115.07 input    0.00 | X-H torsion
[ 27203 6566 6565 6564 ] final -148.38 input   -0.00 | X-H torsion
[ 27206 7882 7881 7880 ] final  -70.03 input   -0.00 | X-H torsion
[ 27208 7932 7931 7930 ] final -163.44 input    0.00 | X-H torsion
[ 27211 8018 8017 8016 ] final  174.53 input    0.00 | X-H torsion
[ 27214 8096 8095 8094 ] final  105.32 input   -0.00 | X-H torsion
[ 27217 8160 8159 8158 ] final  -83.94 input    0.00 | X-H torsion
[ 27222 10090 10089 10088 ] final -108.69 input    0.00 | X-H torsion
[ 27224 10178 10177 10176 ] final  -32.82 input   -0.00 | X-H torsion
[ 27229 7724 7723 7722 ] final   85.89 input    0.00 | X-H torsion
[ 27231 7802 7801 7800 ] final -161.31 input    0.00 | X-H torsion

> <Gold.Protein.ActiveResidues>
 ASP403  THR404  ILE407  TYR408  ALA410  LYS411  TRP414  GLN425  TRP426  SER427 
 LYS428  LEU429  GLN430  VAL431  PHE432  ASP433  TYR453  SER462  ALA463  ILE464 

> <Gold.Protein.RotatedAtoms>
  217.6177   42.4668   19.2919 H   0  0  0  0  0  0  0  0  0  0  0  0  # atno 6579 bound_to 6563
  220.3513   41.8865   19.7481 H   0  0  0  0  0  0  0  0  0  0  0  0  # atno 6671 bound_to 6647
  221.9887   38.3923   19.1617 H   0  0  0  0  0  0  0  0  0  0  0  0  # atno 6811 bound_to 6793
  230.5983   39.4788   19.1902 H   0  0  0  0  0  0  0  0  0  0  0  0  # atno 7895 bound_to 7879
  231.5890   42.1369   20.7927 H   0  0  0  0  0  0  0  0  0  0  0  0  # atno 7899 bound_to 7884
  229.4166   41.4376   17.8897 H   0  0  0  0  0  0  0  0  0  0  0  0  # atno 7948 bound_to 7929
  227.2387   40.8785   15.8343 H   0  0  0  0  0  0  0  0  0  0  0  0  # atno 8031 bound_to 8015
  225.2834   38.9245   12.9256 H   0  0  0  0  0  0  0  0  0  0  0  0  # atno 8111 bound_to 8093
  222.3208   41.4657   12.3524 H   0  0  0  0  0  0  0  0  0  0  0  0  # atno 8171 bound_to 8157
  219.2025   39.6494   11.6622 H   0  0  0  0  0  0  0  0  0  0  0  0  # atno 8251 bound_to 8229
  216.8305   40.6770   11.1670 H   0  0  0  0  0  0  0  0  0  0  0  0  # atno 8319 bound_to 8303
  226.9664   42.4911    7.9865 H   0  0  0  0  0  0  0  0  0  0  0  0  # atno 9566 bound_to 9530
  223.3368   35.2484   10.7825 H   0  0  0  0  0  0  0  0  0  0  0  0  # atno 10191 bound_to 10175
  216.2575   43.6320   18.7405 LP  0  0  0  0  0  0  0  0  0  0  0  0  # atno 27200 bound_to 6326
  216.6054   44.0059   17.0855 LP  0  0  0  0  0  0  0  0  0  0  0  0  # atno 27201 bound_to 6326
  217.3175   41.2776   18.0460 LP  0  0  0  0  0  0  0  0  0  0  0  0  # atno 27202 bound_to 6563
  221.1814   40.0474   20.3569 LP  0  0  0  0  0  0  0  0  0  0  0  0  # atno 27203 bound_to 6566
  221.5271   40.3507   18.6871 LP  0  0  0  0  0  0  0  0  0  0  0  0  # atno 27204 bound_to 6566
  219.0690   42.7780   20.5324 LP  0  0  0  0  0  0  0  0  0  0  0  0  # atno 27205 bound_to 6647
  227.4753   42.5302   17.8242 LP  0  0  0  0  0  0  0  0  0  0  0  0  # atno 27206 bound_to 7882
  228.9907   43.3292   17.5694 LP  0  0  0  0  0  0  0  0  0  0  0  0  # atno 27207 bound_to 7882
  228.8606   38.6731   13.7060 LP  0  0  0  0  0  0  0  0  0  0  0  0  # atno 27208 bound_to 7932
  230.3450   38.9162   14.5648 LP  0  0  0  0  0  0  0  0  0  0  0  0  # atno 27209 bound_to 7932
  228.5149   40.2860   14.7930 LP  0  0  0  0  0  0  0  0  0  0  0  0  # atno 27210 bound_to 8015
  224.4005   41.6130   13.6276 LP  0  0  0  0  0  0  0  0  0  0  0  0  # atno 27211 bound_to 8018
  225.0649   41.2143   15.1767 LP  0  0  0  0  0  0  0  0  0  0  0  0  # atno 27212 bound_to 8018
  226.4135   40.1725   12.4688 LP  0  0  0  0  0  0  0  0  0  0  0  0  # atno 27213 bound_to 8093
  222.9636   37.9465   12.6605 LP  0  0  0  0  0  0  0  0  0  0  0  0  # atno 27214 bound_to 8096
  223.0588   37.9909   10.9316 LP  0  0  0  0  0  0  0  0  0  0  0  0  # atno 27215 bound_to 8096
  222.8156   39.9216   11.7012 LP  0  0  0  0  0  0  0  0  0  0  0  0  # atno 27216 bound_to 8157
  218.7017   41.8773   11.8744 LP  0  0  0  0  0  0  0  0  0  0  0  0  # atno 27217 bound_to 8160
  219.8333   42.0668   10.5768 LP  0  0  0  0  0  0  0  0  0  0  0  0  # atno 27218 bound_to 8160
  220.1452   38.8534   10.4258 LP  0  0  0  0  0  0  0  0  0  0  0  0  # atno 27219 bound_to 8229
  228.3662   41.8480    7.4623 LP  0  0  0  0  0  0  0  0  0  0  0  0  # atno 27220 bound_to 9530
  227.5047   41.0959    8.6279 LP  0  0  0  0  0  0  0  0  0  0  0  0  # atno 27221 bound_to 9530
  226.6554   38.1436   11.6309 LP  0  0  0  0  0  0  0  0  0  0  0  0  # atno 27222 bound_to 10090
  227.3840   38.1958   10.0604 LP  0  0  0  0  0  0  0  0  0  0  0  0  # atno 27223 bound_to 10090
  220.6008   37.2887   11.7487 LP  0  0  0  0  0  0  0  0  0  0  0  0  # atno 27224 bound_to 10178
  219.6985   37.0366   10.2918 LP  0  0  0  0  0  0  0  0  0  0  0  0  # atno 27225 bound_to 10178
  216.2772   39.8304    9.7364 LP  0  0  0  0  0  0  0  0  0  0  0  0  # atno 27226 bound_to 8303
  222.8517   36.5443   11.8552 LP  0  0  0  0  0  0  0  0  0  0  0  0  # atno 27227 bound_to 10175
  230.0597   39.8534   17.5207 LP  0  0  0  0  0  0  0  0  0  0  0  0  # atno 27228 bound_to 7929
  230.5129   37.5065   16.7609 LP  0  0  0  0  0  0  0  0  0  0  0  0  # atno 27229 bound_to 7724
  230.9388   39.0552   17.4091 LP  0  0  0  0  0  0  0  0  0  0  0  0  # atno 27230 bound_to 7724
  227.5640   39.3468   18.7043 LP  0  0  0  0  0  0  0  0  0  0  0  0  # atno 27231 bound_to 7802
  227.3916   37.7205   19.2747 LP  0  0  0  0  0  0  0  0  0  0  0  0  # atno 27232 bound_to 7802
  229.4289   39.0164   20.3973 LP  0  0  0  0  0  0  0  0  0  0  0  0  # atno 27233 bound_to 7879
  230.9730   43.3535   19.9049 LP  0  0  0  0  0  0  0  0  0  0  0  0  # atno 27234 bound_to 7884
  231.1625   41.8718   19.2450 LP  0  0  0  0  0  0  0  0  0  0  0  0  # atno 27235 bound_to 7884

> <Gold.Score>
     Fitness  S(hb_ext) S(vdw_ext)  S(hb_int)    S(int)      intcor
     31.32       5.53      19.33       0.00      -0.79      -0.76

> <Gold.Goldscore.Fitness>
31.3205

> <Gold.Goldscore.Internal.Vdw>
-1.0328

> <Gold.Goldscore.Internal.Torsion>
-0.5172

> <Gold.Goldscore.External.Vdw>
19.3292

> <Gold.Goldscore.Internal.HBond>
0.0000

> <Gold.Goldscore.External.HBond>
5.5279

> <Gold.Goldscore.Internal.Correction>
-0.7650

> <Gold.Goldscore.Hbonds>
donor molecule, donor type, donor heavy atom, donor atom, acceptor molecule, acceptor atom, score
      L1  H     8    22       P1  8101  0.92

> <Gold.Goldscore.Internal.Vdw.Weighted>
-1.0328

> <Gold.Goldscore.Internal.Torsion.Weighted>
-0.5172

> <Gold.Goldscore.External.Vdw.Weighted>
26.5777

> <Gold.Goldscore.Internal.HBond.Weighted>
0.0000

> <Gold.Goldscore.External.HBond.Weighted>
5.5279

> <Gold.Goldscore.Internal.Correction.Weighted>
-0.7650

> <Gold.Rescore>
     Score     S(PLP)   S(hbond)     S(cho)   S(metal)  DE(clash)   DE(tors)     intcor
     26.35     -25.73       0.62       0.00       0.00       0.00       0.63       ----

> <Gold.PLP.Fitness>
26.3537

> <Gold.PLP.PLP>
-25.7344

> <Gold.PLP.part.hbond>
-1.0000

> <Gold.PLP.part.metal>
0.0000

> <Gold.PLP.part.buried>
-2.9075

> <Gold.PLP.part.nonpolar>
-22.7149

> <Gold.PLP.part.repulsive>
0.4401

> <Gold.PLP.ligand.clash>
0.0000

> <Gold.PLP.ligand.torsion>
0.6264

> <Gold.PLP.Chemscore.Hbond>
0.6240

> <Gold.PLP.Chemscore.CHOScore>
0.0000

> <Gold.PLP.Chemscore.Metal>
0.0000

> <Gold.Chemscore.Hbonds>
donor molecule, donor type, donor heavy atom, donor atom, acceptor molecule, acceptor atom, score
      L1  H     8    22       P1  8101  0.41
      P1  H  9530  9566       L1     9  0.07

> <Gold.PLP.Chemscore.Internal.Correction>
   9.000000E+99

