#       Name:                CT1002167954
#       Creating user name   hitesit
#       Creation time:       Sun Apr 16 23:01:28 2023


#       File generated by GOLD software.
#

@<TRIPOS>MOLECULE
CT1002167954|ligand_prepared|mol2|1|dock7
    29    30     1
SMALL
NO_CHARGES


@<TRIPOS>ATOM
      1 C1         231.5995  42.6710   9.2417 C.3            1 RES1               0.0000
      2 C2         232.4283  41.5251   8.6261 C.ar           1 RES1               0.0000
      3 C3         230.1636  42.4628   8.7694 C.2            1 RES1               0.0000
      4 C4         231.7794  42.5639  10.7520 C.2            1 RES1               0.0000
      5 C5         232.0610  44.0807   8.8044 C.3            1 RES1               0.0000
      6 C6         233.1569  41.7261   7.4576 C.ar           1 RES1               0.0000
      7 C7         232.4762  40.2647   9.2157 C.ar           1 RES1               0.0000
      8 N8         229.2607  41.9963   9.6788 N.am           1 RES1               0.0000
      9 O9         229.8375  42.6671   7.6066 O.2            1 RES1               0.0000
     10 N10        230.6813  42.2487  11.5086 N.am           1 RES1               0.0000
     11 O11        232.8657  42.7332  11.2919 O.2            1 RES1               0.0000
     12 C12        231.4163  45.2092   9.5937 C.3            1 RES1               0.0000
     13 C13        233.9085  40.7050   6.9002 C.ar           1 RES1               0.0000
     14 C14        233.2283  39.2448   8.6565 C.ar           1 RES1               0.0000
     15 C15        229.4368  41.9299  11.0376 C.2            1 RES1               0.0000
     16 C16        233.9451  39.4639   7.4994 C.ar           1 RES1               0.0000
     17 O17        228.5134  41.6037  11.7780 O.2            1 RES1               0.0000
     18 H18        233.1500  44.1471   8.9188 H              1 RES1               0.0000
     19 H19        231.8267  44.2149   7.7411 H              1 RES1               0.0000
     20 H20        233.1383  42.6954   6.9705 H              1 RES1               0.0000
     21 H21        231.9194  40.0691  10.1258 H              1 RES1               0.0000
     22 H22        228.3724  41.6663   9.3150 H              1 RES1               0.0000
     23 H23        230.8028  42.2522  12.5164 H              1 RES1               0.0000
     24 H24        231.7745  46.1762   9.2469 H              1 RES1               0.0000
     25 H25        230.3342  45.1888   9.4822 H              1 RES1               0.0000
     26 H26        231.6496  45.1213  10.6528 H              1 RES1               0.0000
     27 H27        234.4697  40.8821   5.9886 H              1 RES1               0.0000
     28 H28        233.2537  38.2695   9.1312 H              1 RES1               0.0000
     29 H29        234.5342  38.6643   7.0627 H              1 RES1               0.0000
@<TRIPOS>BOND
    1    1    2 1     
    2    1    3 1     
    3    1    4 1     
    4    1    5 1     
    5    2    6 ar    
    6    2    7 ar    
    7    3    8 1     
    8    3    9 2     
    9    4   10 1     
   10    4   11 2     
   11    5   12 1     
   12    5   18 1     
   13    5   19 1     
   14    6   13 ar    
   15    6   20 1     
   16    7   14 ar    
   17    7   21 1     
   18    8   15 1     
   19    8   22 1     
   20   10   15 1     
   21   10   23 1     
   22   12   24 1     
   23   12   25 1     
   24   12   26 1     
   25   13   16 ar    
   26   13   27 1     
   27   14   16 ar    
   28   14   28 1     
   29   15   17 2     
   30   16   29 1     
@<TRIPOS>SUBSTRUCTURE
      1 RES1           1
@<TRIPOS>SET
DONOR_HYDROGENS      STATIC     ATOMS    <user>   **** ""
2 22 23
ATOM$RED        STATIC     ATOMS    COLORGROUP SYSTEM
2 22 23
@<TRIPOS>COMMENT
> <Gold.Version>
2022.3.0

> <Gold.Id.Protein>
unknown|4v3u_clean|pdb

> <Gold.Protein.RotatedTorsions>
[ 6579 6563 6564 6565 ] final   94.04 input  113.83 | X-H torsion
[ 6671 6647 6648 6649 ] final  -51.85 input  129.80 | X-H torsion
[ 8031 8015 8016 8017 ] final   65.57 input   49.80 | X-H torsion
[ 8111 8093 8094 8095 ] final -172.04 input   98.11 | X-H torsion
[ 8171 8157 8158 8159 ] final -147.72 input   64.44 | X-H torsion
[ 8251 8229 8230 8231 ] final  -57.95 input   84.12 | X-H torsion
[ 9566 9530 9529 9527 ] final  -43.57 input   60.01 | X-H torsion
[ 8319 8303 8304 8305 ] final   18.36 input  100.38 | X-H torsion
[ 10191 10175 10176 10177 ] final  156.13 input   40.16 | X-H torsion
[ 7948 7929 7930 7931 ] final  -33.89 input   72.92 | X-H torsion
[ 7895 7879 7880 7881 ] final -145.54 input   93.72 | X-H torsion
[ 7899 7884 7883 7880 ] final    6.63 input   60.02 | X-H torsion
[ 6811 6793 6794 6795 ] final   58.14 input  121.38 | X-H torsion
[ 27200 6326 6325 6324 ] final   48.67 input    0.00 | X-H torsion
[ 27203 6566 6565 6564 ] final -161.52 input   -0.00 | X-H torsion
[ 27206 7882 7881 7880 ] final    1.47 input   -0.00 | X-H torsion
[ 27208 7932 7931 7930 ] final -103.95 input    0.00 | X-H torsion
[ 27211 8018 8017 8016 ] final -105.88 input    0.00 | X-H torsion
[ 27214 8096 8095 8094 ] final  -41.03 input   -0.00 | X-H torsion
[ 27217 8160 8159 8158 ] final   -7.09 input    0.00 | X-H torsion
[ 27222 10090 10089 10088 ] final  118.60 input    0.00 | X-H torsion
[ 27224 10178 10177 10176 ] final    7.18 input   -0.00 | X-H torsion
[ 27229 7724 7723 7722 ] final  -32.10 input    0.00 | X-H torsion
[ 27231 7802 7801 7800 ] final  -36.16 input    0.00 | X-H torsion

> <Gold.Protein.ActiveResidues>
 ASP403  THR404  ILE407  TYR408  ALA410  LYS411  TRP414  GLN425  TRP426  SER427 
 LYS428  LEU429  GLN430  VAL431  PHE432  ASP433  TYR453  SER462  ALA463  ILE464 

> <Gold.Protein.RotatedAtoms>
  217.5157   42.7391   18.7906 H   0  0  0  0  0  0  0  0  0  0  0  0  # atno 6579 bound_to 6563
  220.1530   41.6683   19.7831 H   0  0  0  0  0  0  0  0  0  0  0  0  # atno 6671 bound_to 6647
  221.6396   38.2894   20.6686 H   0  0  0  0  0  0  0  0  0  0  0  0  # atno 6811 bound_to 6793
  229.4406   39.0063   20.4150 H   0  0  0  0  0  0  0  0  0  0  0  0  # atno 7895 bound_to 7879
  231.1350   41.9291   19.2149 H   0  0  0  0  0  0  0  0  0  0  0  0  # atno 7899 bound_to 7884
  228.9071   40.3460   17.6297 H   0  0  0  0  0  0  0  0  0  0  0  0  # atno 7948 bound_to 7929
  227.2247   40.9215   15.7888 H   0  0  0  0  0  0  0  0  0  0  0  0  # atno 8031 bound_to 8015
  226.4277   40.1764   12.4699 H   0  0  0  0  0  0  0  0  0  0  0  0  # atno 8111 bound_to 8093
  222.9603   39.9819   12.3897 H   0  0  0  0  0  0  0  0  0  0  0  0  # atno 8171 bound_to 8157
  219.2949   39.8141   11.5944 H   0  0  0  0  0  0  0  0  0  0  0  0  # atno 8251 bound_to 8229
  216.1518   40.2514    9.6379 H   0  0  0  0  0  0  0  0  0  0  0  0  # atno 8319 bound_to 8303
  228.2060   42.1221    7.3721 H   0  0  0  0  0  0  0  0  0  0  0  0  # atno 9566 bound_to 9530
  223.5219   35.6298   12.0562 H   0  0  0  0  0  0  0  0  0  0  0  0  # atno 10191 bound_to 10175
  216.4128   43.8593   17.0481 LP  0  0  0  0  0  0  0  0  0  0  0  0  # atno 27200 bound_to 6326
  216.4501   43.7786   18.7779 LP  0  0  0  0  0  0  0  0  0  0  0  0  # atno 27201 bound_to 6326
  217.4168   41.0125   18.5340 LP  0  0  0  0  0  0  0  0  0  0  0  0  # atno 27202 bound_to 6563
  221.3267   40.1788   20.3874 LP  0  0  0  0  0  0  0  0  0  0  0  0  # atno 27203 bound_to 6566
  221.3818   40.2193   18.6567 LP  0  0  0  0  0  0  0  0  0  0  0  0  # atno 27204 bound_to 6566
  219.2627   42.9913   20.4982 LP  0  0  0  0  0  0  0  0  0  0  0  0  # atno 27205 bound_to 6647
  228.0031   43.0341   18.5252 LP  0  0  0  0  0  0  0  0  0  0  0  0  # atno 27206 bound_to 7882
  228.4629   42.8253   16.8684 LP  0  0  0  0  0  0  0  0  0  0  0  0  # atno 27207 bound_to 7882
  229.4492   39.2164   13.3947 LP  0  0  0  0  0  0  0  0  0  0  0  0  # atno 27208 bound_to 7932
  229.7563   38.3729   14.8760 LP  0  0  0  0  0  0  0  0  0  0  0  0  # atno 27209 bound_to 7932
  228.5285   40.2444   14.8370 LP  0  0  0  0  0  0  0  0  0  0  0  0  # atno 27210 bound_to 8015
  224.0206   40.9208   14.4058 LP  0  0  0  0  0  0  0  0  0  0  0  0  # atno 27211 bound_to 8018
  225.4448   41.9065   14.3986 LP  0  0  0  0  0  0  0  0  0  0  0  0  # atno 27212 bound_to 8018
  225.2845   38.9374   12.9185 LP  0  0  0  0  0  0  0  0  0  0  0  0  # atno 27213 bound_to 8093
  223.5285   37.9493   11.1018 LP  0  0  0  0  0  0  0  0  0  0  0  0  # atno 27214 bound_to 8096
  222.4940   37.9882   12.4904 LP  0  0  0  0  0  0  0  0  0  0  0  0  # atno 27215 bound_to 8096
  222.1902   41.3727   11.6647 LP  0  0  0  0  0  0  0  0  0  0  0  0  # atno 27216 bound_to 8157
  219.7268   42.2023   11.9227 LP  0  0  0  0  0  0  0  0  0  0  0  0  # atno 27217 bound_to 8160
  218.8082   41.7417   10.5285 LP  0  0  0  0  0  0  0  0  0  0  0  0  # atno 27218 bound_to 8160
  220.0548   38.6921   10.4922 LP  0  0  0  0  0  0  0  0  0  0  0  0  # atno 27219 bound_to 8229
  227.7914   41.0105    8.4858 LP  0  0  0  0  0  0  0  0  0  0  0  0  # atno 27220 bound_to 9530
  226.8312   42.3050    8.2231 LP  0  0  0  0  0  0  0  0  0  0  0  0  # atno 27221 bound_to 9530
  226.6954   38.1061   10.0452 LP  0  0  0  0  0  0  0  0  0  0  0  0  # atno 27222 bound_to 10090
  227.3440   38.2333   11.6462 LP  0  0  0  0  0  0  0  0  0  0  0  0  # atno 27223 bound_to 10090
  220.9679   37.2657   11.2844 LP  0  0  0  0  0  0  0  0  0  0  0  0  # atno 27224 bound_to 10178
  219.3314   37.0596   10.7561 LP  0  0  0  0  0  0  0  0  0  0  0  0  # atno 27225 bound_to 10178
  216.9301   40.2398   11.2074 LP  0  0  0  0  0  0  0  0  0  0  0  0  # atno 27226 bound_to 8303
  222.6730   36.1762   10.6258 LP  0  0  0  0  0  0  0  0  0  0  0  0  # atno 27227 bound_to 10175
  230.5549   40.9145   17.7735 LP  0  0  0  0  0  0  0  0  0  0  0  0  # atno 27228 bound_to 7929
  231.4252   38.6777   16.7633 LP  0  0  0  0  0  0  0  0  0  0  0  0  # atno 27229 bound_to 7724
  230.0265   37.8840   17.4066 LP  0  0  0  0  0  0  0  0  0  0  0  0  # atno 27230 bound_to 7724
  227.6414   37.8221   18.5238 LP  0  0  0  0  0  0  0  0  0  0  0  0  # atno 27231 bound_to 7802
  227.3142   39.2453   19.4552 LP  0  0  0  0  0  0  0  0  0  0  0  0  # atno 27232 bound_to 7802
  230.5768   39.4849   19.1829 LP  0  0  0  0  0  0  0  0  0  0  0  0  # atno 27233 bound_to 7879
  231.6005   42.0724   20.7675 LP  0  0  0  0  0  0  0  0  0  0  0  0  # atno 27234 bound_to 7884
  230.9923   43.3623   19.9719 LP  0  0  0  0  0  0  0  0  0  0  0  0  # atno 27235 bound_to 7884

> <Gold.Score>
     Fitness  S(hb_ext) S(vdw_ext)  S(hb_int)    S(int)      intcor
     19.51       1.17      13.75       0.00      -0.56      -0.76

> <Gold.Goldscore.Fitness>
19.5112

> <Gold.Goldscore.Internal.Vdw>
-0.7931

> <Gold.Goldscore.Internal.Torsion>
-0.5307

> <Gold.Goldscore.External.Vdw>
13.7485

> <Gold.Goldscore.Internal.HBond>
0.0000

> <Gold.Goldscore.External.HBond>
1.1658

> <Gold.Goldscore.Internal.Correction>
-0.7650

> <Gold.Goldscore.Hbonds>
donor molecule, donor type, donor heavy atom, donor atom, acceptor molecule, acceptor atom, score
      P1  H  8093  8111       L1    17  0.35
      P1  H  9530  9566       L1     9  0.22
      L1  H     8    22       P1  9530  0.01

> <Gold.Goldscore.Internal.Vdw.Weighted>
-0.7931

> <Gold.Goldscore.Internal.Torsion.Weighted>
-0.5307

> <Gold.Goldscore.External.Vdw.Weighted>
18.9042

> <Gold.Goldscore.Internal.HBond.Weighted>
0.0000

> <Gold.Goldscore.External.HBond.Weighted>
1.1658

> <Gold.Goldscore.Internal.Correction.Weighted>
-0.7650

> <Gold.Rescore>
     Score     S(PLP)   S(hbond)     S(cho)   S(metal)  DE(clash)   DE(tors)     intcor
     25.36     -21.17       2.17       0.00       0.00       0.00       1.16       ----

> <Gold.PLP.Fitness>
25.3563

> <Gold.PLP.PLP>
-21.1678

> <Gold.PLP.part.hbond>
-3.2290

> <Gold.PLP.part.metal>
0.0000

> <Gold.PLP.part.buried>
-2.4244

> <Gold.PLP.part.nonpolar>
-16.3337

> <Gold.PLP.part.repulsive>
0.2519

> <Gold.PLP.ligand.clash>
0.0000

> <Gold.PLP.ligand.torsion>
1.1625

> <Gold.PLP.Chemscore.Hbond>
2.1712

> <Gold.PLP.Chemscore.CHOScore>
0.0000

> <Gold.PLP.Chemscore.Metal>
0.0000

> <Gold.Chemscore.Hbonds>
donor molecule, donor type, donor heavy atom, donor atom, acceptor molecule, acceptor atom, score
      L1  H     8    22       P1  9530  0.32
      P1  H  9530  9566       L1     9  0.90

> <Gold.PLP.Chemscore.Internal.Correction>
   9.000000E+99

