#       Name:                CT1002167954
#       Creating user name   hitesit
#       Creation time:       Sun Apr 16 23:01:30 2023


#       File generated by GOLD software.
#

@<TRIPOS>MOLECULE
CT1002167954|ligand_prepared|mol2|1|dock10
    29    30     1
SMALL
NO_CHARGES


@<TRIPOS>ATOM
      1 C1         224.7029  45.2389  12.6890 C.3            1 RES1               0.0000
      2 C2         225.9055  44.4947  12.0738 C.ar           1 RES1               0.0000
      3 C3         223.4622  44.7147  11.9720 C.2            1 RES1               0.0000
      4 C4         224.7326  44.9359  14.1830 C.2            1 RES1               0.0000
      5 C5         224.7608  46.7741  12.5117 C.3            1 RES1               0.0000
      6 C6         226.4395  44.8979  10.8535 C.ar           1 RES1               0.0000
      7 C7         226.4924  43.4069  12.7148 C.ar           1 RES1               0.0000
      8 N8         222.6459  43.8662  12.6602 N.am           1 RES1               0.0000
      9 O9         223.2248  45.0099  10.8072 O.2            1 RES1               0.0000
     10 N10        223.7031  44.2005  14.7096 N.am           1 RES1               0.0000
     11 O11        225.6466  45.3131  14.9058 O.2            1 RES1               0.0000
     12 C12        223.6991  47.5230  13.3016 C.3            1 RES1               0.0000
     13 C13        227.5227  44.2394  10.2956 C.ar           1 RES1               0.0000
     14 C14        227.5755  42.7496  12.1550 C.ar           1 RES1               0.0000
     15 C15        222.6770  43.6259  14.0103 C.2            1 RES1               0.0000
     16 C16        228.0917  43.1652  10.9461 C.ar           1 RES1               0.0000
     17 O17        221.8181  42.9323  14.5473 O.2            1 RES1               0.0000
     18 H18        225.7503  47.1287  12.8257 H              1 RES1               0.0000
     19 H19        224.6418  47.0113  11.4473 H              1 RES1               0.0000
     20 H20        226.0034  45.7396  10.3258 H              1 RES1               0.0000
     21 H21        226.1023  43.0617  13.6663 H              1 RES1               0.0000
     22 H22        221.9478  43.3639  12.1210 H              1 RES1               0.0000
     23 H23        223.7016  44.0695  15.7162 H              1 RES1               0.0000
     24 H24        223.7844  48.5958  13.1416 H              1 RES1               0.0000
     25 H25        222.7016  47.2133  12.9971 H              1 RES1               0.0000
     26 H26        223.8034  47.3300  14.3673 H              1 RES1               0.0000
     27 H27        227.9244  44.5695   9.3433 H              1 RES1               0.0000
     28 H28        228.0197  41.9043  12.6702 H              1 RES1               0.0000
     29 H29        228.9405  42.6498  10.5090 H              1 RES1               0.0000
@<TRIPOS>BOND
    1    1    2 1     
    2    1    3 1     
    3    1    4 1     
    4    1    5 1     
    5    2    6 ar    
    6    2    7 ar    
    7    3    8 1     
    8    3    9 2     
    9    4   10 1     
   10    4   11 2     
   11    5   12 1     
   12    5   18 1     
   13    5   19 1     
   14    6   13 ar    
   15    6   20 1     
   16    7   14 ar    
   17    7   21 1     
   18    8   15 1     
   19    8   22 1     
   20   10   15 1     
   21   10   23 1     
   22   12   24 1     
   23   12   25 1     
   24   12   26 1     
   25   13   16 ar    
   26   13   27 1     
   27   14   16 ar    
   28   14   28 1     
   29   15   17 2     
   30   16   29 1     
@<TRIPOS>SUBSTRUCTURE
      1 RES1           1
@<TRIPOS>SET
DONOR_HYDROGENS      STATIC     ATOMS    <user>   **** ""
2 22 23
ATOM$RED        STATIC     ATOMS    COLORGROUP SYSTEM
2 22 23
@<TRIPOS>COMMENT
> <Gold.Version>
2022.3.0

> <Gold.Id.Protein>
unknown|4v3u_clean|pdb

> <Gold.Protein.RotatedTorsions>
[ 6579 6563 6564 6565 ] final  145.15 input  113.83 | X-H torsion
[ 6671 6647 6648 6649 ] final -144.76 input  129.80 | X-H torsion
[ 8031 8015 8016 8017 ] final  -70.88 input   49.80 | X-H torsion
[ 8111 8093 8094 8095 ] final   35.02 input   98.11 | X-H torsion
[ 8171 8157 8158 8159 ] final  121.21 input   64.44 | X-H torsion
[ 8251 8229 8230 8231 ] final   62.66 input   84.12 | X-H torsion
[ 9566 9530 9529 9527 ] final  107.96 input   60.01 | X-H torsion
[ 8319 8303 8304 8305 ] final   -3.97 input  100.38 | X-H torsion
[ 10191 10175 10176 10177 ] final  -47.36 input   40.16 | X-H torsion
[ 7948 7929 7930 7931 ] final -144.84 input   72.92 | X-H torsion
[ 7895 7879 7880 7881 ] final  138.25 input   93.72 | X-H torsion
[ 7899 7884 7883 7880 ] final -112.35 input   60.02 | X-H torsion
[ 6811 6793 6794 6795 ] final   66.42 input  121.38 | X-H torsion
[ 27200 6326 6325 6324 ] final -174.82 input    0.00 | X-H torsion
[ 27203 6566 6565 6564 ] final  161.59 input   -0.00 | X-H torsion
[ 27206 7882 7881 7880 ] final   29.67 input   -0.00 | X-H torsion
[ 27208 7932 7931 7930 ] final  140.66 input    0.00 | X-H torsion
[ 27211 8018 8017 8016 ] final  -80.55 input    0.00 | X-H torsion
[ 27214 8096 8095 8094 ] final   57.72 input   -0.00 | X-H torsion
[ 27217 8160 8159 8158 ] final   19.39 input    0.00 | X-H torsion
[ 27222 10090 10089 10088 ] final  -84.88 input    0.00 | X-H torsion
[ 27224 10178 10177 10176 ] final   -0.77 input   -0.00 | X-H torsion
[ 27229 7724 7723 7722 ] final   26.97 input    0.00 | X-H torsion
[ 27231 7802 7801 7800 ] final  -91.95 input    0.00 | X-H torsion

> <Gold.Protein.ActiveResidues>
 ASP403  THR404  ILE407  TYR408  ALA410  LYS411  TRP414  GLN425  TRP426  SER427 
 LYS428  LEU429  GLN430  VAL431  PHE432  ASP433  TYR453  SER462  ALA463  ILE464 

> <Gold.Protein.RotatedAtoms>
  217.3587   42.5206   18.0753 H   0  0  0  0  0  0  0  0  0  0  0  0  # atno 6579 bound_to 6563
  220.3554   42.9153   19.9981 H   0  0  0  0  0  0  0  0  0  0  0  0  # atno 6671 bound_to 6647
  221.6428   38.4003   20.6048 H   0  0  0  0  0  0  0  0  0  0  0  0  # atno 6811 bound_to 6793
  230.3734   39.5369   20.5383 H   0  0  0  0  0  0  0  0  0  0  0  0  # atno 7895 bound_to 7879
  231.5975   42.0601   20.7545 H   0  0  0  0  0  0  0  0  0  0  0  0  # atno 7899 bound_to 7884
  229.7638   41.4981   17.9030 H   0  0  0  0  0  0  0  0  0  0  0  0  # atno 7948 bound_to 7929
  228.2391   40.7197   14.5007 H   0  0  0  0  0  0  0  0  0  0  0  0  # atno 8031 bound_to 8015
  225.4614   38.7737   12.5887 H   0  0  0  0  0  0  0  0  0  0  0  0  # atno 8111 bound_to 8093
  222.5820   41.1144   12.7951 H   0  0  0  0  0  0  0  0  0  0  0  0  # atno 8171 bound_to 8157
  219.4835   38.3871   11.0664 H   0  0  0  0  0  0  0  0  0  0  0  0  # atno 8251 bound_to 8229
  216.2092   39.9134    9.6816 H   0  0  0  0  0  0  0  0  0  0  0  0  # atno 8319 bound_to 8303
  226.8237   41.8939    8.5258 H   0  0  0  0  0  0  0  0  0  0  0  0  # atno 9566 bound_to 9530
  222.8021   35.8722   10.4860 H   0  0  0  0  0  0  0  0  0  0  0  0  # atno 10191 bound_to 10175
  216.9167   44.1540   18.5473 LP  0  0  0  0  0  0  0  0  0  0  0  0  # atno 27200 bound_to 6326
  215.9462   43.4839   17.2787 LP  0  0  0  0  0  0  0  0  0  0  0  0  # atno 27201 bound_to 6326
  217.5696   41.2252   19.2304 LP  0  0  0  0  0  0  0  0  0  0  0  0  # atno 27202 bound_to 6563
  221.7175   40.5312   20.2346 LP  0  0  0  0  0  0  0  0  0  0  0  0  # atno 27203 bound_to 6566
  220.9910   39.8669   18.8094 LP  0  0  0  0  0  0  0  0  0  0  0  0  # atno 27204 bound_to 6566
  219.0650   41.7730   20.2881 LP  0  0  0  0  0  0  0  0  0  0  0  0  # atno 27205 bound_to 6647
  228.3716   43.2373   18.4944 LP  0  0  0  0  0  0  0  0  0  0  0  0  # atno 27206 bound_to 7882
  228.0944   42.6221   16.8992 LP  0  0  0  0  0  0  0  0  0  0  0  0  # atno 27207 bound_to 7882
  228.9721   38.2619   14.3970 LP  0  0  0  0  0  0  0  0  0  0  0  0  # atno 27208 bound_to 7932
  230.2334   39.3274   13.8738 LP  0  0  0  0  0  0  0  0  0  0  0  0  # atno 27209 bound_to 7932
  227.5465   40.4397   16.0838 LP  0  0  0  0  0  0  0  0  0  0  0  0  # atno 27210 bound_to 8015
  224.1777   40.8427   14.7427 LP  0  0  0  0  0  0  0  0  0  0  0  0  # atno 27211 bound_to 8018
  225.2878   41.9846   14.0617 LP  0  0  0  0  0  0  0  0  0  0  0  0  # atno 27212 bound_to 8018
  226.2379   40.3213   12.8013 LP  0  0  0  0  0  0  0  0  0  0  0  0  # atno 27213 bound_to 8093
  223.6158   37.9032   12.4127 LP  0  0  0  0  0  0  0  0  0  0  0  0  # atno 27214 bound_to 8096
  222.4067   38.0342   11.1794 LP  0  0  0  0  0  0  0  0  0  0  0  0  # atno 27215 bound_to 8096
  222.5601   40.2652   11.2682 LP  0  0  0  0  0  0  0  0  0  0  0  0  # atno 27216 bound_to 8157
  219.9855   42.2455   11.6251 LP  0  0  0  0  0  0  0  0  0  0  0  0  # atno 27217 bound_to 8160
  218.5495   41.6985   10.8260 LP  0  0  0  0  0  0  0  0  0  0  0  0  # atno 27218 bound_to 8160
  219.8700   40.0896   11.0093 LP  0  0  0  0  0  0  0  0  0  0  0  0  # atno 27219 bound_to 8229
  227.8330   42.4704    7.3870 LP  0  0  0  0  0  0  0  0  0  0  0  0  # atno 27220 bound_to 9530
  228.1815   41.0750    8.1602 LP  0  0  0  0  0  0  0  0  0  0  0  0  # atno 27221 bound_to 9530
  227.0003   38.1905   11.7112 LP  0  0  0  0  0  0  0  0  0  0  0  0  # atno 27222 bound_to 10090
  227.0391   38.1489    9.9801 LP  0  0  0  0  0  0  0  0  0  0  0  0  # atno 27223 bound_to 10090
  220.9223   37.2749   11.3950 LP  0  0  0  0  0  0  0  0  0  0  0  0  # atno 27224 bound_to 10178
  219.3770   37.0504   10.6455 LP  0  0  0  0  0  0  0  0  0  0  0  0  # atno 27225 bound_to 10178
  216.8749   40.5650   11.1654 LP  0  0  0  0  0  0  0  0  0  0  0  0  # atno 27226 bound_to 8303
  223.3679   35.9422   12.1414 LP  0  0  0  0  0  0  0  0  0  0  0  0  # atno 27227 bound_to 10175
  229.7222   39.7947   17.5078 LP  0  0  0  0  0  0  0  0  0  0  0  0  # atno 27228 bound_to 7929
  231.1972   37.9135   16.4582 LP  0  0  0  0  0  0  0  0  0  0  0  0  # atno 27229 bound_to 7724
  230.2545   38.6482   17.7118 LP  0  0  0  0  0  0  0  0  0  0  0  0  # atno 27230 bound_to 7724
  227.7522   38.5418   18.1682 LP  0  0  0  0  0  0  0  0  0  0  0  0  # atno 27231 bound_to 7802
  227.2034   38.5256   19.8109 LP  0  0  0  0  0  0  0  0  0  0  0  0  # atno 27232 bound_to 7802
  229.6519   38.9588   19.0607 LP  0  0  0  0  0  0  0  0  0  0  0  0  # atno 27233 bound_to 7879
  230.9971   43.3637   19.9878 LP  0  0  0  0  0  0  0  0  0  0  0  0  # atno 27234 bound_to 7884
  231.1298   41.9391   19.2007 LP  0  0  0  0  0  0  0  0  0  0  0  0  # atno 27235 bound_to 7884

> <Gold.Score>
     Fitness  S(hb_ext) S(vdw_ext)  S(hb_int)    S(int)      intcor
     23.90       0.25      17.90       0.00      -0.97      -0.76

> <Gold.Goldscore.Fitness>
23.9013

> <Gold.Goldscore.Internal.Vdw>
-1.2361

> <Gold.Goldscore.Internal.Torsion>
-0.4949

> <Gold.Goldscore.External.Vdw>
17.9016

> <Gold.Goldscore.Internal.HBond>
0.0000

> <Gold.Goldscore.External.HBond>
0.2527

> <Gold.Goldscore.Internal.Correction>
-0.7650

> <Gold.Goldscore.Hbonds>
donor molecule, donor type, donor heavy atom, donor atom, acceptor molecule, acceptor atom, score
      P1  H  8100  8117       L1     9  0.01
      P1  H  8157  8171       L1    17  0.02
      L1  H     8    22       P1  8160  0.09

> <Gold.Goldscore.Internal.Vdw.Weighted>
-1.2361

> <Gold.Goldscore.Internal.Torsion.Weighted>
-0.4949

> <Gold.Goldscore.External.Vdw.Weighted>
24.6146

> <Gold.Goldscore.Internal.HBond.Weighted>
0.0000

> <Gold.Goldscore.External.HBond.Weighted>
0.2527

> <Gold.Goldscore.Internal.Correction.Weighted>
-0.7650

> <Gold.Rescore>
     Score     S(PLP)   S(hbond)     S(cho)   S(metal)  DE(clash)   DE(tors)     intcor
     12.71      -9.76       1.51       0.00       0.00       1.03       0.28       ----

> <Gold.PLP.Fitness>
12.7084

> <Gold.PLP.PLP>
-9.7644

> <Gold.PLP.part.hbond>
-1.5792

> <Gold.PLP.part.metal>
0.0000

> <Gold.PLP.part.buried>
-3.4672

> <Gold.PLP.part.nonpolar>
-6.3639

> <Gold.PLP.part.repulsive>
0.4729

> <Gold.PLP.ligand.clash>
1.0333

> <Gold.PLP.ligand.torsion>
0.2782

> <Gold.PLP.Chemscore.Hbond>
1.5112

> <Gold.PLP.Chemscore.CHOScore>
0.0000

> <Gold.PLP.Chemscore.Metal>
0.0000

> <Gold.Chemscore.Hbonds>
donor molecule, donor type, donor heavy atom, donor atom, acceptor molecule, acceptor atom, score
      P1  H  6801  6822       L1    11  0.70
      P1  H  8100  8117       L1     9  0.58

> <Gold.PLP.Chemscore.Internal.Correction>
   9.000000E+99

