#       Name:                CT1002167954
#       Creating user name   hitesit
#       Creation time:       Sun Apr 16 23:01:29 2023


#       File generated by GOLD software.
#

@<TRIPOS>MOLECULE
CT1002167954|ligand_prepared|mol2|1|dock9
    29    30     1
SMALL
NO_CHARGES


@<TRIPOS>ATOM
      1 C1         226.4471  46.2320  14.2021 C.3            1 RES1               0.0000
      2 C2         225.2220  46.6235  15.0534 C.ar           1 RES1               0.0000
      3 C3         227.2973  45.3114  15.0727 C.2            1 RES1               0.0000
      4 C4         225.8980  45.5669  12.9448 C.2            1 RES1               0.0000
      5 C5         227.3152  47.4352  13.7659 C.3            1 RES1               0.0000
      6 C6         224.0929  45.8106  15.0862 C.ar           1 RES1               0.0000
      7 C7         225.2072  47.7910  15.8119 C.ar           1 RES1               0.0000
      8 N8         227.2961  43.9807  14.7742 N.am           1 RES1               0.0000
      9 O9         227.9278  45.7408  16.0310 O.2            1 RES1               0.0000
     10 N10        226.1673  44.2373  12.7518 N.am           1 RES1               0.0000
     11 O11        225.2205  46.1783  12.1278 O.2            1 RES1               0.0000
     12 C12        228.3765  47.0839  12.7352 C.3            1 RES1               0.0000
     13 C13        222.9901  46.1510  15.8518 C.ar           1 RES1               0.0000
     14 C14        224.1032  48.1296  16.5767 C.ar           1 RES1               0.0000
     15 C15        226.8155  43.4066  13.6248 C.2            1 RES1               0.0000
     16 C16        222.9946  47.3103  16.5978 C.ar           1 RES1               0.0000
     17 O17        226.9716  42.2088  13.4051 O.2            1 RES1               0.0000
     18 H18        226.6604  48.2101  13.3485 H              1 RES1               0.0000
     19 H19        227.8083  47.8544  14.6516 H              1 RES1               0.0000
     20 H20        224.0701  44.8956  14.5037 H              1 RES1               0.0000
     21 H21        226.0678  48.4513  15.8096 H              1 RES1               0.0000
     22 H22        227.6888  43.3545  15.4699 H              1 RES1               0.0000
     23 H23        225.8559  43.8289  11.8763 H              1 RES1               0.0000
     24 H24        228.9569  47.9633  12.4640 H              1 RES1               0.0000
     25 H25        229.0607  46.3337  13.1263 H              1 RES1               0.0000
     26 H26        227.9196  46.6873  11.8309 H              1 RES1               0.0000
     27 H27        222.1196  45.5035  15.8640 H              1 RES1               0.0000
     28 H28        224.1109  49.0433  17.1617 H              1 RES1               0.0000
     29 H29        222.1307  47.5765  17.1978 H              1 RES1               0.0000
@<TRIPOS>BOND
    1    1    2 1     
    2    1    3 1     
    3    1    4 1     
    4    1    5 1     
    5    2    6 ar    
    6    2    7 ar    
    7    3    8 1     
    8    3    9 2     
    9    4   10 1     
   10    4   11 2     
   11    5   12 1     
   12    5   18 1     
   13    5   19 1     
   14    6   13 ar    
   15    6   20 1     
   16    7   14 ar    
   17    7   21 1     
   18    8   15 1     
   19    8   22 1     
   20   10   15 1     
   21   10   23 1     
   22   12   24 1     
   23   12   25 1     
   24   12   26 1     
   25   13   16 ar    
   26   13   27 1     
   27   14   16 ar    
   28   14   28 1     
   29   15   17 2     
   30   16   29 1     
@<TRIPOS>SUBSTRUCTURE
      1 RES1           1
@<TRIPOS>SET
DONOR_HYDROGENS      STATIC     ATOMS    <user>   **** ""
2 22 23
ATOM$RED        STATIC     ATOMS    COLORGROUP SYSTEM
2 22 23
@<TRIPOS>COMMENT
> <Gold.Version>
2022.3.0

> <Gold.Id.Protein>
unknown|4v3u_clean|pdb

> <Gold.Protein.RotatedTorsions>
[ 6579 6563 6564 6565 ] final  123.80 input  113.83 | X-H torsion
[ 6671 6647 6648 6649 ] final  131.92 input  129.80 | X-H torsion
[ 8031 8015 8016 8017 ] final   -9.10 input   49.80 | X-H torsion
[ 8111 8093 8094 8095 ] final -129.26 input   98.11 | X-H torsion
[ 8171 8157 8158 8159 ] final  107.54 input   64.44 | X-H torsion
[ 8251 8229 8230 8231 ] final  -48.69 input   84.12 | X-H torsion
[ 9566 9530 9529 9527 ] final   57.63 input   60.01 | X-H torsion
[ 8319 8303 8304 8305 ] final  168.28 input  100.38 | X-H torsion
[ 10191 10175 10176 10177 ] final  177.71 input   40.16 | X-H torsion
[ 7948 7929 7930 7931 ] final  -91.33 input   72.92 | X-H torsion
[ 7895 7879 7880 7881 ] final  -49.83 input   93.72 | X-H torsion
[ 7899 7884 7883 7880 ] final -121.23 input   60.02 | X-H torsion
[ 6811 6793 6794 6795 ] final  -93.29 input  121.38 | X-H torsion
[ 27200 6326 6325 6324 ] final -100.90 input    0.00 | X-H torsion
[ 27203 6566 6565 6564 ] final   59.54 input   -0.00 | X-H torsion
[ 27206 7882 7881 7880 ] final -143.29 input   -0.00 | X-H torsion
[ 27208 7932 7931 7930 ] final  -58.53 input    0.00 | X-H torsion
[ 27211 8018 8017 8016 ] final    6.09 input    0.00 | X-H torsion
[ 27214 8096 8095 8094 ] final  -40.07 input   -0.00 | X-H torsion
[ 27217 8160 8159 8158 ] final  -68.48 input    0.00 | X-H torsion
[ 27222 10090 10089 10088 ] final -179.40 input    0.00 | X-H torsion
[ 27224 10178 10177 10176 ] final    4.44 input   -0.00 | X-H torsion
[ 27229 7724 7723 7722 ] final  -91.65 input    0.00 | X-H torsion
[ 27231 7802 7801 7800 ] final  131.50 input    0.00 | X-H torsion

> <Gold.Protein.ActiveResidues>
 ASP403  THR404  ILE407  TYR408  ALA410  LYS411  TRP414  GLN425  TRP426  SER427 
 LYS428  LEU429  GLN430  VAL431  PHE432  ASP433  TYR453  SER462  ALA463  ILE464 

> <Gold.Protein.RotatedAtoms>
  217.4203   42.6920   18.3483 H   0  0  0  0  0  0  0  0  0  0  0  0  # atno 6579 bound_to 6563
  219.2997   43.0399   20.4992 H   0  0  0  0  0  0  0  0  0  0  0  0  # atno 6671 bound_to 6647
  222.0589   37.2016   19.4057 H   0  0  0  0  0  0  0  0  0  0  0  0  # atno 6811 bound_to 6793
  229.5649   38.9009   19.1275 H   0  0  0  0  0  0  0  0  0  0  0  0  # atno 7895 bound_to 7879
  231.5815   42.1909   20.8149 H   0  0  0  0  0  0  0  0  0  0  0  0  # atno 7899 bound_to 7884
  229.0423   41.1645   17.8255 H   0  0  0  0  0  0  0  0  0  0  0  0  # atno 7948 bound_to 7929
  227.5429   41.2269   14.8043 H   0  0  0  0  0  0  0  0  0  0  0  0  # atno 8031 bound_to 8015
  226.1029   40.3383   12.9977 H   0  0  0  0  0  0  0  0  0  0  0  0  # atno 8111 bound_to 8093
  222.4892   41.2663   12.6834 H   0  0  0  0  0  0  0  0  0  0  0  0  # atno 8171 bound_to 8157
  219.2270   39.6999   11.6457 H   0  0  0  0  0  0  0  0  0  0  0  0  # atno 8251 bound_to 8229
  216.8286   40.6830   11.1642 H   0  0  0  0  0  0  0  0  0  0  0  0  # atno 8319 bound_to 8303
  226.9543   42.4802    8.0032 H   0  0  0  0  0  0  0  0  0  0  0  0  # atno 9566 bound_to 9530
  223.6085   35.3930   11.8379 H   0  0  0  0  0  0  0  0  0  0  0  0  # atno 10191 bound_to 10175
  216.1004   43.5160   18.6537 LP  0  0  0  0  0  0  0  0  0  0  0  0  # atno 27200 bound_to 6326
  216.7626   44.1219   17.1723 LP  0  0  0  0  0  0  0  0  0  0  0  0  # atno 27201 bound_to 6326
  217.5097   41.0583   18.9646 LP  0  0  0  0  0  0  0  0  0  0  0  0  # atno 27202 bound_to 6563
  221.7967   40.5955   18.8918 LP  0  0  0  0  0  0  0  0  0  0  0  0  # atno 27203 bound_to 6566
  220.9119   39.8026   20.1522 LP  0  0  0  0  0  0  0  0  0  0  0  0  # atno 27204 bound_to 6566
  220.0964   41.6512   19.7986 LP  0  0  0  0  0  0  0  0  0  0  0  0  # atno 27205 bound_to 6647
  228.0041   42.5811   16.9378 LP  0  0  0  0  0  0  0  0  0  0  0  0  # atno 27206 bound_to 7882
  228.4619   43.2782   18.4558 LP  0  0  0  0  0  0  0  0  0  0  0  0  # atno 27207 bound_to 7882
  230.0441   39.3681   13.6596 LP  0  0  0  0  0  0  0  0  0  0  0  0  # atno 27208 bound_to 7932
  229.1615   38.2212   14.6112 LP  0  0  0  0  0  0  0  0  0  0  0  0  # atno 27209 bound_to 7932
  228.2204   39.9488   15.7900 LP  0  0  0  0  0  0  0  0  0  0  0  0  # atno 27210 bound_to 8015
  225.1910   41.3261   15.1318 LP  0  0  0  0  0  0  0  0  0  0  0  0  # atno 27211 bound_to 8018
  224.2744   41.5012   13.6726 LP  0  0  0  0  0  0  0  0  0  0  0  0  # atno 27212 bound_to 8018
  225.6050   38.7777   12.3978 LP  0  0  0  0  0  0  0  0  0  0  0  0  # atno 27213 bound_to 8093
  223.5400   37.9481   11.1105 LP  0  0  0  0  0  0  0  0  0  0  0  0  # atno 27214 bound_to 8096
  222.4825   37.9893   12.4816 LP  0  0  0  0  0  0  0  0  0  0  0  0  # atno 27215 bound_to 8096
  222.6508   40.1167   11.3775 LP  0  0  0  0  0  0  0  0  0  0  0  0  # atno 27216 bound_to 8157
  218.8831   41.9496   12.0013 LP  0  0  0  0  0  0  0  0  0  0  0  0  # atno 27217 bound_to 8160
  219.6519   41.9944   10.4499 LP  0  0  0  0  0  0  0  0  0  0  0  0  # atno 27218 bound_to 8160
  220.1212   38.8040   10.4420 LP  0  0  0  0  0  0  0  0  0  0  0  0  # atno 27219 bound_to 8229
  228.3582   41.8682    7.4532 LP  0  0  0  0  0  0  0  0  0  0  0  0  # atno 27220 bound_to 9530
  227.5249   41.0868    8.6202 LP  0  0  0  0  0  0  0  0  0  0  0  0  # atno 27221 bound_to 9530
  226.1653   38.0566   10.7610 LP  0  0  0  0  0  0  0  0  0  0  0  0  # atno 27222 bound_to 10090
  227.8741   38.2828   10.9303 LP  0  0  0  0  0  0  0  0  0  0  0  0  # atno 27223 bound_to 10090
  220.9539   37.2691   11.3232 LP  0  0  0  0  0  0  0  0  0  0  0  0  # atno 27224 bound_to 10178
  219.3454   37.0562   10.7173 LP  0  0  0  0  0  0  0  0  0  0  0  0  # atno 27225 bound_to 10178
  216.2791   39.8247    9.7391 LP  0  0  0  0  0  0  0  0  0  0  0  0  # atno 27226 bound_to 8303
  222.5894   36.4048   10.8364 LP  0  0  0  0  0  0  0  0  0  0  0  0  # atno 27227 bound_to 10175
  230.4235   40.1189   17.5831 LP  0  0  0  0  0  0  0  0  0  0  0  0  # atno 27228 bound_to 7929
  230.9679   39.0561   17.3858 LP  0  0  0  0  0  0  0  0  0  0  0  0  # atno 27229 bound_to 7724
  230.4839   37.5056   16.7842 LP  0  0  0  0  0  0  0  0  0  0  0  0  # atno 27230 bound_to 7724
  227.2708   39.1233   19.5891 LP  0  0  0  0  0  0  0  0  0  0  0  0  # atno 27231 bound_to 7802
  227.6848   37.9440   18.3900 LP  0  0  0  0  0  0  0  0  0  0  0  0  # atno 27232 bound_to 7802
  230.4536   39.5894   20.4595 LP  0  0  0  0  0  0  0  0  0  0  0  0  # atno 27233 bound_to 7879
  230.9579   43.3422   19.8487 LP  0  0  0  0  0  0  0  0  0  0  0  0  # atno 27234 bound_to 7884
  231.1851   41.8288   19.2788 LP  0  0  0  0  0  0  0  0  0  0  0  0  # atno 27235 bound_to 7884

> <Gold.Score>
     Fitness  S(hb_ext) S(vdw_ext)  S(hb_int)    S(int)      intcor
     20.85       7.90       9.62       0.00      -0.28      -0.76

> <Gold.Goldscore.Fitness>
20.8492

> <Gold.Goldscore.Internal.Vdw>
-0.5172

> <Gold.Goldscore.Internal.Torsion>
-0.5234

> <Gold.Goldscore.External.Vdw>
9.6153

> <Gold.Goldscore.Internal.HBond>
0.0000

> <Gold.Goldscore.External.HBond>
7.9038

> <Gold.Goldscore.Internal.Correction>
-0.7650

> <Gold.Goldscore.Hbonds>
donor molecule, donor type, donor heavy atom, donor atom, acceptor molecule, acceptor atom, score
      P1  H  8015  8031       L1    17  0.22
      P1  H  8093  8111       L1    17  0.37
      L1  H     8    22       P1  7882  0.36
      L1  H    10    23       P1  8101  1.00

> <Gold.Goldscore.Internal.Vdw.Weighted>
-0.5172

> <Gold.Goldscore.Internal.Torsion.Weighted>
-0.5234

> <Gold.Goldscore.External.Vdw.Weighted>
13.2211

> <Gold.Goldscore.Internal.HBond.Weighted>
0.0000

> <Gold.Goldscore.External.HBond.Weighted>
7.9038

> <Gold.Goldscore.Internal.Correction.Weighted>
-0.7650

> <Gold.Rescore>
     Score     S(PLP)   S(hbond)     S(cho)   S(metal)  DE(clash)   DE(tors)     intcor
    -10.43      14.61       2.01       0.00       0.00       0.00       0.93       ----

> <Gold.PLP.Fitness>
-10.4302

> <Gold.PLP.PLP>
14.6064

> <Gold.PLP.part.hbond>
-1.3642

> <Gold.PLP.part.metal>
0.0000

> <Gold.PLP.part.buried>
13.1467

> <Gold.PLP.part.nonpolar>
-7.2937

> <Gold.PLP.part.repulsive>
8.3435

> <Gold.PLP.ligand.clash>
0.0000

> <Gold.PLP.ligand.torsion>
0.9301

> <Gold.PLP.Chemscore.Hbond>
2.0121

> <Gold.PLP.Chemscore.CHOScore>
0.0000

> <Gold.PLP.Chemscore.Metal>
0.0000

> <Gold.Chemscore.Hbonds>
donor molecule, donor type, donor heavy atom, donor atom, acceptor molecule, acceptor atom, score
      L1  H    10    23       P1  8101  0.73
      P1  H  8015  8031       L1    17  0.78
      P1  H  8093  8111       L1    17  0.97

> <Gold.PLP.Chemscore.Internal.Correction>
   9.000000E+99

