#       Name:                CT1002167954
#       Creating user name   hitesit
#       Creation time:       Sun Apr 16 23:01:27 2023


#       File generated by GOLD software.
#

@<TRIPOS>MOLECULE
CT1002167954|ligand_prepared|mol2|1|dock5
    29    30     1
SMALL
NO_CHARGES


@<TRIPOS>ATOM
      1 C1         229.6307  43.6594  10.9935 C.3            1 RES1               0.0000
      2 C2         230.1762  45.0968  10.8707 C.ar           1 RES1               0.0000
      3 C3         229.5843  43.3448  12.4858 C.2            1 RES1               0.0000
      4 C4         228.2650  43.6620  10.3155 C.2            1 RES1               0.0000
      5 C5         230.5091  42.5959  10.2943 C.3            1 RES1               0.0000
      6 C6         230.5893  45.5951   9.6387 C.ar           1 RES1               0.0000
      7 C7         230.2697  45.9357  11.9779 C.ar           1 RES1               0.0000
      8 N8         228.3614  43.3221  13.0891 N.am           1 RES1               0.0000
      9 O9         230.6082  43.1584  13.1317 O.2            1 RES1               0.0000
     10 N10        227.1603  43.4419  11.0959 N.am           1 RES1               0.0000
     11 O11        228.1343  43.8692   9.1154 O.2            1 RES1               0.0000
     12 C12        230.0173  41.1702  10.4888 C.3            1 RES1               0.0000
     13 C13        231.0754  46.8864   9.5174 C.ar           1 RES1               0.0000
     14 C14        230.7564  47.2266  11.8545 C.ar           1 RES1               0.0000
     15 C15        227.1442  43.3026  12.4569 C.2            1 RES1               0.0000
     16 C16        231.1589  47.7030  10.6249 C.ar           1 RES1               0.0000
     17 O17        226.1046  43.1622  13.0947 O.2            1 RES1               0.0000
     18 H18        230.5409  42.8150   9.2199 H              1 RES1               0.0000
     19 H19        231.5323  42.6724  10.6824 H              1 RES1               0.0000
     20 H20        230.5332  44.9663   8.7564 H              1 RES1               0.0000
     21 H21        229.9598  45.5819  12.9554 H              1 RES1               0.0000
     22 H22        228.3510  43.3195  14.1040 H              1 RES1               0.0000
     23 H23        226.2674  43.3756  10.6178 H              1 RES1               0.0000
     24 H24        230.6691  40.4644   9.9782 H              1 RES1               0.0000
     25 H25        229.9971  40.9099  11.5450 H              1 RES1               0.0000
     26 H26        229.0115  41.0516  10.0912 H              1 RES1               0.0000
     27 H27        231.3922  47.2561   8.5478 H              1 RES1               0.0000
     28 H28        230.8209  47.8657  12.7289 H              1 RES1               0.0000
     29 H29        231.5394  48.7146  10.5296 H              1 RES1               0.0000
@<TRIPOS>BOND
    1    1    2 1     
    2    1    3 1     
    3    1    4 1     
    4    1    5 1     
    5    2    6 ar    
    6    2    7 ar    
    7    3    8 1     
    8    3    9 2     
    9    4   10 1     
   10    4   11 2     
   11    5   12 1     
   12    5   18 1     
   13    5   19 1     
   14    6   13 ar    
   15    6   20 1     
   16    7   14 ar    
   17    7   21 1     
   18    8   15 1     
   19    8   22 1     
   20   10   15 1     
   21   10   23 1     
   22   12   24 1     
   23   12   25 1     
   24   12   26 1     
   25   13   16 ar    
   26   13   27 1     
   27   14   16 ar    
   28   14   28 1     
   29   15   17 2     
   30   16   29 1     
@<TRIPOS>SUBSTRUCTURE
      1 RES1           1
@<TRIPOS>SET
DONOR_HYDROGENS      STATIC     ATOMS    <user>   **** ""
2 22 23
ATOM$RED        STATIC     ATOMS    COLORGROUP SYSTEM
2 22 23
@<TRIPOS>COMMENT
> <Gold.Version>
2022.3.0

> <Gold.Id.Protein>
unknown|4v3u_clean|pdb

> <Gold.Protein.RotatedTorsions>
[ 6579 6563 6564 6565 ] final  127.88 input  113.83 | X-H torsion
[ 6671 6647 6648 6649 ] final  169.50 input  129.80 | X-H torsion
[ 8031 8015 8016 8017 ] final  -76.42 input   49.80 | X-H torsion
[ 8111 8093 8094 8095 ] final   64.34 input   98.11 | X-H torsion
[ 8171 8157 8158 8159 ] final  109.32 input   64.44 | X-H torsion
[ 8251 8229 8230 8231 ] final   40.56 input   84.12 | X-H torsion
[ 9566 9530 9529 9527 ] final    4.19 input   60.01 | X-H torsion
[ 8319 8303 8304 8305 ] final  -44.33 input  100.38 | X-H torsion
[ 10191 10175 10176 10177 ] final  -41.52 input   40.16 | X-H torsion
[ 7948 7929 7930 7931 ] final  127.88 input   72.92 | X-H torsion
[ 7895 7879 7880 7881 ] final   48.56 input   93.72 | X-H torsion
[ 7899 7884 7883 7880 ] final  112.95 input   60.02 | X-H torsion
[ 6811 6793 6794 6795 ] final -138.50 input  121.38 | X-H torsion
[ 27200 6326 6325 6324 ] final  -55.33 input    0.00 | X-H torsion
[ 27203 6566 6565 6564 ] final   58.91 input   -0.00 | X-H torsion
[ 27206 7882 7881 7880 ] final -102.56 input   -0.00 | X-H torsion
[ 27208 7932 7931 7930 ] final   26.50 input    0.00 | X-H torsion
[ 27211 8018 8017 8016 ] final  -35.51 input    0.00 | X-H torsion
[ 27214 8096 8095 8094 ] final -150.70 input   -0.00 | X-H torsion
[ 27217 8160 8159 8158 ] final  168.36 input    0.00 | X-H torsion
[ 27222 10090 10089 10088 ] final   96.54 input    0.00 | X-H torsion
[ 27224 10178 10177 10176 ] final -166.38 input   -0.00 | X-H torsion
[ 27229 7724 7723 7722 ] final   61.45 input    0.00 | X-H torsion
[ 27231 7802 7801 7800 ] final  136.97 input    0.00 | X-H torsion

> <Gold.Protein.ActiveResidues>
 ASP403  THR404  ILE407  TYR408  ALA410  LYS411  TRP414  GLN425  TRP426  SER427 
 LYS428  LEU429  GLN430  VAL431  PHE432  ASP433  TYR453  SER462  ALA463  ILE464 

> <Gold.Protein.RotatedAtoms>
  217.4077   42.6675   18.2916 H   0  0  0  0  0  0  0  0  0  0  0  0  # atno 6579 bound_to 6563
  219.8125   43.1990   20.3095 H   0  0  0  0  0  0  0  0  0  0  0  0  # atno 6671 bound_to 6647
  222.0818   37.7816   19.0480 H   0  0  0  0  0  0  0  0  0  0  0  0  # atno 6811 bound_to 6793
  230.6965   39.5541   19.3471 H   0  0  0  0  0  0  0  0  0  0  0  0  # atno 7895 bound_to 7879
  230.9364   43.3098   19.7616 H   0  0  0  0  0  0  0  0  0  0  0  0  # atno 7899 bound_to 7884
  230.6294   40.6570   17.6982 H   0  0  0  0  0  0  0  0  0  0  0  0  # atno 7948 bound_to 7929
  228.2930   40.6549   14.5175 H   0  0  0  0  0  0  0  0  0  0  0  0  # atno 8031 bound_to 8015
  225.7501   38.8018   12.2520 H   0  0  0  0  0  0  0  0  0  0  0  0  # atno 8111 bound_to 8093
  222.5012   41.2482   12.7002 H   0  0  0  0  0  0  0  0  0  0  0  0  # atno 8171 bound_to 8157
  219.2870   38.5065   11.3145 H   0  0  0  0  0  0  0  0  0  0  0  0  # atno 8251 bound_to 8229
  216.4262   39.4579   10.0352 H   0  0  0  0  0  0  0  0  0  0  0  0  # atno 8319 bound_to 8303
  227.6032   42.5700    7.4743 H   0  0  0  0  0  0  0  0  0  0  0  0  # atno 9566 bound_to 9530
  222.7557   35.9483   10.5035 H   0  0  0  0  0  0  0  0  0  0  0  0  # atno 10191 bound_to 10175
  215.7710   43.2956   18.1126 LP  0  0  0  0  0  0  0  0  0  0  0  0  # atno 27200 bound_to 6326
  217.0920   44.3423   17.7134 LP  0  0  0  0  0  0  0  0  0  0  0  0  # atno 27201 bound_to 6326
  217.5219   41.0822   19.0198 LP  0  0  0  0  0  0  0  0  0  0  0  0  # atno 27202 bound_to 6563
  221.7915   40.5908   18.8853 LP  0  0  0  0  0  0  0  0  0  0  0  0  # atno 27203 bound_to 6566
  220.9170   39.8073   20.1587 LP  0  0  0  0  0  0  0  0  0  0  0  0  # atno 27204 bound_to 6566
  219.5954   41.4958   19.9839 LP  0  0  0  0  0  0  0  0  0  0  0  0  # atno 27205 bound_to 6647
  227.5881   42.4617   17.3574 LP  0  0  0  0  0  0  0  0  0  0  0  0  # atno 27206 bound_to 7882
  228.8778   43.3976   18.0362 LP  0  0  0  0  0  0  0  0  0  0  0  0  # atno 27207 bound_to 7882
  230.2891   38.8176   14.6630 LP  0  0  0  0  0  0  0  0  0  0  0  0  # atno 27208 bound_to 7932
  228.9164   38.7717   13.6077 LP  0  0  0  0  0  0  0  0  0  0  0  0  # atno 27209 bound_to 7932
  227.4943   40.5025   16.0676 LP  0  0  0  0  0  0  0  0  0  0  0  0  # atno 27210 bound_to 8015
  224.6885   40.9719   15.1458 LP  0  0  0  0  0  0  0  0  0  0  0  0  # atno 27211 bound_to 8018
  224.7769   41.8554   13.6586 LP  0  0  0  0  0  0  0  0  0  0  0  0  # atno 27212 bound_to 8018
  225.9530   40.2935   13.1334 LP  0  0  0  0  0  0  0  0  0  0  0  0  # atno 27213 bound_to 8093
  222.1861   38.0405   11.5429 LP  0  0  0  0  0  0  0  0  0  0  0  0  # atno 27214 bound_to 8096
  223.8363   37.8970   12.0492 LP  0  0  0  0  0  0  0  0  0  0  0  0  # atno 27215 bound_to 8096
  222.6392   40.1344   11.3610 LP  0  0  0  0  0  0  0  0  0  0  0  0  # atno 27216 bound_to 8157
  218.8643   41.7545   10.4907 LP  0  0  0  0  0  0  0  0  0  0  0  0  # atno 27217 bound_to 8160
  219.6707   42.1896   11.9605 LP  0  0  0  0  0  0  0  0  0  0  0  0  # atno 27218 bound_to 8160
  220.0625   39.9726   10.7663 LP  0  0  0  0  0  0  0  0  0  0  0  0  # atno 27219 bound_to 8229
  228.3224   41.1971    7.9702 LP  0  0  0  0  0  0  0  0  0  0  0  0  # atno 27220 bound_to 9530
  226.9073   41.6674    8.6358 LP  0  0  0  0  0  0  0  0  0  0  0  0  # atno 27221 bound_to 9530
  227.0177   38.1461    9.9800 LP  0  0  0  0  0  0  0  0  0  0  0  0  # atno 27222 bound_to 10090
  227.0217   38.1932   11.7114 LP  0  0  0  0  0  0  0  0  0  0  0  0  # atno 27223 bound_to 10090
  219.3059   37.0684   10.8496 LP  0  0  0  0  0  0  0  0  0  0  0  0  # atno 27224 bound_to 10178
  220.9935   37.2569   11.1909 LP  0  0  0  0  0  0  0  0  0  0  0  0  # atno 27225 bound_to 10178
  216.6662   41.0031   10.8252 LP  0  0  0  0  0  0  0  0  0  0  0  0  # atno 27226 bound_to 8303
  223.4126   35.8688   12.1245 LP  0  0  0  0  0  0  0  0  0  0  0  0  # atno 27227 bound_to 10175
  228.8809   40.6123   17.7068 LP  0  0  0  0  0  0  0  0  0  0  0  0  # atno 27228 bound_to 7929
  230.8127   37.5916   16.5680 LP  0  0  0  0  0  0  0  0  0  0  0  0  # atno 27229 bound_to 7724
  230.6390   38.9702   17.6020 LP  0  0  0  0  0  0  0  0  0  0  0  0  # atno 27230 bound_to 7724
  227.2890   39.1811   19.5328 LP  0  0  0  0  0  0  0  0  0  0  0  0  # atno 27231 bound_to 7802
  227.6666   37.8862   18.4463 LP  0  0  0  0  0  0  0  0  0  0  0  0  # atno 27232 bound_to 7802
  229.3316   38.9417   20.2417 LP  0  0  0  0  0  0  0  0  0  0  0  0  # atno 27233 bound_to 7879
  231.2222   41.7646   19.3393 LP  0  0  0  0  0  0  0  0  0  0  0  0  # atno 27234 bound_to 7884
  231.5708   42.2793   20.8494 LP  0  0  0  0  0  0  0  0  0  0  0  0  # atno 27235 bound_to 7884

> <Gold.Score>
     Fitness  S(hb_ext) S(vdw_ext)  S(hb_int)    S(int)      intcor
     18.80       6.00      10.37       0.00      -1.46      -0.76

> <Gold.Goldscore.Fitness>
18.7956

> <Gold.Goldscore.Internal.Vdw>
-1.8389

> <Gold.Goldscore.Internal.Torsion>
-0.3902

> <Gold.Goldscore.External.Vdw>
10.3707

> <Gold.Goldscore.Internal.HBond>
0.0000

> <Gold.Goldscore.External.HBond>
6.0000

> <Gold.Goldscore.Internal.Correction>
-0.7650

> <Gold.Goldscore.Hbonds>
donor molecule, donor type, donor heavy atom, donor atom, acceptor molecule, acceptor atom, score
      L1  H    10    23       P1  8101  1.00

> <Gold.Goldscore.Internal.Vdw.Weighted>
-1.8389

> <Gold.Goldscore.Internal.Torsion.Weighted>
-0.3902

> <Gold.Goldscore.External.Vdw.Weighted>
14.2597

> <Gold.Goldscore.Internal.HBond.Weighted>
0.0000

> <Gold.Goldscore.External.HBond.Weighted>
6.0000

> <Gold.Goldscore.Internal.Correction.Weighted>
-0.7650

> <Gold.Rescore>
     Score     S(PLP)   S(hbond)     S(cho)   S(metal)  DE(clash)   DE(tors)     intcor
     15.50     -13.64       1.09       0.00       0.00       1.36       0.02       ----

> <Gold.PLP.Fitness>
15.4955

> <Gold.PLP.PLP>
-13.6392

> <Gold.PLP.part.hbond>
-2.0000

> <Gold.PLP.part.metal>
0.0000

> <Gold.PLP.part.buried>
-3.9772

> <Gold.PLP.part.nonpolar>
-7.7222

> <Gold.PLP.part.repulsive>
0.2457

> <Gold.PLP.ligand.clash>
1.3607

> <Gold.PLP.ligand.torsion>
0.0225

> <Gold.PLP.Chemscore.Hbond>
1.0874

> <Gold.PLP.Chemscore.CHOScore>
0.0000

> <Gold.PLP.Chemscore.Metal>
0.0000

> <Gold.Chemscore.Hbonds>
donor molecule, donor type, donor heavy atom, donor atom, acceptor molecule, acceptor atom, score
      L1  H    10    23       P1  8101  0.91
      P1  H  9530  9566       L1    11  0.19

> <Gold.PLP.Chemscore.Internal.Correction>
   9.000000E+99

