#       Name:                CT1002167954
#       Creating user name   hitesit
#       Creation time:       Sun Apr 16 23:03:07 2023


#       File generated by GOLD software.
#

@<TRIPOS>MOLECULE
CT1002167954|ligand_prepared|mol2|1|dock6
    29    30     1
SMALL
NO_CHARGES


@<TRIPOS>ATOM
      1 C1         206.7988  41.6292  13.7195 C.3            1 RES1               0.0000
      2 C2         208.0752  41.9533  12.9166 C.ar           1 RES1               0.0000
      3 C3         205.8039  41.0407  12.7234 C.2            1 RES1               0.0000
      4 C4         207.2213  40.6634  14.8210 C.2            1 RES1               0.0000
      5 C5         206.1514  42.8638  14.3890 C.3            1 RES1               0.0000
      6 C6         208.9620  42.9300  13.3596 C.ar           1 RES1               0.0000
      7 C7         208.3801  41.2833  11.7348 C.ar           1 RES1               0.0000
      8 N8         205.5737  39.6976  12.7789 N.am           1 RES1               0.0000
      9 O9         205.2596  41.7380  11.8762 O.2            1 RES1               0.0000
     10 N10        206.7251  39.3867  14.7808 N.am           1 RES1               0.0000
     11 O11        207.9926  40.9916  15.7141 O.2            1 RES1               0.0000
     12 C12        204.7482  42.6098  14.9169 C.3            1 RES1               0.0000
     13 C13        210.1136  43.2243  12.6485 C.ar           1 RES1               0.0000
     14 C14        209.5321  41.5794  11.0250 C.ar           1 RES1               0.0000
     15 C15        205.9448  38.8512  13.7926 C.2            1 RES1               0.0000
     16 C16        210.3996  42.5490  11.4811 C.ar           1 RES1               0.0000
     17 O17        205.5829  37.6781  13.7989 O.2            1 RES1               0.0000
     18 H18        206.7883  43.1888  15.2209 H              1 RES1               0.0000
     19 H19        206.1111  43.6811  13.6584 H              1 RES1               0.0000
     20 H20        208.7524  43.4736  14.2748 H              1 RES1               0.0000
     21 H21        207.7116  40.5174  11.3564 H              1 RES1               0.0000
     22 H22        205.0800  39.2844  11.9942 H              1 RES1               0.0000
     23 H23        206.9590  38.7794  15.5597 H              1 RES1               0.0000
     24 H24        204.3406  43.5077  15.3765 H              1 RES1               0.0000
     25 H25        204.0816  42.3088  14.1114 H              1 RES1               0.0000
     26 H26        204.7547  41.8194  15.6647 H              1 RES1               0.0000
     27 H27        210.7923  43.9892  13.0110 H              1 RES1               0.0000
     28 H28        209.7529  41.0458  10.1065 H              1 RES1               0.0000
     29 H29        211.3019  42.7795  10.9244 H              1 RES1               0.0000
@<TRIPOS>BOND
    1    1    2 1     
    2    1    3 1     
    3    1    4 1     
    4    1    5 1     
    5    2    6 ar    
    6    2    7 ar    
    7    3    8 1     
    8    3    9 2     
    9    4   10 1     
   10    4   11 2     
   11    5   12 1     
   12    5   18 1     
   13    5   19 1     
   14    6   13 ar    
   15    6   20 1     
   16    7   14 ar    
   17    7   21 1     
   18    8   15 1     
   19    8   22 1     
   20   10   15 1     
   21   10   23 1     
   22   12   24 1     
   23   12   25 1     
   24   12   26 1     
   25   13   16 ar    
   26   13   27 1     
   27   14   16 ar    
   28   14   28 1     
   29   15   17 2     
   30   16   29 1     
@<TRIPOS>SUBSTRUCTURE
      1 RES1           1
@<TRIPOS>SET
DONOR_HYDROGENS      STATIC     ATOMS    <user>   **** ""
2 22 23
ATOM$RED        STATIC     ATOMS    COLORGROUP SYSTEM
2 22 23
@<TRIPOS>COMMENT
> <Gold.Version>
2022.3.0

> <Gold.Id.Protein>
unknown|4v3u_clean|pdb

> <Gold.Protein.RotatedTorsions>
[ 8319 8303 8304 8305 ] final   85.59 input  100.38 | X-H torsion
[ 8355 8345 8346 8347 ] final -113.89 input   76.03 | X-H torsion
[ 8419 8397 8398 8399 ] final -177.17 input  108.00 | X-H torsion
[ 8503 8487 8488 8489 ] final  -12.44 input   86.22 | X-H torsion
[ 9071 9050 9049 9047 ] final -134.40 input   59.99 | X-H torsion
[ 8251 8229 8230 8231 ] final  -43.94 input   84.12 | X-H torsion
[ 8543 8531 8532 8533 ] final  168.25 input  114.02 | X-H torsion
[ 10323 10307 10308 10309 ] final  -11.24 input   62.28 | X-H torsion
[ 27205 8306 8305 8304 ] final  128.60 input   -0.00 | X-H torsion
[ 27220 8348 8347 8346 ] final   74.06 input    0.00 | X-H torsion
[ 27222 8400 8399 8398 ] final  -12.24 input    0.00 | X-H torsion
[ 27224 8160 8159 8158 ] final -128.39 input    0.00 | X-H torsion
[ 27226 8232 8231 8230 ] final -130.09 input    0.00 | X-H torsion
[ 27230 10310 10309 10308 ] final  -12.78 input   -0.00 | X-H torsion

> <Gold.Protein.ActiveResidues>
 ASP403  LEU406  ILE407  GLN430  VAL431  PHE432  ASP433  ALA434  ARG435  ASP436 
 CYS437  TYR446  ASN449  THR465  ILE466 

> <Gold.Protein.RotatedAtoms>
  219.1967   39.6365   11.6659 H   0  0  0  0  0  0  0  0  0  0  0  0  # atno 8251 bound_to 8229
  216.3171   41.0662   10.1729 H   0  0  0  0  0  0  0  0  0  0  0  0  # atno 8319 bound_to 8303
  213.8148   39.2156   10.1446 H   0  0  0  0  0  0  0  0  0  0  0  0  # atno 8355 bound_to 8345
  211.5836   37.9891   11.3397 H   0  0  0  0  0  0  0  0  0  0  0  0  # atno 8419 bound_to 8397
  208.7289   38.0737    9.4753 H   0  0  0  0  0  0  0  0  0  0  0  0  # atno 8503 bound_to 8487
  208.6658   37.7950    7.6241 H   0  0  0  0  0  0  0  0  0  0  0  0  # atno 8543 bound_to 8531
  210.9595   39.3915    6.7211 H   0  0  0  0  0  0  0  0  0  0  0  0  # atno 9071 bound_to 9050
  215.7877   35.4087   10.6560 H   0  0  0  0  0  0  0  0  0  0  0  0  # atno 10323 bound_to 10307
  216.7711   39.4560   10.6928 LP  0  0  0  0  0  0  0  0  0  0  0  0  # atno 27204 bound_to 8303
  213.2903   40.1268    8.4382 LP  0  0  0  0  0  0  0  0  0  0  0  0  # atno 27205 bound_to 8306
  212.8527   41.1954    9.7293 LP  0  0  0  0  0  0  0  0  0  0  0  0  # atno 27206 bound_to 8306
  213.7638   37.7138   11.0315 LP  0  0  0  0  0  0  0  0  0  0  0  0  # atno 27211 bound_to 8345
  210.7670   38.6495    9.9455 LP  0  0  0  0  0  0  0  0  0  0  0  0  # atno 27212 bound_to 8397
  208.7136   39.6903   10.1388 LP  0  0  0  0  0  0  0  0  0  0  0  0  # atno 27213 bound_to 8487
  211.4813   40.2209    5.4225 LP  0  0  0  0  0  0  0  0  0  0  0  0  # atno 27218 bound_to 9050
  212.3480   40.2350    6.8064 LP  0  0  0  0  0  0  0  0  0  0  0  0  # atno 27219 bound_to 9050
  210.6678   35.5949    9.6179 LP  0  0  0  0  0  0  0  0  0  0  0  0  # atno 27220 bound_to 8348
  209.6559   36.7645    8.8382 LP  0  0  0  0  0  0  0  0  0  0  0  0  # atno 27221 bound_to 8348
  206.9833   37.3530   11.8485 LP  0  0  0  0  0  0  0  0  0  0  0  0  # atno 27222 bound_to 8400
  206.2255   38.3720   10.6707 LP  0  0  0  0  0  0  0  0  0  0  0  0  # atno 27223 bound_to 8400
  218.4407   41.7233   11.2936 LP  0  0  0  0  0  0  0  0  0  0  0  0  # atno 27224 bound_to 8160
  220.0942   42.2208   11.1576 LP  0  0  0  0  0  0  0  0  0  0  0  0  # atno 27225 bound_to 8160
  215.7935   37.5953   10.4983 LP  0  0  0  0  0  0  0  0  0  0  0  0  # atno 27226 bound_to 8232
  217.3258   37.4949   11.2994 LP  0  0  0  0  0  0  0  0  0  0  0  0  # atno 27227 bound_to 8232
  220.1509   38.8660   10.4222 LP  0  0  0  0  0  0  0  0  0  0  0  0  # atno 27228 bound_to 8229
  207.0068   37.5165    8.1183 LP  0  0  0  0  0  0  0  0  0  0  0  0  # atno 27229 bound_to 8531
  213.6576   36.8771   12.1622 LP  0  0  0  0  0  0  0  0  0  0  0  0  # atno 27230 bound_to 10310
  212.3477   36.0716   11.3651 LP  0  0  0  0  0  0  0  0  0  0  0  0  # atno 27231 bound_to 10310

> <Gold.Score>
     Fitness  S(hb_ext) S(vdw_ext)  S(hb_int)    S(int)      intcor
     32.26       0.00      24.12       0.00      -0.91      -0.76

> <Gold.Goldscore.Fitness>
32.2613

> <Gold.Goldscore.Internal.Vdw>
-1.0463

> <Gold.Goldscore.Internal.Torsion>
-0.6246

> <Gold.Goldscore.External.Vdw>
24.1216

> <Gold.Goldscore.Internal.HBond>
0.0000

> <Gold.Goldscore.External.HBond>
0.0000

> <Gold.Goldscore.Internal.Correction>
-0.7650

> <Gold.Goldscore.Internal.Vdw.Weighted>
-1.0463

> <Gold.Goldscore.Internal.Torsion.Weighted>
-0.6246

> <Gold.Goldscore.External.Vdw.Weighted>
33.1673

> <Gold.Goldscore.Internal.HBond.Weighted>
0.0000

> <Gold.Goldscore.External.HBond.Weighted>
0.0000

> <Gold.Goldscore.Internal.Correction.Weighted>
-0.7650

> <Gold.Rescore>
     Score     S(PLP)   S(hbond)     S(cho)   S(metal)  DE(clash)   DE(tors)     intcor
     26.46     -26.53       0.51       0.00       0.00       0.02       0.79       ----

> <Gold.PLP.Fitness>
26.4647

> <Gold.PLP.PLP>
-26.5304

> <Gold.PLP.part.hbond>
-2.8659

> <Gold.PLP.part.metal>
0.0000

> <Gold.PLP.part.buried>
-4.0802

> <Gold.PLP.part.nonpolar>
-20.5006

> <Gold.PLP.part.repulsive>
0.5754

> <Gold.PLP.ligand.clash>
0.0202

> <Gold.PLP.ligand.torsion>
0.7907

> <Gold.PLP.Chemscore.Hbond>
0.5120

> <Gold.PLP.Chemscore.CHOScore>
0.0000

> <Gold.PLP.Chemscore.Metal>
0.0000

> <Gold.PLP.Chemscore.Internal.Correction>
   9.000000E+99

#       Name:                CT1002167954
#       Creating user name   hitesit
#       Creation time:       Sun Apr 16 23:03:05 2023


#       File generated by GOLD software.
#

@<TRIPOS>MOLECULE
CT1002167954|ligand_prepared|mol2|1|dock2
    29    30     1
SMALL
NO_CHARGES


@<TRIPOS>ATOM
      1 C1         207.1997  42.2274  13.1709 C.3            1 RES1               0.0000
      2 C2         208.4992  42.3031  12.3437 C.ar           1 RES1               0.0000
      3 C3         206.1030  41.7857  12.2063 C.2            1 RES1               0.0000
      4 C4         207.4698  41.2394  14.3003 C.2            1 RES1               0.0000
      5 C5         206.7830  43.5751  13.8045 C.3            1 RES1               0.0000
      6 C6         209.4914  43.2245  12.6654 C.ar           1 RES1               0.0000
      7 C7         208.7211  41.4579  11.2597 C.ar           1 RES1               0.0000
      8 N8         205.6485  40.5041  12.3104 N.am           1 RES1               0.0000
      9 O9         205.6714  42.5382  11.3416 O.2            1 RES1               0.0000
     10 N10        206.7630  40.0655  14.3093 N.am           1 RES1               0.0000
     11 O11        208.3003  41.4597  15.1733 O.2            1 RES1               0.0000
     12 C12        205.3623  43.5846  14.3464 C.3            1 RES1               0.0000
     13 C13        210.6641  43.2963  11.9320 C.ar           1 RES1               0.0000
     14 C14        209.8945  41.5316  10.5275 C.ar           1 RES1               0.0000
     15 C15        205.8868  39.6396  13.3485 C.2            1 RES1               0.0000
     16 C16        210.8666  42.4498  10.8629 C.ar           1 RES1               0.0000
     17 O17        205.3307  38.5463  13.3990 O.2            1 RES1               0.0000
     18 H18        207.4747  43.8093  14.6231 H              1 RES1               0.0000
     19 H19        206.8780  44.3649  13.0490 H              1 RES1               0.0000
     20 H20        209.3487  43.9005  13.5019 H              1 RES1               0.0000
     21 H21        207.9697  40.7284  10.9769 H              1 RES1               0.0000
     22 H22        205.0789  40.1562  11.5457 H              1 RES1               0.0000
     23 H23        206.9029  39.4524  15.1061 H              1 RES1               0.0000
     24 H24        205.1211  44.5531  14.7796 H              1 RES1               0.0000
     25 H25        204.6457  43.3801  13.5536 H              1 RES1               0.0000
     26 H26        205.2388  42.8279  15.1183 H              1 RES1               0.0000
     27 H27        211.4254  44.0217  12.1993 H              1 RES1               0.0000
     28 H28        210.0494  40.8638   9.6865 H              1 RES1               0.0000
     29 H29        211.7855  42.5060  10.2888 H              1 RES1               0.0000
@<TRIPOS>BOND
    1    1    2 1     
    2    1    3 1     
    3    1    4 1     
    4    1    5 1     
    5    2    6 ar    
    6    2    7 ar    
    7    3    8 1     
    8    3    9 2     
    9    4   10 1     
   10    4   11 2     
   11    5   12 1     
   12    5   18 1     
   13    5   19 1     
   14    6   13 ar    
   15    6   20 1     
   16    7   14 ar    
   17    7   21 1     
   18    8   15 1     
   19    8   22 1     
   20   10   15 1     
   21   10   23 1     
   22   12   24 1     
   23   12   25 1     
   24   12   26 1     
   25   13   16 ar    
   26   13   27 1     
   27   14   16 ar    
   28   14   28 1     
   29   15   17 2     
   30   16   29 1     
@<TRIPOS>SUBSTRUCTURE
      1 RES1           1
@<TRIPOS>SET
DONOR_HYDROGENS      STATIC     ATOMS    <user>   **** ""
2 22 23
ATOM$RED        STATIC     ATOMS    COLORGROUP SYSTEM
2 22 23
@<TRIPOS>COMMENT
> <Gold.Version>
2022.3.0

> <Gold.Id.Protein>
unknown|4v3u_clean|pdb

> <Gold.Protein.RotatedTorsions>
[ 8319 8303 8304 8305 ] final   58.91 input  100.38 | X-H torsion
[ 8355 8345 8346 8347 ] final -146.26 input   76.03 | X-H torsion
[ 8419 8397 8398 8399 ] final  118.49 input  108.00 | X-H torsion
[ 8503 8487 8488 8489 ] final  -72.79 input   86.22 | X-H torsion
[ 9071 9050 9049 9047 ] final  112.18 input   59.99 | X-H torsion
[ 8251 8229 8230 8231 ] final -131.59 input   84.12 | X-H torsion
[ 8543 8531 8532 8533 ] final -170.40 input  114.02 | X-H torsion
[ 10323 10307 10308 10309 ] final -132.81 input   62.28 | X-H torsion
[ 27205 8306 8305 8304 ] final  178.90 input   -0.00 | X-H torsion
[ 27220 8348 8347 8346 ] final  -45.12 input    0.00 | X-H torsion
[ 27222 8400 8399 8398 ] final -124.16 input    0.00 | X-H torsion
[ 27224 8160 8159 8158 ] final -166.34 input    0.00 | X-H torsion
[ 27226 8232 8231 8230 ] final  144.57 input    0.00 | X-H torsion
[ 27230 10310 10309 10308 ] final  -35.62 input   -0.00 | X-H torsion

> <Gold.Protein.ActiveResidues>
 ASP403  LEU406  ILE407  GLN430  VAL431  PHE432  ASP433  ALA434  ARG435  ASP436 
 CYS437  TYR446  ASN449  THR465  ILE466 

> <Gold.Protein.RotatedAtoms>
  220.0045   40.0444   10.8446 H   0  0  0  0  0  0  0  0  0  0  0  0  # atno 8251 bound_to 8229
  216.1947   40.8273    9.8602 H   0  0  0  0  0  0  0  0  0  0  0  0  # atno 8319 bound_to 8303
  214.1710   38.9349    9.9586 H   0  0  0  0  0  0  0  0  0  0  0  0  # atno 8355 bound_to 8345
  211.3792   38.9008   11.2665 H   0  0  0  0  0  0  0  0  0  0  0  0  # atno 8419 bound_to 8397
  208.2412   38.2564   10.1957 H   0  0  0  0  0  0  0  0  0  0  0  0  # atno 8503 bound_to 8487
  208.5041   37.9880    7.4082 H   0  0  0  0  0  0  0  0  0  0  0  0  # atno 8543 bound_to 8531
  211.3925   40.1596    5.4291 H   0  0  0  0  0  0  0  0  0  0  0  0  # atno 9071 bound_to 9050
  216.9230   34.7142   11.4315 H   0  0  0  0  0  0  0  0  0  0  0  0  # atno 10323 bound_to 10307
  216.8888   39.6858   10.9936 LP  0  0  0  0  0  0  0  0  0  0  0  0  # atno 27204 bound_to 8303
  212.6258   40.0075    8.7314 LP  0  0  0  0  0  0  0  0  0  0  0  0  # atno 27205 bound_to 8306
  213.5172   41.3147    9.4360 LP  0  0  0  0  0  0  0  0  0  0  0  0  # atno 27206 bound_to 8306
  213.4131   37.9902   11.2147 LP  0  0  0  0  0  0  0  0  0  0  0  0  # atno 27211 bound_to 8345
  210.9679   37.7530   10.0175 LP  0  0  0  0  0  0  0  0  0  0  0  0  # atno 27212 bound_to 8397
  209.1896   39.5120    9.4356 LP  0  0  0  0  0  0  0  0  0  0  0  0  # atno 27213 bound_to 8487
  212.3779   40.2881    6.7171 LP  0  0  0  0  0  0  0  0  0  0  0  0  # atno 27218 bound_to 9050
  211.0150   39.3938    6.8138 LP  0  0  0  0  0  0  0  0  0  0  0  0  # atno 27219 bound_to 9050
  210.3547   36.4355    8.4235 LP  0  0  0  0  0  0  0  0  0  0  0  0  # atno 27220 bound_to 8348
  209.9690   35.9239   10.0326 LP  0  0  0  0  0  0  0  0  0  0  0  0  # atno 27221 bound_to 8348
  206.4560   37.4429   10.5167 LP  0  0  0  0  0  0  0  0  0  0  0  0  # atno 27222 bound_to 8400
  206.7528   38.2821   12.0025 LP  0  0  0  0  0  0  0  0  0  0  0  0  # atno 27223 bound_to 8400
  218.5941   41.7032   10.7520 LP  0  0  0  0  0  0  0  0  0  0  0  0  # atno 27224 bound_to 8160
  219.9409   42.2409   11.6992 LP  0  0  0  0  0  0  0  0  0  0  0  0  # atno 27225 bound_to 8160
  216.1360   37.8399   11.5942 LP  0  0  0  0  0  0  0  0  0  0  0  0  # atno 27226 bound_to 8232
  216.9834   37.2503   10.2035 LP  0  0  0  0  0  0  0  0  0  0  0  0  # atno 27227 bound_to 8232
  219.3598   38.4666   11.2265 LP  0  0  0  0  0  0  0  0  0  0  0  0  # atno 27228 bound_to 8229
  207.1617   37.3316    8.3252 LP  0  0  0  0  0  0  0  0  0  0  0  0  # atno 27229 bound_to 8531
  213.4362   36.8355   12.4207 LP  0  0  0  0  0  0  0  0  0  0  0  0  # atno 27230 bound_to 10310
  212.5691   36.1133   11.1067 LP  0  0  0  0  0  0  0  0  0  0  0  0  # atno 27231 bound_to 10310

> <Gold.Score>
     Fitness  S(hb_ext) S(vdw_ext)  S(hb_int)    S(int)      intcor
     30.34       0.00      22.58       0.00      -0.70      -0.79

> <Gold.Goldscore.Fitness>
30.3426

> <Gold.Goldscore.Internal.Vdw>
-0.8513

> <Gold.Goldscore.Internal.Torsion>
-0.6420

> <Gold.Goldscore.External.Vdw>
22.5780

> <Gold.Goldscore.Internal.HBond>
0.0000

> <Gold.Goldscore.External.HBond>
0.0000

> <Gold.Goldscore.Internal.Correction>
-0.7912

> <Gold.Goldscore.Internal.Vdw.Weighted>
-0.8513

> <Gold.Goldscore.Internal.Torsion.Weighted>
-0.6420

> <Gold.Goldscore.External.Vdw.Weighted>
31.0447

> <Gold.Goldscore.Internal.HBond.Weighted>
0.0000

> <Gold.Goldscore.External.HBond.Weighted>
0.0000

> <Gold.Goldscore.Internal.Correction.Weighted>
-0.7912

> <Gold.Rescore>
     Score     S(PLP)   S(hbond)     S(cho)   S(metal)  DE(clash)   DE(tors)     intcor
     27.38     -26.30       0.47       0.00       0.00       0.00       0.16       ----

> <Gold.PLP.Fitness>
27.3762

> <Gold.PLP.PLP>
-26.3030

> <Gold.PLP.part.hbond>
-1.5341

> <Gold.PLP.part.metal>
0.0000

> <Gold.PLP.part.buried>
-5.4952

> <Gold.PLP.part.nonpolar>
-19.7563

> <Gold.PLP.part.repulsive>
0.8541

> <Gold.PLP.ligand.clash>
0.0000

> <Gold.PLP.ligand.torsion>
0.1646

> <Gold.PLP.Chemscore.Hbond>
0.4675

> <Gold.PLP.Chemscore.CHOScore>
0.0000

> <Gold.PLP.Chemscore.Metal>
0.0000

> <Gold.PLP.Chemscore.Internal.Correction>
   9.000000E+99

#       Name:                CT1002167954
#       Creating user name   hitesit
#       Creation time:       Sun Apr 16 23:03:07 2023


#       File generated by GOLD software.
#

@<TRIPOS>MOLECULE
CT1002167954|ligand_prepared|mol2|1|dock7
    29    30     1
SMALL
NO_CHARGES


@<TRIPOS>ATOM
      1 C1         207.3091  42.5613  13.3299 C.3            1 RES1               0.0000
      2 C2         208.5459  42.4670  12.4133 C.ar           1 RES1               0.0000
      3 C3         207.4356  41.4233  14.3386 C.2            1 RES1               0.0000
      4 C4         207.3452  43.9522  13.9534 C.2            1 RES1               0.0000
      5 C5         205.9641  42.4077  12.5822 C.3            1 RES1               0.0000
      6 C6         208.6183  41.4965  11.4185 C.ar           1 RES1               0.0000
      7 C7         209.6192  43.3436  12.5484 C.ar           1 RES1               0.0000
      8 N8         207.7822  41.7479  15.6170 N.am           1 RES1               0.0000
      9 O9         207.2724  40.2553  14.0079 O.2            1 RES1               0.0000
     10 N10        207.5352  44.0441  15.3074 N.am           1 RES1               0.0000
     11 O11        207.2275  44.9699  13.2821 O.2            1 RES1               0.0000
     12 C12        204.7449  42.6565  13.4562 C.3            1 RES1               0.0000
     13 C13        209.7223  41.4073  10.5869 C.ar           1 RES1               0.0000
     14 C14        210.7224  43.2525  11.7159 C.ar           1 RES1               0.0000
     15 C15        207.7860  43.0063  16.1630 C.2            1 RES1               0.0000
     16 C16        210.7748  42.2854  10.7347 C.ar           1 RES1               0.0000
     17 O17        208.0009  43.1737  17.3601 O.2            1 RES1               0.0000
     18 H18        205.9453  43.1116  11.7411 H              1 RES1               0.0000
     19 H19        205.9025  41.3924  12.1712 H              1 RES1               0.0000
     20 H20        207.8007  40.7952  11.2888 H              1 RES1               0.0000
     21 H21        209.6002  44.1117  13.3141 H              1 RES1               0.0000
     22 H22        208.0648  40.9843  16.2231 H              1 RES1               0.0000
     23 H23        207.4848  44.9723  15.7152 H              1 RES1               0.0000
     24 H24        203.8282  42.5358  12.8828 H              1 RES1               0.0000
     25 H25        204.7181  41.9570  14.2891 H              1 RES1               0.0000
     26 H26        204.7606  43.6660  13.8617 H              1 RES1               0.0000
     27 H27        209.7592  40.6436   9.8172 H              1 RES1               0.0000
     28 H28        211.5487  43.9453  11.8362 H              1 RES1               0.0000
     29 H29        211.6393  42.2156  10.0829 H              1 RES1               0.0000
@<TRIPOS>BOND
    1    1    2 1     
    2    1    3 1     
    3    1    4 1     
    4    1    5 1     
    5    2    6 ar    
    6    2    7 ar    
    7    3    8 1     
    8    3    9 2     
    9    4   10 1     
   10    4   11 2     
   11    5   12 1     
   12    5   18 1     
   13    5   19 1     
   14    6   13 ar    
   15    6   20 1     
   16    7   14 ar    
   17    7   21 1     
   18    8   15 1     
   19    8   22 1     
   20   10   15 1     
   21   10   23 1     
   22   12   24 1     
   23   12   25 1     
   24   12   26 1     
   25   13   16 ar    
   26   13   27 1     
   27   14   16 ar    
   28   14   28 1     
   29   15   17 2     
   30   16   29 1     
@<TRIPOS>SUBSTRUCTURE
      1 RES1           1
@<TRIPOS>SET
DONOR_HYDROGENS      STATIC     ATOMS    <user>   **** ""
2 22 23
ATOM$RED        STATIC     ATOMS    COLORGROUP SYSTEM
2 22 23
@<TRIPOS>COMMENT
> <Gold.Version>
2022.3.0

> <Gold.Id.Protein>
unknown|4v3u_clean|pdb

> <Gold.Protein.RotatedTorsions>
[ 8319 8303 8304 8305 ] final  178.69 input  100.38 | X-H torsion
[ 8355 8345 8346 8347 ] final -127.36 input   76.03 | X-H torsion
[ 8419 8397 8398 8399 ] final  114.16 input  108.00 | X-H torsion
[ 8503 8487 8488 8489 ] final -117.95 input   86.22 | X-H torsion
[ 9071 9050 9049 9047 ] final -119.88 input   59.99 | X-H torsion
[ 8251 8229 8230 8231 ] final  -64.38 input   84.12 | X-H torsion
[ 8543 8531 8532 8533 ] final -121.15 input  114.02 | X-H torsion
[ 10323 10307 10308 10309 ] final  178.62 input   62.28 | X-H torsion
[ 27205 8306 8305 8304 ] final   37.14 input   -0.00 | X-H torsion
[ 27220 8348 8347 8346 ] final -104.96 input    0.00 | X-H torsion
[ 27222 8400 8399 8398 ] final  163.95 input    0.00 | X-H torsion
[ 27224 8160 8159 8158 ] final    9.23 input    0.00 | X-H torsion
[ 27226 8232 8231 8230 ] final  -87.90 input    0.00 | X-H torsion
[ 27230 10310 10309 10308 ] final   91.17 input   -0.00 | X-H torsion

> <Gold.Protein.ActiveResidues>
 ASP403  LEU406  ILE407  GLN430  VAL431  PHE432  ASP433  ALA434  ARG435  ASP436 
 CYS437  TYR446  ASN449  THR465  ILE466 

> <Gold.Protein.RotatedAtoms>
  219.3480   39.8849   11.5501 H   0  0  0  0  0  0  0  0  0  0  0  0  # atno 8251 bound_to 8229
  216.8702   40.5361   11.2185 H   0  0  0  0  0  0  0  0  0  0  0  0  # atno 8319 bound_to 8303
  213.9707   39.1238   10.0457 H   0  0  0  0  0  0  0  0  0  0  0  0  # atno 8355 bound_to 8345
  211.3518   38.9480   11.2287 H   0  0  0  0  0  0  0  0  0  0  0  0  # atno 8419 bound_to 8397
  208.1805   38.8554   10.5099 H   0  0  0  0  0  0  0  0  0  0  0  0  # atno 8503 bound_to 8487
  207.8313   38.2184    7.1824 H   0  0  0  0  0  0  0  0  0  0  0  0  # atno 8543 bound_to 8531
  211.1043   39.4113    6.9070 H   0  0  0  0  0  0  0  0  0  0  0  0  # atno 9071 bound_to 9050
  217.0940   35.2979   11.8277 H   0  0  0  0  0  0  0  0  0  0  0  0  # atno 10323 bound_to 10307
  216.2390   39.9660    9.6869 LP  0  0  0  0  0  0  0  0  0  0  0  0  # atno 27204 bound_to 8303
  213.8266   41.0806    9.0222 LP  0  0  0  0  0  0  0  0  0  0  0  0  # atno 27205 bound_to 8306
  212.3163   40.2417    9.1453 LP  0  0  0  0  0  0  0  0  0  0  0  0  # atno 27206 bound_to 8306
  213.6103   37.8042   11.1289 LP  0  0  0  0  0  0  0  0  0  0  0  0  # atno 27211 bound_to 8345
  210.9949   37.7066   10.0547 LP  0  0  0  0  0  0  0  0  0  0  0  0  # atno 27212 bound_to 8397
  209.2488   38.9274    9.1289 LP  0  0  0  0  0  0  0  0  0  0  0  0  # atno 27213 bound_to 8487
  211.2831   40.0898    5.4393 LP  0  0  0  0  0  0  0  0  0  0  0  0  # atno 27218 bound_to 9050
  212.4003   40.3462    6.6023 LP  0  0  0  0  0  0  0  0  0  0  0  0  # atno 27219 bound_to 9050
  209.6645   36.7639    8.8263 LP  0  0  0  0  0  0  0  0  0  0  0  0  # atno 27220 bound_to 8348
  210.6592   35.5956    9.6298 LP  0  0  0  0  0  0  0  0  0  0  0  0  # atno 27221 bound_to 8348
  206.2268   38.4145   10.7094 LP  0  0  0  0  0  0  0  0  0  0  0  0  # atno 27222 bound_to 8400
  206.9820   37.3105   11.8098 LP  0  0  0  0  0  0  0  0  0  0  0  0  # atno 27223 bound_to 8400
  219.9017   42.2355   11.7532 LP  0  0  0  0  0  0  0  0  0  0  0  0  # atno 27224 bound_to 8160
  218.6333   41.7086   10.6980 LP  0  0  0  0  0  0  0  0  0  0  0  0  # atno 27225 bound_to 8160
  216.2355   37.3864   10.1116 LP  0  0  0  0  0  0  0  0  0  0  0  0  # atno 27226 bound_to 8232
  216.8838   37.7038   11.6861 LP  0  0  0  0  0  0  0  0  0  0  0  0  # atno 27227 bound_to 8232
  220.0028   38.6228   10.5356 LP  0  0  0  0  0  0  0  0  0  0  0  0  # atno 27228 bound_to 8229
  207.8061   37.1109    8.5414 LP  0  0  0  0  0  0  0  0  0  0  0  0  # atno 27229 bound_to 8531
  213.2701   36.4025   10.9431 LP  0  0  0  0  0  0  0  0  0  0  0  0  # atno 27230 bound_to 10310
  212.7352   36.5462   12.5842 LP  0  0  0  0  0  0  0  0  0  0  0  0  # atno 27231 bound_to 10310

> <Gold.Score>
     Fitness  S(hb_ext) S(vdw_ext)  S(hb_int)    S(int)      intcor
     28.80       0.00      21.84       0.00      -1.23      -0.76

> <Gold.Goldscore.Fitness>
28.8048

> <Gold.Goldscore.Internal.Vdw>
-1.5596

> <Gold.Goldscore.Internal.Torsion>
-0.4318

> <Gold.Goldscore.External.Vdw>
21.8410

> <Gold.Goldscore.Internal.HBond>
0.0000

> <Gold.Goldscore.External.HBond>
0.0000

> <Gold.Goldscore.Internal.Correction>
-0.7650

> <Gold.Goldscore.Internal.Vdw.Weighted>
-1.5596

> <Gold.Goldscore.Internal.Torsion.Weighted>
-0.4318

> <Gold.Goldscore.External.Vdw.Weighted>
30.0313

> <Gold.Goldscore.Internal.HBond.Weighted>
0.0000

> <Gold.Goldscore.External.HBond.Weighted>
0.0000

> <Gold.Goldscore.Internal.Correction.Weighted>
-0.7650

> <Gold.Rescore>
     Score     S(PLP)   S(hbond)     S(cho)   S(metal)  DE(clash)   DE(tors)     intcor
     19.14     -21.08       0.00       0.00       0.00       0.75       0.60       ----

> <Gold.PLP.Fitness>
19.1388

> <Gold.PLP.PLP>
-21.0849

> <Gold.PLP.part.hbond>
0.0000

> <Gold.PLP.part.metal>
0.0000

> <Gold.PLP.part.buried>
-3.9510

> <Gold.PLP.part.nonpolar>
-17.7132

> <Gold.PLP.part.repulsive>
0.4376

> <Gold.PLP.ligand.clash>
0.7542

> <Gold.PLP.ligand.torsion>
0.5960

> <Gold.PLP.Chemscore.Hbond>
0.0000

> <Gold.PLP.Chemscore.CHOScore>
0.0000

> <Gold.PLP.Chemscore.Metal>
0.0000

> <Gold.PLP.Chemscore.Internal.Correction>
   9.000000E+99

#       Name:                CT1002167954
#       Creating user name   hitesit
#       Creation time:       Sun Apr 16 23:03:06 2023


#       File generated by GOLD software.
#

@<TRIPOS>MOLECULE
CT1002167954|ligand_prepared|mol2|1|dock5
    29    30     1
SMALL
NO_CHARGES


@<TRIPOS>ATOM
      1 C1         205.3281  40.2332  13.3329 C.3            1 RES1               0.0000
      2 C2         206.7074  40.9095  13.1945 C.ar           1 RES1               0.0000
      3 C3         204.3986  40.9527  12.3600 C.2            1 RES1               0.0000
      4 C4         205.5423  38.7580  13.0130 C.2            1 RES1               0.0000
      5 C5         204.7239  40.3313  14.7530 C.3            1 RES1               0.0000
      6 C6         207.4807  41.1787  14.3198 C.ar           1 RES1               0.0000
      7 C7         207.2200  41.2669  11.9503 C.ar           1 RES1               0.0000
      8 N8         204.0460  40.2942  11.2189 N.am           1 RES1               0.0000
      9 O9         204.0127  42.0957  12.5718 O.2            1 RES1               0.0000
     10 N10        204.9425  38.2508  11.8901 N.am           1 RES1               0.0000
     11 O11        206.2386  38.0341  13.7140 O.2            1 RES1               0.0000
     12 C12        203.2677  39.9004  14.8308 C.3            1 RES1               0.0000
     13 C13        208.7228  41.7807  14.2053 C.ar           1 RES1               0.0000
     14 C14        208.4623  41.8690  11.8380 C.ar           1 RES1               0.0000
     15 C15        204.2293  38.9593  10.9619 C.2            1 RES1               0.0000
     16 C16        209.2146  42.1258  12.9645 C.ar           1 RES1               0.0000
     17 O17        203.7666  38.4428   9.9488 O.2            1 RES1               0.0000
     18 H18        205.3144  39.7041  15.4321 H              1 RES1               0.0000
     19 H19        204.8040  41.3689  15.1000 H              1 RES1               0.0000
     20 H20        207.1091  40.9164  15.3048 H              1 RES1               0.0000
     21 H21        206.6452  41.0755  11.0505 H              1 RES1               0.0000
     22 H22        203.6054  40.8453  10.4892 H              1 RES1               0.0000
     23 H23        205.0364  37.2526  11.7315 H              1 RES1               0.0000
     24 H24        202.8932  39.9886  15.8485 H              1 RES1               0.0000
     25 H25        202.6472  40.5198  14.1865 H              1 RES1               0.0000
     26 H26        203.1546  38.8649  14.5167 H              1 RES1               0.0000
     27 H27        209.3103  41.9818  15.0950 H              1 RES1               0.0000
     28 H28        208.8452  42.1396  10.8595 H              1 RES1               0.0000
     29 H29        210.1878  42.5970  12.8750 H              1 RES1               0.0000
@<TRIPOS>BOND
    1    1    2 1     
    2    1    3 1     
    3    1    4 1     
    4    1    5 1     
    5    2    6 ar    
    6    2    7 ar    
    7    3    8 1     
    8    3    9 2     
    9    4   10 1     
   10    4   11 2     
   11    5   12 1     
   12    5   18 1     
   13    5   19 1     
   14    6   13 ar    
   15    6   20 1     
   16    7   14 ar    
   17    7   21 1     
   18    8   15 1     
   19    8   22 1     
   20   10   15 1     
   21   10   23 1     
   22   12   24 1     
   23   12   25 1     
   24   12   26 1     
   25   13   16 ar    
   26   13   27 1     
   27   14   16 ar    
   28   14   28 1     
   29   15   17 2     
   30   16   29 1     
@<TRIPOS>SUBSTRUCTURE
      1 RES1           1
@<TRIPOS>SET
DONOR_HYDROGENS      STATIC     ATOMS    <user>   **** ""
2 22 23
ATOM$RED        STATIC     ATOMS    COLORGROUP SYSTEM
2 22 23
@<TRIPOS>COMMENT
> <Gold.Version>
2022.3.0

> <Gold.Id.Protein>
unknown|4v3u_clean|pdb

> <Gold.Protein.RotatedTorsions>
[ 8319 8303 8304 8305 ] final -133.41 input  100.38 | X-H torsion
[ 8355 8345 8346 8347 ] final -151.03 input   76.03 | X-H torsion
[ 8419 8397 8398 8399 ] final  -42.76 input  108.00 | X-H torsion
[ 8503 8487 8488 8489 ] final   46.06 input   86.22 | X-H torsion
[ 9071 9050 9049 9047 ] final  113.54 input   59.99 | X-H torsion
[ 8251 8229 8230 8231 ] final  159.82 input   84.12 | X-H torsion
[ 8543 8531 8532 8533 ] final   26.09 input  114.02 | X-H torsion
[ 10323 10307 10308 10309 ] final   16.36 input   62.28 | X-H torsion
[ 27205 8306 8305 8304 ] final   74.36 input   -0.00 | X-H torsion
[ 27220 8348 8347 8346 ] final  -95.48 input    0.00 | X-H torsion
[ 27222 8400 8399 8398 ] final -127.24 input    0.00 | X-H torsion
[ 27224 8160 8159 8158 ] final  144.33 input    0.00 | X-H torsion
[ 27226 8232 8231 8230 ] final   40.30 input    0.00 | X-H torsion
[ 27230 10310 10309 10308 ] final -122.74 input   -0.00 | X-H torsion

> <Gold.Protein.ActiveResidues>
 ASP403  LEU406  ILE407  GLN430  VAL431  PHE432  ASP433  ALA434  ARG435  ASP436 
 CYS437  TYR446  ASN449  THR465  ILE466 

> <Gold.Protein.RotatedAtoms>
  220.2583   39.2062   10.3732 H   0  0  0  0  0  0  0  0  0  0  0  0  # atno 8251 bound_to 8229
  216.9081   39.8172   11.1340 H   0  0  0  0  0  0  0  0  0  0  0  0  # atno 8319 bound_to 8303
  214.2158   38.8782    9.9472 H   0  0  0  0  0  0  0  0  0  0  0  0  # atno 8355 bound_to 8345
  210.8647   37.9830    9.8850 H   0  0  0  0  0  0  0  0  0  0  0  0  # atno 8419 bound_to 8397
  209.1969   38.6917    9.0929 H   0  0  0  0  0  0  0  0  0  0  0  0  # atno 8503 bound_to 8487
  207.3222   37.1717    8.4460 H   0  0  0  0  0  0  0  0  0  0  0  0  # atno 8543 bound_to 8531
  211.3739   40.1474    5.4306 H   0  0  0  0  0  0  0  0  0  0  0  0  # atno 9071 bound_to 9050
  215.7754   35.8026   10.8044 H   0  0  0  0  0  0  0  0  0  0  0  0  # atno 10323 bound_to 10307
  216.2026   40.6576    9.7682 LP  0  0  0  0  0  0  0  0  0  0  0  0  # atno 27204 bound_to 8303
  213.8169   40.6783    8.6432 LP  0  0  0  0  0  0  0  0  0  0  0  0  # atno 27205 bound_to 8306
  212.3261   40.6439    9.5243 LP  0  0  0  0  0  0  0  0  0  0  0  0  # atno 27206 bound_to 8306
  213.3690   38.0460   11.2259 LP  0  0  0  0  0  0  0  0  0  0  0  0  # atno 27211 bound_to 8345
  211.4740   38.6555   11.3761 LP  0  0  0  0  0  0  0  0  0  0  0  0  # atno 27212 bound_to 8397
  208.2568   39.0872   10.5119 LP  0  0  0  0  0  0  0  0  0  0  0  0  # atno 27213 bound_to 8487
  212.3828   40.2986    6.6979 LP  0  0  0  0  0  0  0  0  0  0  0  0  # atno 27218 bound_to 9050
  211.0288   39.3956    6.8315 LP  0  0  0  0  0  0  0  0  0  0  0  0  # atno 27219 bound_to 9050
  209.7557   36.7487    8.7169 LP  0  0  0  0  0  0  0  0  0  0  0  0  # atno 27220 bound_to 8348
  210.5681   35.6107    9.7392 LP  0  0  0  0  0  0  0  0  0  0  0  0  # atno 27221 bound_to 8348
  206.4375   37.4821   10.4997 LP  0  0  0  0  0  0  0  0  0  0  0  0  # atno 27222 bound_to 8400
  206.7714   38.2429   12.0195 LP  0  0  0  0  0  0  0  0  0  0  0  0  # atno 27223 bound_to 8400
  219.1935   41.8421   10.3726 LP  0  0  0  0  0  0  0  0  0  0  0  0  # atno 27224 bound_to 8160
  219.3415   42.1020   12.0786 LP  0  0  0  0  0  0  0  0  0  0  0  0  # atno 27225 bound_to 8160
  217.3756   37.4469   11.1719 LP  0  0  0  0  0  0  0  0  0  0  0  0  # atno 27226 bound_to 8232
  215.7437   37.6433   10.6258 LP  0  0  0  0  0  0  0  0  0  0  0  0  # atno 27227 bound_to 8232
  219.1114   39.2874   11.6881 LP  0  0  0  0  0  0  0  0  0  0  0  0  # atno 27228 bound_to 8229
  208.2938   38.1135    7.3311 LP  0  0  0  0  0  0  0  0  0  0  0  0  # atno 27229 bound_to 8531
  212.3672   36.3125   12.3293 LP  0  0  0  0  0  0  0  0  0  0  0  0  # atno 27230 bound_to 10310
  213.6381   36.6363   11.1980 LP  0  0  0  0  0  0  0  0  0  0  0  0  # atno 27231 bound_to 10310

> <Gold.Score>
     Fitness  S(hb_ext) S(vdw_ext)  S(hb_int)    S(int)      intcor
     28.56       0.00      21.22       0.00      -0.62      -0.76

> <Gold.Goldscore.Fitness>
28.5590

> <Gold.Goldscore.Internal.Vdw>
-0.8298

> <Gold.Goldscore.Internal.Torsion>
-0.5556

> <Gold.Goldscore.External.Vdw>
21.2215

> <Gold.Goldscore.Internal.HBond>
0.0000

> <Gold.Goldscore.External.HBond>
0.0000

> <Gold.Goldscore.Internal.Correction>
-0.7650

> <Gold.Goldscore.Internal.Vdw.Weighted>
-0.8298

> <Gold.Goldscore.Internal.Torsion.Weighted>
-0.5556

> <Gold.Goldscore.External.Vdw.Weighted>
29.1796

> <Gold.Goldscore.Internal.HBond.Weighted>
0.0000

> <Gold.Goldscore.External.HBond.Weighted>
0.0000

> <Gold.Goldscore.Internal.Correction.Weighted>
-0.7650

> <Gold.Rescore>
     Score     S(PLP)   S(hbond)     S(cho)   S(metal)  DE(clash)   DE(tors)     intcor
     23.33     -24.94       0.00       0.00       0.00       0.03       0.79       ----

> <Gold.PLP.Fitness>
23.3337

> <Gold.PLP.PLP>
-24.9436

> <Gold.PLP.part.hbond>
-1.0000

> <Gold.PLP.part.metal>
0.0000

> <Gold.PLP.part.buried>
-4.7322

> <Gold.PLP.part.nonpolar>
-20.3682

> <Gold.PLP.part.repulsive>
1.1255

> <Gold.PLP.ligand.clash>
0.0264

> <Gold.PLP.ligand.torsion>
0.7917

> <Gold.PLP.Chemscore.Hbond>
0.0000

> <Gold.PLP.Chemscore.CHOScore>
0.0000

> <Gold.PLP.Chemscore.Metal>
0.0000

> <Gold.PLP.Chemscore.Internal.Correction>
   9.000000E+99

#       Name:                CT1002167954
#       Creating user name   hitesit
#       Creation time:       Sun Apr 16 23:03:08 2023


#       File generated by GOLD software.
#

@<TRIPOS>MOLECULE
CT1002167954|ligand_prepared|mol2|1|dock9
    29    30     1
SMALL
NO_CHARGES


@<TRIPOS>ATOM
      1 C1         206.7031  41.6162  13.7116 C.3            1 RES1               0.0000
      2 C2         207.9514  41.9302  12.8620 C.ar           1 RES1               0.0000
      3 C3         207.2045  41.3501  15.1280 C.2            1 RES1               0.0000
      4 C4         205.7897  42.8313  13.5931 C.2            1 RES1               0.0000
      5 C5         205.9143  40.3767  13.2289 C.3            1 RES1               0.0000
      6 C6         208.0792  41.4184  11.5742 C.ar           1 RES1               0.0000
      7 C7         208.9805  42.7308  13.3506 C.ar           1 RES1               0.0000
      8 N8         206.9825  42.3127  16.0681 N.am           1 RES1               0.0000
      9 O9         207.8203  40.3286  15.4064 O.2            1 RES1               0.0000
     10 N10        205.5583  43.5732  14.7217 N.am           1 RES1               0.0000
     11 O11        205.2817  43.1625  12.5289 O.2            1 RES1               0.0000
     12 C12        204.8463  39.9109  14.2058 C.3            1 RES1               0.0000
     13 C13        209.1939  41.6992  10.8016 C.ar           1 RES1               0.0000
     14 C14        210.0945  43.0101  12.5763 C.ar           1 RES1               0.0000
     15 C15        206.1378  43.3868  15.9471 C.2            1 RES1               0.0000
     16 C16        210.2019  42.4955  11.3019 C.ar           1 RES1               0.0000
     17 O17        205.9212  44.1293  16.9005 O.2            1 RES1               0.0000
     18 H18        205.4368  40.6135  12.2701 H              1 RES1               0.0000
     19 H19        206.6195  39.5539  13.0580 H              1 RES1               0.0000
     20 H20        207.2971  40.7878  11.1645 H              1 RES1               0.0000
     21 H21        208.9179  43.1456  14.3509 H              1 RES1               0.0000
     22 H22        207.4916  42.2261  16.9420 H              1 RES1               0.0000
     23 H23        204.8922  44.3348  14.6409 H              1 RES1               0.0000
     24 H24        204.3232  39.0390  13.8186 H              1 RES1               0.0000
     25 H25        205.2893  39.6429  15.1628 H              1 RES1               0.0000
     26 H26        204.1135  40.6962  14.3795 H              1 RES1               0.0000
     27 H27        209.2743  41.2906   9.7997 H              1 RES1               0.0000
     28 H28        210.8857  43.6368  12.9744 H              1 RES1               0.0000
     29 H29        211.0749  42.7156  10.6963 H              1 RES1               0.0000
@<TRIPOS>BOND
    1    1    2 1     
    2    1    3 1     
    3    1    4 1     
    4    1    5 1     
    5    2    6 ar    
    6    2    7 ar    
    7    3    8 1     
    8    3    9 2     
    9    4   10 1     
   10    4   11 2     
   11    5   12 1     
   12    5   18 1     
   13    5   19 1     
   14    6   13 ar    
   15    6   20 1     
   16    7   14 ar    
   17    7   21 1     
   18    8   15 1     
   19    8   22 1     
   20   10   15 1     
   21   10   23 1     
   22   12   24 1     
   23   12   25 1     
   24   12   26 1     
   25   13   16 ar    
   26   13   27 1     
   27   14   16 ar    
   28   14   28 1     
   29   15   17 2     
   30   16   29 1     
@<TRIPOS>SUBSTRUCTURE
      1 RES1           1
@<TRIPOS>SET
DONOR_HYDROGENS      STATIC     ATOMS    <user>   **** ""
2 22 23
ATOM$RED        STATIC     ATOMS    COLORGROUP SYSTEM
2 22 23
@<TRIPOS>COMMENT
> <Gold.Version>
2022.3.0

> <Gold.Id.Protein>
unknown|4v3u_clean|pdb

> <Gold.Protein.RotatedTorsions>
[ 8319 8303 8304 8305 ] final   81.00 input  100.38 | X-H torsion
[ 8355 8345 8346 8347 ] final   27.70 input   76.03 | X-H torsion
[ 8419 8397 8398 8399 ] final   40.82 input  108.00 | X-H torsion
[ 8503 8487 8488 8489 ] final  -48.88 input   86.22 | X-H torsion
[ 9071 9050 9049 9047 ] final   64.62 input   59.99 | X-H torsion
[ 8251 8229 8230 8231 ] final  -48.19 input   84.12 | X-H torsion
[ 8543 8531 8532 8533 ] final  130.55 input  114.02 | X-H torsion
[ 10323 10307 10308 10309 ] final  141.69 input   62.28 | X-H torsion
[ 27205 8306 8305 8304 ] final -110.72 input   -0.00 | X-H torsion
[ 27220 8348 8347 8346 ] final  -27.46 input    0.00 | X-H torsion
[ 27222 8400 8399 8398 ] final  125.36 input    0.00 | X-H torsion
[ 27224 8160 8159 8158 ] final -109.31 input    0.00 | X-H torsion
[ 27226 8232 8231 8230 ] final   57.42 input    0.00 | X-H torsion
[ 27230 10310 10309 10308 ] final  131.62 input   -0.00 | X-H torsion

> <Gold.Protein.ActiveResidues>
 ASP403  LEU406  ILE407  GLN430  VAL431  PHE432  ASP433  ALA434  ARG435  ASP436 
 CYS437  TYR446  ASN449  THR465  ILE466 

> <Gold.Protein.RotatedAtoms>
  219.2237   39.6933   11.6480 H   0  0  0  0  0  0  0  0  0  0  0  0  # atno 8251 bound_to 8229
  216.2918   41.0366   10.1128 H   0  0  0  0  0  0  0  0  0  0  0  0  # atno 8319 bound_to 8303
  213.3545   38.0573   11.2417 H   0  0  0  0  0  0  0  0  0  0  0  0  # atno 8355 bound_to 8345
  210.8699   39.0786   10.3038 H   0  0  0  0  0  0  0  0  0  0  0  0  # atno 8419 bound_to 8397
  208.3972   38.0759    9.9177 H   0  0  0  0  0  0  0  0  0  0  0  0  # atno 8503 bound_to 8487
  208.6625   37.4202    8.0647 H   0  0  0  0  0  0  0  0  0  0  0  0  # atno 8543 bound_to 8531
  212.0347   40.4685    5.6769 H   0  0  0  0  0  0  0  0  0  0  0  0  # atno 9071 bound_to 9050
  216.9178   35.8259   11.8779 H   0  0  0  0  0  0  0  0  0  0  0  0  # atno 10323 bound_to 10307
  216.7954   39.4845   10.7506 LP  0  0  0  0  0  0  0  0  0  0  0  0  # atno 27204 bound_to 8303
  212.3054   40.5846    9.4803 LP  0  0  0  0  0  0  0  0  0  0  0  0  # atno 27205 bound_to 8306
  213.8376   40.7376    8.6872 LP  0  0  0  0  0  0  0  0  0  0  0  0  # atno 27206 bound_to 8306
  214.2171   38.8544    9.9513 LP  0  0  0  0  0  0  0  0  0  0  0  0  # atno 27211 bound_to 8345
  211.4689   37.5781   10.9643 LP  0  0  0  0  0  0  0  0  0  0  0  0  # atno 27212 bound_to 8397
  209.0373   39.6882    9.7069 LP  0  0  0  0  0  0  0  0  0  0  0  0  # atno 27213 bound_to 8487
  211.9634   39.8498    7.1799 LP  0  0  0  0  0  0  0  0  0  0  0  0  # atno 27218 bound_to 9050
  210.7823   39.5208    6.1013 LP  0  0  0  0  0  0  0  0  0  0  0  0  # atno 27219 bound_to 9050
  210.5542   36.2636    8.4605 LP  0  0  0  0  0  0  0  0  0  0  0  0  # atno 27220 bound_to 8348
  209.7696   36.0959    9.9956 LP  0  0  0  0  0  0  0  0  0  0  0  0  # atno 27221 bound_to 8348
  206.3296   38.6820   11.2048 LP  0  0  0  0  0  0  0  0  0  0  0  0  # atno 27222 bound_to 8400
  206.8792   37.0431   11.3144 LP  0  0  0  0  0  0  0  0  0  0  0  0  # atno 27223 bound_to 8400
  218.4976   41.7756   11.5700 LP  0  0  0  0  0  0  0  0  0  0  0  0  # atno 27224 bound_to 8160
  220.0374   42.1685   10.8812 LP  0  0  0  0  0  0  0  0  0  0  0  0  # atno 27225 bound_to 8160
  217.2718   37.5335   11.3915 LP  0  0  0  0  0  0  0  0  0  0  0  0  # atno 27226 bound_to 8232
  215.8475   37.5567   10.4062 LP  0  0  0  0  0  0  0  0  0  0  0  0  # atno 27227 bound_to 8232
  220.1245   38.8104   10.4397 LP  0  0  0  0  0  0  0  0  0  0  0  0  # atno 27228 bound_to 8229
  207.0099   37.8755    7.6963 LP  0  0  0  0  0  0  0  0  0  0  0  0  # atno 27229 bound_to 8531
  212.7253   36.1621   11.0051 LP  0  0  0  0  0  0  0  0  0  0  0  0  # atno 27230 bound_to 10310
  213.2800   36.7867   12.5223 LP  0  0  0  0  0  0  0  0  0  0  0  0  # atno 27231 bound_to 10310

> <Gold.Score>
     Fitness  S(hb_ext) S(vdw_ext)  S(hb_int)    S(int)      intcor
     28.45       0.00      21.15       0.00      -0.62      -0.76

> <Gold.Goldscore.Fitness>
28.4527

> <Gold.Goldscore.Internal.Vdw>
-0.8275

> <Gold.Goldscore.Internal.Torsion>
-0.5608

> <Gold.Goldscore.External.Vdw>
21.1463

> <Gold.Goldscore.Internal.HBond>
0.0000

> <Gold.Goldscore.External.HBond>
0.0000

> <Gold.Goldscore.Internal.Correction>
-0.7650

> <Gold.Goldscore.Internal.Vdw.Weighted>
-0.8275

> <Gold.Goldscore.Internal.Torsion.Weighted>
-0.5608

> <Gold.Goldscore.External.Vdw.Weighted>
29.0761

> <Gold.Goldscore.Internal.HBond.Weighted>
0.0000

> <Gold.Goldscore.External.HBond.Weighted>
0.0000

> <Gold.Goldscore.Internal.Correction.Weighted>
-0.7650

> <Gold.Rescore>
     Score     S(PLP)   S(hbond)     S(cho)   S(metal)  DE(clash)   DE(tors)     intcor
     21.82     -23.98       0.00       0.00       0.00       0.00       1.08       ----

> <Gold.PLP.Fitness>
21.8207

> <Gold.PLP.PLP>
-23.9848

> <Gold.PLP.part.hbond>
-1.0000

> <Gold.PLP.part.metal>
0.0000

> <Gold.PLP.part.buried>
-3.2377

> <Gold.PLP.part.nonpolar>
-19.7045

> <Gold.PLP.part.repulsive>
0.1624

> <Gold.PLP.ligand.clash>
0.0000

> <Gold.PLP.ligand.torsion>
1.0821

> <Gold.PLP.Chemscore.Hbond>
0.0000

> <Gold.PLP.Chemscore.CHOScore>
0.0000

> <Gold.PLP.Chemscore.Metal>
0.0000

> <Gold.PLP.Chemscore.Internal.Correction>
   9.000000E+99

#       Name:                CT1002167954
#       Creating user name   hitesit
#       Creation time:       Sun Apr 16 23:03:04 2023


#       File generated by GOLD software.
#

@<TRIPOS>MOLECULE
CT1002167954|ligand_prepared|mol2|1|dock1
    29    30     1
SMALL
NO_CHARGES


@<TRIPOS>ATOM
      1 C1         208.6787  43.0257  12.3618 C.3            1 RES1               0.0000
      2 C2         209.6400  42.7152  11.1963 C.ar           1 RES1               0.0000
      3 C3         209.2721  44.2223  13.0995 C.2            1 RES1               0.0000
      4 C4         207.3171  43.2962  11.7313 C.2            1 RES1               0.0000
      5 C5         208.5172  41.8605  13.3657 C.3            1 RES1               0.0000
      6 C6         210.5169  43.6867  10.7231 C.ar           1 RES1               0.0000
      7 C7         209.6632  41.4635  10.5870 C.ar           1 RES1               0.0000
      8 N8         208.6611  45.4308  12.9376 N.am           1 RES1               0.0000
      9 O9         210.2840  44.1150  13.7813 O.2            1 RES1               0.0000
     10 N10        206.7997  44.5606  11.8385 N.am           1 RES1               0.0000
     11 O11        206.6952  42.4303  11.1282 O.2            1 RES1               0.0000
     12 C12        207.7303  42.2306  14.6131 C.3            1 RES1               0.0000
     13 C13        211.3877  43.4159   9.6807 C.ar           1 RES1               0.0000
     14 C14        210.5346  41.1948   9.5445 C.ar           1 RES1               0.0000
     15 C15        207.4239  45.6480  12.3865 C.2            1 RES1               0.0000
     16 C16        211.3974  42.1698   9.0910 C.ar           1 RES1               0.0000
     17 O17        206.9162  46.7657  12.3970 O.2            1 RES1               0.0000
     18 H18        208.0100  41.0283  12.8622 H              1 RES1               0.0000
     19 H19        209.5133  41.5132  13.6668 H              1 RES1               0.0000
     20 H20        210.5218  44.6739  11.1731 H              1 RES1               0.0000
     21 H21        208.9925  40.6815  10.9266 H              1 RES1               0.0000
     22 H22        209.1713  46.2486  13.2556 H              1 RES1               0.0000
     23 H23        205.8624  44.7044  11.4764 H              1 RES1               0.0000
     24 H24        207.6466  41.3778  15.2835 H              1 RES1               0.0000
     25 H25        208.2199  43.0388  15.1524 H              1 RES1               0.0000
     26 H26        206.7255  42.5568  14.3526 H              1 RES1               0.0000
     27 H27        212.0638  44.1870   9.3265 H              1 RES1               0.0000
     28 H28        210.5384  40.2128   9.0829 H              1 RES1               0.0000
     29 H29        212.0799  41.9577   8.2746 H              1 RES1               0.0000
@<TRIPOS>BOND
    1    1    2 1     
    2    1    3 1     
    3    1    4 1     
    4    1    5 1     
    5    2    6 ar    
    6    2    7 ar    
    7    3    8 1     
    8    3    9 2     
    9    4   10 1     
   10    4   11 2     
   11    5   12 1     
   12    5   18 1     
   13    5   19 1     
   14    6   13 ar    
   15    6   20 1     
   16    7   14 ar    
   17    7   21 1     
   18    8   15 1     
   19    8   22 1     
   20   10   15 1     
   21   10   23 1     
   22   12   24 1     
   23   12   25 1     
   24   12   26 1     
   25   13   16 ar    
   26   13   27 1     
   27   14   16 ar    
   28   14   28 1     
   29   15   17 2     
   30   16   29 1     
@<TRIPOS>SUBSTRUCTURE
      1 RES1           1
@<TRIPOS>SET
DONOR_HYDROGENS      STATIC     ATOMS    <user>   **** ""
2 22 23
ATOM$RED        STATIC     ATOMS    COLORGROUP SYSTEM
2 22 23
@<TRIPOS>COMMENT
> <Gold.Version>
2022.3.0

> <Gold.Id.Protein>
unknown|4v3u_clean|pdb

> <Gold.Protein.RotatedTorsions>
[ 8319 8303 8304 8305 ] final  -87.72 input  100.38 | X-H torsion
[ 8355 8345 8346 8347 ] final    3.16 input   76.03 | X-H torsion
[ 8419 8397 8398 8399 ] final  172.62 input  108.00 | X-H torsion
[ 8503 8487 8488 8489 ] final   25.47 input   86.22 | X-H torsion
[ 9071 9050 9049 9047 ] final  -54.16 input   59.99 | X-H torsion
[ 8251 8229 8230 8231 ] final   57.72 input   84.12 | X-H torsion
[ 8543 8531 8532 8533 ] final -148.19 input  114.02 | X-H torsion
[ 10323 10307 10308 10309 ] final  -44.39 input   62.28 | X-H torsion
[ 27205 8306 8305 8304 ] final -163.39 input   -0.00 | X-H torsion
[ 27220 8348 8347 8346 ] final  -27.69 input    0.00 | X-H torsion
[ 27222 8400 8399 8398 ] final  146.08 input    0.00 | X-H torsion
[ 27224 8160 8159 8158 ] final  -11.08 input    0.00 | X-H torsion
[ 27226 8232 8231 8230 ] final  -75.36 input    0.00 | X-H torsion
[ 27230 10310 10309 10308 ] final  -26.38 input   -0.00 | X-H torsion

> <Gold.Protein.ActiveResidues>
 ASP403  LEU406  ILE407  GLN430  VAL431  PHE432  ASP433  ALA434  ARG435  ASP436 
 CYS437  TYR446  ASN449  THR465  ILE466 

> <Gold.Protein.RotatedAtoms>
  219.4360   38.4031   11.1235 H   0  0  0  0  0  0  0  0  0  0  0  0  # atno 8251 bound_to 8229
  216.7135   39.3882   10.6254 H   0  0  0  0  0  0  0  0  0  0  0  0  # atno 8319 bound_to 8303
  213.1814   38.3878   11.2228 H   0  0  0  0  0  0  0  0  0  0  0  0  # atno 8355 bound_to 8345
  211.5827   38.1365   11.3926 H   0  0  0  0  0  0  0  0  0  0  0  0  # atno 8419 bound_to 8397
  209.0676   38.4101    9.1553 H   0  0  0  0  0  0  0  0  0  0  0  0  # atno 8503 bound_to 8487
  208.2363   38.1376    7.2503 H   0  0  0  0  0  0  0  0  0  0  0  0  # atno 8543 bound_to 8531
  211.9771   39.8604    7.1672 H   0  0  0  0  0  0  0  0  0  0  0  0  # atno 9071 bound_to 9050
  215.9929   34.9491   10.6606 H   0  0  0  0  0  0  0  0  0  0  0  0  # atno 10323 bound_to 10307
  216.3898   41.0702   10.2575 LP  0  0  0  0  0  0  0  0  0  0  0  0  # atno 27204 bound_to 8303
  212.4478   40.0846    8.9144 LP  0  0  0  0  0  0  0  0  0  0  0  0  # atno 27205 bound_to 8306
  213.6952   41.2376    9.2531 LP  0  0  0  0  0  0  0  0  0  0  0  0  # atno 27206 bound_to 8306
  214.3875   38.5289    9.9699 LP  0  0  0  0  0  0  0  0  0  0  0  0  # atno 27211 bound_to 8345
  210.7679   38.5045    9.8935 LP  0  0  0  0  0  0  0  0  0  0  0  0  # atno 27212 bound_to 8397
  208.3830   39.3621   10.4510 LP  0  0  0  0  0  0  0  0  0  0  0  0  # atno 27213 bound_to 8487
  210.7816   39.5133    6.1198 LP  0  0  0  0  0  0  0  0  0  0  0  0  # atno 27218 bound_to 9050
  212.0223   40.4702    5.6596 LP  0  0  0  0  0  0  0  0  0  0  0  0  # atno 27219 bound_to 9050
  210.5517   36.2660    8.4595 LP  0  0  0  0  0  0  0  0  0  0  0  0  # atno 27220 bound_to 8348
  209.7721   36.0934    9.9966 LP  0  0  0  0  0  0  0  0  0  0  0  0  # atno 27221 bound_to 8348
  206.2551   38.5788   10.9206 LP  0  0  0  0  0  0  0  0  0  0  0  0  # atno 27222 bound_to 8400
  206.9538   37.1463   11.5986 LP  0  0  0  0  0  0  0  0  0  0  0  0  # atno 27223 bound_to 8400
  219.6777   42.1912   11.9561 LP  0  0  0  0  0  0  0  0  0  0  0  0  # atno 27224 bound_to 8160
  218.8573   41.7528   10.4951 LP  0  0  0  0  0  0  0  0  0  0  0  0  # atno 27225 bound_to 8160
  216.4134   37.3359   10.0713 LP  0  0  0  0  0  0  0  0  0  0  0  0  # atno 27226 bound_to 8232
  216.7060   37.7543   11.7264 LP  0  0  0  0  0  0  0  0  0  0  0  0  # atno 27227 bound_to 8232
  219.9165   40.0738   10.9533 LP  0  0  0  0  0  0  0  0  0  0  0  0  # atno 27228 bound_to 8229
  207.4182   37.1883    8.4764 LP  0  0  0  0  0  0  0  0  0  0  0  0  # atno 27229 bound_to 8531
  213.5362   36.8597   12.3265 LP  0  0  0  0  0  0  0  0  0  0  0  0  # atno 27230 bound_to 10310
  212.4691   36.0890   11.2008 LP  0  0  0  0  0  0  0  0  0  0  0  0  # atno 27231 bound_to 10310

> <Gold.Score>
     Fitness  S(hb_ext) S(vdw_ext)  S(hb_int)    S(int)      intcor
     28.33       0.00      21.41       0.00      -1.11      -0.79

> <Gold.Goldscore.Fitness>
28.3319

> <Gold.Goldscore.Internal.Vdw>
-1.4201

> <Gold.Goldscore.Internal.Torsion>
-0.4767

> <Gold.Goldscore.External.Vdw>
21.4091

> <Gold.Goldscore.Internal.HBond>
0.0000

> <Gold.Goldscore.External.HBond>
0.0000

> <Gold.Goldscore.Internal.Correction>
-0.7912

> <Gold.Goldscore.Internal.Vdw.Weighted>
-1.4201

> <Gold.Goldscore.Internal.Torsion.Weighted>
-0.4767

> <Gold.Goldscore.External.Vdw.Weighted>
29.4375

> <Gold.Goldscore.Internal.HBond.Weighted>
0.0000

> <Gold.Goldscore.External.HBond.Weighted>
0.0000

> <Gold.Goldscore.Internal.Correction.Weighted>
-0.7912

> <Gold.Rescore>
     Score     S(PLP)   S(hbond)     S(cho)   S(metal)  DE(clash)   DE(tors)     intcor
     24.00     -26.03       0.00       0.00       0.00       0.00       1.02       ----

> <Gold.PLP.Fitness>
23.9970

> <Gold.PLP.PLP>
-26.0327

> <Gold.PLP.part.hbond>
-1.0000

> <Gold.PLP.part.metal>
0.0000

> <Gold.PLP.part.buried>
-4.3506

> <Gold.PLP.part.nonpolar>
-20.6508

> <Gold.PLP.part.repulsive>
0.2081

> <Gold.PLP.ligand.clash>
0.0014

> <Gold.PLP.ligand.torsion>
1.0171

> <Gold.PLP.Chemscore.Hbond>
0.0000

> <Gold.PLP.Chemscore.CHOScore>
0.0000

> <Gold.PLP.Chemscore.Metal>
0.0000

> <Gold.PLP.Chemscore.Internal.Correction>
   9.000000E+99

#       Name:                CT1002167954
#       Creating user name   hitesit
#       Creation time:       Sun Apr 16 23:03:06 2023


#       File generated by GOLD software.
#

@<TRIPOS>MOLECULE
CT1002167954|ligand_prepared|mol2|1|dock4
    29    30     1
SMALL
NO_CHARGES


@<TRIPOS>ATOM
      1 C1         208.0609  42.8891  13.1326 C.3            1 RES1               0.0000
      2 C2         209.1767  42.6698  12.0906 C.ar           1 RES1               0.0000
      3 C3         208.6269  43.8548  14.1696 C.2            1 RES1               0.0000
      4 C4         206.8613  43.4335  12.3650 C.2            1 RES1               0.0000
      5 C5         207.6184  41.5958  13.8558 C.3            1 RES1               0.0000
      6 C6         209.1895  41.5274  11.2960 C.ar           1 RES1               0.0000
      7 C7         210.1965  43.6005  11.9110 C.ar           1 RES1               0.0000
      8 N8         208.1699  45.1396  14.1523 N.am           1 RES1               0.0000
      9 O9         209.4902  43.5046  14.9648 O.2            1 RES1               0.0000
     10 N10        206.4545  44.7142  12.6337 N.am           1 RES1               0.0000
     11 O11        206.2751  42.7709  11.5179 O.2            1 RES1               0.0000
     12 C12        206.7136  41.8417  15.0529 C.3            1 RES1               0.0000
     13 C13        210.1841  41.3241  10.3538 C.ar           1 RES1               0.0000
     14 C14        211.1904  43.3951  10.9684 C.ar           1 RES1               0.0000
     15 C15        207.0733  45.6025  13.4704 C.2            1 RES1               0.0000
     16 C16        211.1849  42.2579  10.1890 C.ar           1 RES1               0.0000
     17 O17        206.6791  46.7557  13.6185 O.2            1 RES1               0.0000
     18 H18        207.0902  40.9540  13.1400 H              1 RES1               0.0000
     19 H19        208.5121  41.0567  14.1936 H              1 RES1               0.0000
     20 H20        208.4115  40.7803  11.4131 H              1 RES1               0.0000
     21 H21        210.2217  44.5020  12.5137 H              1 RES1               0.0000
     22 H22        208.6917  45.8191  14.6967 H              1 RES1               0.0000
     23 H23        205.6122  45.0349  12.1668 H              1 RES1               0.0000
     24 H24        206.4327  40.9018  15.5236 H              1 RES1               0.0000
     25 H25        207.2164  42.4562  15.7968 H              1 RES1               0.0000
     26 H26        205.8030  42.3541  14.7494 H              1 RES1               0.0000
     27 H27        210.1760  40.4268   9.7439 H              1 RES1               0.0000
     28 H28        211.9764  44.1324  10.8426 H              1 RES1               0.0000
     29 H29        211.9637  42.0986   9.4506 H              1 RES1               0.0000
@<TRIPOS>BOND
    1    1    2 1     
    2    1    3 1     
    3    1    4 1     
    4    1    5 1     
    5    2    6 ar    
    6    2    7 ar    
    7    3    8 1     
    8    3    9 2     
    9    4   10 1     
   10    4   11 2     
   11    5   12 1     
   12    5   18 1     
   13    5   19 1     
   14    6   13 ar    
   15    6   20 1     
   16    7   14 ar    
   17    7   21 1     
   18    8   15 1     
   19    8   22 1     
   20   10   15 1     
   21   10   23 1     
   22   12   24 1     
   23   12   25 1     
   24   12   26 1     
   25   13   16 ar    
   26   13   27 1     
   27   14   16 ar    
   28   14   28 1     
   29   15   17 2     
   30   16   29 1     
@<TRIPOS>SUBSTRUCTURE
      1 RES1           1
@<TRIPOS>SET
DONOR_HYDROGENS      STATIC     ATOMS    <user>   **** ""
2 22 23
ATOM$RED        STATIC     ATOMS    COLORGROUP SYSTEM
2 22 23
@<TRIPOS>COMMENT
> <Gold.Version>
2022.3.0

> <Gold.Id.Protein>
unknown|4v3u_clean|pdb

> <Gold.Protein.RotatedTorsions>
[ 8319 8303 8304 8305 ] final  159.56 input  100.38 | X-H torsion
[ 8355 8345 8346 8347 ] final  -79.17 input   76.03 | X-H torsion
[ 8419 8397 8398 8399 ] final -174.53 input  108.00 | X-H torsion
[ 8503 8487 8488 8489 ] final  -88.98 input   86.22 | X-H torsion
[ 9071 9050 9049 9047 ] final -173.10 input   59.99 | X-H torsion
[ 8251 8229 8230 8231 ] final   37.63 input   84.12 | X-H torsion
[ 8543 8531 8532 8533 ] final -163.56 input  114.02 | X-H torsion
[ 10323 10307 10308 10309 ] final -176.73 input   62.28 | X-H torsion
[ 27205 8306 8305 8304 ] final -109.21 input   -0.00 | X-H torsion
[ 27220 8348 8347 8346 ] final  116.08 input    0.00 | X-H torsion
[ 27222 8400 8399 8398 ] final    4.26 input    0.00 | X-H torsion
[ 27224 8160 8159 8158 ] final   -4.49 input    0.00 | X-H torsion
[ 27226 8232 8231 8230 ] final  -90.57 input    0.00 | X-H torsion
[ 27230 10310 10309 10308 ] final  -83.02 input   -0.00 | X-H torsion

> <Gold.Protein.ActiveResidues>
 ASP403  LEU406  ILE407  GLN430  VAL431  PHE432  ASP433  ALA434  ARG435  ASP436 
 CYS437  TYR446  ASN449  THR465  ILE466 

> <Gold.Protein.RotatedAtoms>
  219.2647   38.5311   11.3451 H   0  0  0  0  0  0  0  0  0  0  0  0  # atno 8251 bound_to 8229
  216.7862   40.7950   11.1004 H   0  0  0  0  0  0  0  0  0  0  0  0  # atno 8319 bound_to 8303
  213.4278   39.2548   10.4965 H   0  0  0  0  0  0  0  0  0  0  0  0  # atno 8355 bound_to 8345
  211.5818   37.9525   11.3223 H   0  0  0  0  0  0  0  0  0  0  0  0  # atno 8419 bound_to 8397
  208.1809   38.4435   10.3488 H   0  0  0  0  0  0  0  0  0  0  0  0  # atno 8503 bound_to 8487
  208.4309   38.0408    7.3510 H   0  0  0  0  0  0  0  0  0  0  0  0  # atno 8543 bound_to 8531
  210.7886   39.5083    6.1366 H   0  0  0  0  0  0  0  0  0  0  0  0  # atno 9071 bound_to 9050
  217.0976   35.2306   11.8037 H   0  0  0  0  0  0  0  0  0  0  0  0  # atno 10323 bound_to 10307
  216.3198   39.7169    9.8005 LP  0  0  0  0  0  0  0  0  0  0  0  0  # atno 27204 bound_to 8303
  212.3109   40.6021    9.4936 LP  0  0  0  0  0  0  0  0  0  0  0  0  # atno 27205 bound_to 8306
  213.8321   40.7201    8.6738 LP  0  0  0  0  0  0  0  0  0  0  0  0  # atno 27206 bound_to 8306
  214.1449   37.6753   10.6850 LP  0  0  0  0  0  0  0  0  0  0  0  0  # atno 27211 bound_to 8345
  210.7688   38.6855    9.9627 LP  0  0  0  0  0  0  0  0  0  0  0  0  # atno 27212 bound_to 8397
  209.2484   39.3295    9.2861 LP  0  0  0  0  0  0  0  0  0  0  0  0  # atno 27213 bound_to 8487
  212.0095   40.4664    5.6486 LP  0  0  0  0  0  0  0  0  0  0  0  0  # atno 27218 bound_to 9050
  211.9919   39.8718    7.1694 LP  0  0  0  0  0  0  0  0  0  0  0  0  # atno 27219 bound_to 9050
  210.2008   35.7677    9.9888 LP  0  0  0  0  0  0  0  0  0  0  0  0  # atno 27220 bound_to 8348
  210.1229   36.5917    8.4673 LP  0  0  0  0  0  0  0  0  0  0  0  0  # atno 27221 bound_to 8348
  206.9699   37.5608   11.9844 LP  0  0  0  0  0  0  0  0  0  0  0  0  # atno 27222 bound_to 8400
  206.2390   38.1643   10.5347 LP  0  0  0  0  0  0  0  0  0  0  0  0  # atno 27223 bound_to 8400
  219.7576   42.2090   11.8992 LP  0  0  0  0  0  0  0  0  0  0  0  0  # atno 27224 bound_to 8160
  218.7774   41.7351   10.5520 LP  0  0  0  0  0  0  0  0  0  0  0  0  # atno 27225 bound_to 8160
  216.1994   37.3982   10.1251 LP  0  0  0  0  0  0  0  0  0  0  0  0  # atno 27226 bound_to 8232
  216.9199   37.6920   11.6726 LP  0  0  0  0  0  0  0  0  0  0  0  0  # atno 27227 bound_to 8232
  220.0843   39.9485   10.7363 LP  0  0  0  0  0  0  0  0  0  0  0  0  # atno 27228 bound_to 8229
  207.2318   37.2810    8.3799 LP  0  0  0  0  0  0  0  0  0  0  0  0  # atno 27229 bound_to 8531
  212.8117   36.5861   12.6010 LP  0  0  0  0  0  0  0  0  0  0  0  0  # atno 27230 bound_to 10310
  213.1936   36.3627   10.9264 LP  0  0  0  0  0  0  0  0  0  0  0  0  # atno 27231 bound_to 10310

> <Gold.Score>
     Fitness  S(hb_ext) S(vdw_ext)  S(hb_int)    S(int)      intcor
     27.79       0.00      20.91       0.00      -0.96      -0.77

> <Gold.Goldscore.Fitness>
27.7911

> <Gold.Goldscore.Internal.Vdw>
-1.1726

> <Gold.Goldscore.Internal.Torsion>
-0.5543

> <Gold.Goldscore.External.Vdw>
20.9111

> <Gold.Goldscore.Internal.HBond>
0.0000

> <Gold.Goldscore.External.HBond>
0.0000

> <Gold.Goldscore.Internal.Correction>
-0.7653

> <Gold.Goldscore.Internal.Vdw.Weighted>
-1.1726

> <Gold.Goldscore.Internal.Torsion.Weighted>
-0.5543

> <Gold.Goldscore.External.Vdw.Weighted>
28.7527

> <Gold.Goldscore.Internal.HBond.Weighted>
0.0000

> <Gold.Goldscore.External.HBond.Weighted>
0.0000

> <Gold.Goldscore.Internal.Correction.Weighted>
-0.7653

> <Gold.Rescore>
     Score     S(PLP)   S(hbond)     S(cho)   S(metal)  DE(clash)   DE(tors)     intcor
     24.72     -26.80       0.00       0.00       0.00       0.00       1.04       ----

> <Gold.PLP.Fitness>
24.7247

> <Gold.PLP.PLP>
-26.8043

> <Gold.PLP.part.hbond>
-1.0000

> <Gold.PLP.part.metal>
0.0000

> <Gold.PLP.part.buried>
-4.4771

> <Gold.PLP.part.nonpolar>
-21.3933

> <Gold.PLP.part.repulsive>
0.7110

> <Gold.PLP.ligand.clash>
0.0000

> <Gold.PLP.ligand.torsion>
1.0398

> <Gold.PLP.Chemscore.Hbond>
0.0000

> <Gold.PLP.Chemscore.CHOScore>
0.0000

> <Gold.PLP.Chemscore.Metal>
0.0000

> <Gold.PLP.Chemscore.Internal.Correction>
   9.000000E+99

#       Name:                CT1002167954
#       Creating user name   hitesit
#       Creation time:       Sun Apr 16 23:03:08 2023


#       File generated by GOLD software.
#

@<TRIPOS>MOLECULE
CT1002167954|ligand_prepared|mol2|1|dock10
    29    30     1
SMALL
NO_CHARGES


@<TRIPOS>ATOM
      1 C1         208.5150  42.9100  12.2098 C.3            1 RES1               0.0000
      2 C2         208.4347  42.9685  13.7489 C.ar           1 RES1               0.0000
      3 C3         207.5088  41.8514  11.7682 C.2            1 RES1               0.0000
      4 C4         208.1977  44.3159  11.7123 C.2            1 RES1               0.0000
      5 C5         209.9103  42.5164  11.6714 C.3            1 RES1               0.0000
      6 C6         207.4744  42.2329  14.4368 C.ar           1 RES1               0.0000
      7 C7         209.3142  43.7501  14.4934 C.ar           1 RES1               0.0000
      8 N8         206.3518  42.2821  11.1887 N.am           1 RES1               0.0000
      9 O9         207.7098  40.6587  11.9613 O.2            1 RES1               0.0000
     10 N10        207.0496  44.4962  10.9862 N.am           1 RES1               0.0000
     11 O11        208.9229  45.2722  11.9567 O.2            1 RES1               0.0000
     12 C12        209.9552  42.3300  10.1630 C.3            1 RES1               0.0000
     13 C13        207.3978  42.2746  15.8191 C.ar           1 RES1               0.0000
     14 C14        209.2358  43.7906  15.8757 C.ar           1 RES1               0.0000
     15 C15        206.0967  43.5488  10.7281 C.2            1 RES1               0.0000
     16 C16        208.2786  43.0531  16.5394 C.ar           1 RES1               0.0000
     17 O17        205.0637  43.8004  10.1141 O.2            1 RES1               0.0000
     18 H18        210.6299  43.2952  11.9526 H              1 RES1               0.0000
     19 H19        210.2233  41.5813  12.1522 H              1 RES1               0.0000
     20 H20        206.7711  41.6165  13.8868 H              1 RES1               0.0000
     21 H21        210.0746  44.3395  13.9924 H              1 RES1               0.0000
     22 H22        205.6074  41.5994  11.0887 H              1 RES1               0.0000
     23 H23        206.8907  45.4223  10.6025 H              1 RES1               0.0000
     24 H24        210.9564  42.0546   9.8380 H              1 RES1               0.0000
     25 H25        209.2697  41.5449   9.8507 H              1 RES1               0.0000
     26 H26        209.6738  43.2486   9.6523 H              1 RES1               0.0000
     27 H27        206.6418  41.6934  16.3367 H              1 RES1               0.0000
     28 H28        209.9306  44.4052  16.4385 H              1 RES1               0.0000
     29 H29        208.2187  43.0853  17.6223 H              1 RES1               0.0000
@<TRIPOS>BOND
    1    1    2 1     
    2    1    3 1     
    3    1    4 1     
    4    1    5 1     
    5    2    6 ar    
    6    2    7 ar    
    7    3    8 1     
    8    3    9 2     
    9    4   10 1     
   10    4   11 2     
   11    5   12 1     
   12    5   18 1     
   13    5   19 1     
   14    6   13 ar    
   15    6   20 1     
   16    7   14 ar    
   17    7   21 1     
   18    8   15 1     
   19    8   22 1     
   20   10   15 1     
   21   10   23 1     
   22   12   24 1     
   23   12   25 1     
   24   12   26 1     
   25   13   16 ar    
   26   13   27 1     
   27   14   16 ar    
   28   14   28 1     
   29   15   17 2     
   30   16   29 1     
@<TRIPOS>SUBSTRUCTURE
      1 RES1           1
@<TRIPOS>SET
DONOR_HYDROGENS      STATIC     ATOMS    <user>   **** ""
2 22 23
ATOM$RED        STATIC     ATOMS    COLORGROUP SYSTEM
2 22 23
@<TRIPOS>COMMENT
> <Gold.Version>
2022.3.0

> <Gold.Id.Protein>
unknown|4v3u_clean|pdb

> <Gold.Protein.RotatedTorsions>
[ 8319 8303 8304 8305 ] final    5.77 input  100.38 | X-H torsion
[ 8355 8345 8346 8347 ] final   29.92 input   76.03 | X-H torsion
[ 8419 8397 8398 8399 ] final   26.92 input  108.00 | X-H torsion
[ 8503 8487 8488 8489 ] final   22.59 input   86.22 | X-H torsion
[ 9071 9050 9049 9047 ] final  -53.45 input   59.99 | X-H torsion
[ 8251 8229 8230 8231 ] final  -16.40 input   84.12 | X-H torsion
[ 8543 8531 8532 8533 ] final   54.18 input  114.02 | X-H torsion
[ 10323 10307 10308 10309 ] final   53.54 input   62.28 | X-H torsion
[ 27205 8306 8305 8304 ] final  110.08 input   -0.00 | X-H torsion
[ 27220 8348 8347 8346 ] final  135.94 input    0.00 | X-H torsion
[ 27222 8400 8399 8398 ] final  -50.36 input    0.00 | X-H torsion
[ 27224 8160 8159 8158 ] final  153.46 input    0.00 | X-H torsion
[ 27226 8232 8231 8230 ] final   80.28 input    0.00 | X-H torsion
[ 27230 10310 10309 10308 ] final -142.31 input   -0.00 | X-H torsion

> <Gold.Protein.ActiveResidues>
 ASP403  LEU406  ILE407  GLN430  VAL431  PHE432  ASP433  ALA434  ARG435  ASP436 
 CYS437  TYR446  ASN449  THR465  ILE466 

> <Gold.Protein.RotatedAtoms>
  219.0910   39.2310   11.6956 H   0  0  0  0  0  0  0  0  0  0  0  0  # atno 8251 bound_to 8229
  216.1775   40.0576    9.6477 H   0  0  0  0  0  0  0  0  0  0  0  0  # atno 8319 bound_to 8303
  213.3746   38.0301   11.2375 H   0  0  0  0  0  0  0  0  0  0  0  0  # atno 8355 bound_to 8345
  210.8123   38.9540   10.1409 H   0  0  0  0  0  0  0  0  0  0  0  0  # atno 8419 bound_to 8397
  209.0455   38.3748    9.1710 H   0  0  0  0  0  0  0  0  0  0  0  0  # atno 8503 bound_to 8487
  207.7312   37.0638    8.5455 H   0  0  0  0  0  0  0  0  0  0  0  0  # atno 8543 bound_to 8531
  211.9858   39.8671    7.1639 H   0  0  0  0  0  0  0  0  0  0  0  0  # atno 9071 bound_to 9050
  215.9896   36.1837   11.1586 H   0  0  0  0  0  0  0  0  0  0  0  0  # atno 10323 bound_to 10307
  216.9054   40.4263   11.1980 LP  0  0  0  0  0  0  0  0  0  0  0  0  # atno 27204 bound_to 8303
  213.5207   40.2835    8.4469 LP  0  0  0  0  0  0  0  0  0  0  0  0  # atno 27205 bound_to 8306
  212.6222   41.0387    9.7206 LP  0  0  0  0  0  0  0  0  0  0  0  0  # atno 27206 bound_to 8306
  214.1972   38.8811    9.9554 LP  0  0  0  0  0  0  0  0  0  0  0  0  # atno 27211 bound_to 8345
  211.5255   37.7007   11.1244 LP  0  0  0  0  0  0  0  0  0  0  0  0  # atno 27212 bound_to 8397
  208.4046   39.3965   10.4357 LP  0  0  0  0  0  0  0  0  0  0  0  0  # atno 27213 bound_to 8487
  210.7814   39.5090    6.1306 LP  0  0  0  0  0  0  0  0  0  0  0  0  # atno 27218 bound_to 9050
  212.0137   40.4676    5.6522 LP  0  0  0  0  0  0  0  0  0  0  0  0  # atno 27219 bound_to 9050
  209.9564   35.9337   10.0326 LP  0  0  0  0  0  0  0  0  0  0  0  0  # atno 27220 bound_to 8348
  210.3673   36.4258    8.4235 LP  0  0  0  0  0  0  0  0  0  0  0  0  # atno 27221 bound_to 8348
  206.8979   37.0559   11.3749 LP  0  0  0  0  0  0  0  0  0  0  0  0  # atno 27222 bound_to 8400
  206.3109   38.6691   11.1443 LP  0  0  0  0  0  0  0  0  0  0  0  0  # atno 27223 bound_to 8400
  219.0636   41.8052   10.4006 LP  0  0  0  0  0  0  0  0  0  0  0  0  # atno 27224 bound_to 8160
  219.4714   42.1389   12.0506 LP  0  0  0  0  0  0  0  0  0  0  0  0  # atno 27225 bound_to 8160
  217.0373   37.6493   11.6137 LP  0  0  0  0  0  0  0  0  0  0  0  0  # atno 27226 bound_to 8232
  216.0820   37.4409   10.1840 LP  0  0  0  0  0  0  0  0  0  0  0  0  # atno 27227 bound_to 8232
  220.2544   39.2632   10.3931 LP  0  0  0  0  0  0  0  0  0  0  0  0  # atno 27228 bound_to 8229
  207.9021   38.2168    7.2358 LP  0  0  0  0  0  0  0  0  0  0  0  0  # atno 27229 bound_to 8531
  212.2478   36.1980   12.0858 LP  0  0  0  0  0  0  0  0  0  0  0  0  # atno 27230 bound_to 10310
  213.7575   36.7508   11.4415 LP  0  0  0  0  0  0  0  0  0  0  0  0  # atno 27231 bound_to 10310

> <Gold.Score>
     Fitness  S(hb_ext) S(vdw_ext)  S(hb_int)    S(int)      intcor
     27.34       0.00      21.87       0.00      -2.73      -0.76

> <Gold.Goldscore.Fitness>
27.3442

> <Gold.Goldscore.Internal.Vdw>
-3.0804

> <Gold.Goldscore.Internal.Torsion>
-0.4178

> <Gold.Goldscore.External.Vdw>
21.8745

> <Gold.Goldscore.Internal.HBond>
0.0000

> <Gold.Goldscore.External.HBond>
0.0000

> <Gold.Goldscore.Internal.Correction>
-0.7650

> <Gold.Goldscore.Internal.Vdw.Weighted>
-3.0804

> <Gold.Goldscore.Internal.Torsion.Weighted>
-0.4178

> <Gold.Goldscore.External.Vdw.Weighted>
30.0774

> <Gold.Goldscore.Internal.HBond.Weighted>
0.0000

> <Gold.Goldscore.External.HBond.Weighted>
0.0000

> <Gold.Goldscore.Internal.Correction.Weighted>
-0.7650

> <Gold.Rescore>
     Score     S(PLP)   S(hbond)     S(cho)   S(metal)  DE(clash)   DE(tors)     intcor
     20.44     -22.51       0.00       0.00       0.00       2.06       0.01       ----

> <Gold.PLP.Fitness>
20.4417

> <Gold.PLP.PLP>
-22.5137

> <Gold.PLP.part.hbond>
0.0000

> <Gold.PLP.part.metal>
0.0000

> <Gold.PLP.part.buried>
-1.2425

> <Gold.PLP.part.nonpolar>
-21.5367

> <Gold.PLP.part.repulsive>
0.1374

> <Gold.PLP.ligand.clash>
2.0573

> <Gold.PLP.ligand.torsion>
0.0074

> <Gold.PLP.Chemscore.Hbond>
0.0000

> <Gold.PLP.Chemscore.CHOScore>
0.0000

> <Gold.PLP.Chemscore.Metal>
0.0000

> <Gold.PLP.Chemscore.Internal.Correction>
   9.000000E+99

#       Name:                CT1002167954
#       Creating user name   hitesit
#       Creation time:       Sun Apr 16 23:03:05 2023


#       File generated by GOLD software.
#

@<TRIPOS>MOLECULE
CT1002167954|ligand_prepared|mol2|1|dock3
    29    30     1
SMALL
NO_CHARGES


@<TRIPOS>ATOM
      1 C1         212.8960  44.0816   8.6327 C.3            1 RES1               0.0000
      2 C2         211.8746  43.1439   9.3080 C.ar           1 RES1               0.0000
      3 C3         214.2300  43.8367   9.3318 C.2            1 RES1               0.0000
      4 C4         212.8940  43.7189   7.1517 C.2            1 RES1               0.0000
      5 C5         212.5443  45.5823   8.7575 C.3            1 RES1               0.0000
      6 C6         211.2073  43.5378  10.4640 C.ar           1 RES1               0.0000
      7 C7         211.5875  41.8853   8.7862 C.ar           1 RES1               0.0000
      8 N8         215.1809  43.1354   8.6507 N.am           1 RES1               0.0000
      9 O9         214.4303  44.2188  10.4781 O.2            1 RES1               0.0000
     10 N10        214.0353  43.1763   6.6220 N.am           1 RES1               0.0000
     11 O11        211.9087  43.8827   6.4426 O.2            1 RES1               0.0000
     12 C12        213.3292  46.4768   7.8109 C.3            1 RES1               0.0000
     13 C13        210.2844  42.7050  11.0747 C.ar           1 RES1               0.0000
     14 C14        210.6643  41.0540   9.3986 C.ar           1 RES1               0.0000
     15 C15        215.1684  42.8397   7.3113 C.2            1 RES1               0.0000
     16 C16        210.0119  41.4629  10.5423 C.ar           1 RES1               0.0000
     17 O17        216.1341  42.3046   6.7745 O.2            1 RES1               0.0000
     18 H18        211.4732  45.7117   8.5588 H              1 RES1               0.0000
     19 H19        212.7355  45.9053   9.7883 H              1 RES1               0.0000
     20 H20        211.4105  44.5107  10.8989 H              1 RES1               0.0000
     21 H21        212.0895  41.5423   7.8879 H              1 RES1               0.0000
     22 H22        215.9748  42.7998   9.1869 H              1 RES1               0.0000
     23 H23        214.0408  43.0078   5.6210 H              1 RES1               0.0000
     24 H24        213.0440  47.5189   7.9396 H              1 RES1               0.0000
     25 H25        214.3977  46.3924   7.9975 H              1 RES1               0.0000
     26 H26        213.1430  46.1999   6.7753 H              1 RES1               0.0000
     27 H27        209.7747  43.0309  11.9754 H              1 RES1               0.0000
     28 H28        210.4535  40.0770   8.9764 H              1 RES1               0.0000
     29 H29        209.2886  40.8108  11.0206 H              1 RES1               0.0000
@<TRIPOS>BOND
    1    1    2 1     
    2    1    3 1     
    3    1    4 1     
    4    1    5 1     
    5    2    6 ar    
    6    2    7 ar    
    7    3    8 1     
    8    3    9 2     
    9    4   10 1     
   10    4   11 2     
   11    5   12 1     
   12    5   18 1     
   13    5   19 1     
   14    6   13 ar    
   15    6   20 1     
   16    7   14 ar    
   17    7   21 1     
   18    8   15 1     
   19    8   22 1     
   20   10   15 1     
   21   10   23 1     
   22   12   24 1     
   23   12   25 1     
   24   12   26 1     
   25   13   16 ar    
   26   13   27 1     
   27   14   16 ar    
   28   14   28 1     
   29   15   17 2     
   30   16   29 1     
@<TRIPOS>SUBSTRUCTURE
      1 RES1           1
@<TRIPOS>SET
DONOR_HYDROGENS      STATIC     ATOMS    <user>   **** ""
2 22 23
ATOM$RED        STATIC     ATOMS    COLORGROUP SYSTEM
2 22 23
@<TRIPOS>COMMENT
> <Gold.Version>
2022.3.0

> <Gold.Id.Protein>
unknown|4v3u_clean|pdb

> <Gold.Protein.RotatedTorsions>
[ 8319 8303 8304 8305 ] final  -37.40 input  100.38 | X-H torsion
[ 8355 8345 8346 8347 ] final  -86.43 input   76.03 | X-H torsion
[ 8419 8397 8398 8399 ] final -154.67 input  108.00 | X-H torsion
[ 8503 8487 8488 8489 ] final  -97.80 input   86.22 | X-H torsion
[ 9071 9050 9049 9047 ] final   49.25 input   59.99 | X-H torsion
[ 8251 8229 8230 8231 ] final  150.65 input   84.12 | X-H torsion
[ 8543 8531 8532 8533 ] final  -89.76 input  114.02 | X-H torsion
[ 10323 10307 10308 10309 ] final -163.45 input   62.28 | X-H torsion
[ 27205 8306 8305 8304 ] final   12.28 input   -0.00 | X-H torsion
[ 27220 8348 8347 8346 ] final   45.08 input    0.00 | X-H torsion
[ 27222 8400 8399 8398 ] final  -74.78 input    0.00 | X-H torsion
[ 27224 8160 8159 8158 ] final -172.38 input    0.00 | X-H torsion
[ 27226 8232 8231 8230 ] final   83.81 input    0.00 | X-H torsion
[ 27230 10310 10309 10308 ] final   26.90 input   -0.00 | X-H torsion

> <Gold.Protein.ActiveResidues>
 ASP403  LEU406  ILE407  GLN430  VAL431  PHE432  ASP433  ALA434  ARG435  ASP436 
 CYS437  TYR446  ASN449  THR465  ILE466 

> <Gold.Protein.RotatedAtoms>
  220.2312   39.0677   10.3731 H   0  0  0  0  0  0  0  0  0  0  0  0  # atno 8251 bound_to 8229
  216.3817   39.5137    9.9542 H   0  0  0  0  0  0  0  0  0  0  0  0  # atno 8319 bound_to 8303
  213.5022   39.2711   10.4154 H   0  0  0  0  0  0  0  0  0  0  0  0  # atno 8355 bound_to 8345
  211.5405   37.7076   11.1477 H   0  0  0  0  0  0  0  0  0  0  0  0  # atno 8419 bound_to 8397
  208.1659   38.5613   10.4148 H   0  0  0  0  0  0  0  0  0  0  0  0  # atno 8503 bound_to 8487
  207.3635   38.1535    7.2899 H   0  0  0  0  0  0  0  0  0  0  0  0  # atno 8543 bound_to 8531
  212.1984   40.4998    5.8637 H   0  0  0  0  0  0  0  0  0  0  0  0  # atno 9071 bound_to 9050
  217.0838   35.0467   11.7162 H   0  0  0  0  0  0  0  0  0  0  0  0  # atno 10323 bound_to 10307
  216.7090   40.9495   10.9032 LP  0  0  0  0  0  0  0  0  0  0  0  0  # atno 27204 bound_to 8303
  213.6565   41.2619    9.3000 LP  0  0  0  0  0  0  0  0  0  0  0  0  # atno 27205 bound_to 8306
  212.4864   40.0603    8.8675 LP  0  0  0  0  0  0  0  0  0  0  0  0  # atno 27206 bound_to 8306
  214.0716   37.6592   10.7649 LP  0  0  0  0  0  0  0  0  0  0  0  0  # atno 27211 bound_to 8345
  210.8094   38.9263   10.1344 LP  0  0  0  0  0  0  0  0  0  0  0  0  # atno 27212 bound_to 8397
  209.2631   39.2145    9.2217 LP  0  0  0  0  0  0  0  0  0  0  0  0  # atno 27213 bound_to 8487
  211.7582   39.7074    7.2146 LP  0  0  0  0  0  0  0  0  0  0  0  0  # atno 27218 bound_to 9050
  210.8226   39.6317    5.8784 LP  0  0  0  0  0  0  0  0  0  0  0  0  # atno 27219 bound_to 9050
  210.8485   35.6519    9.2280 LP  0  0  0  0  0  0  0  0  0  0  0  0  # atno 27220 bound_to 8348
  209.4753   36.7076    9.2281 LP  0  0  0  0  0  0  0  0  0  0  0  0  # atno 27221 bound_to 8348
  206.7725   37.0443   11.0310 LP  0  0  0  0  0  0  0  0  0  0  0  0  # atno 27222 bound_to 8400
  206.4363   38.6807   11.4882 LP  0  0  0  0  0  0  0  0  0  0  0  0  # atno 27223 bound_to 8400
  218.6485   41.7109   10.6791 LP  0  0  0  0  0  0  0  0  0  0  0  0  # atno 27224 bound_to 8160
  219.8865   42.2331   11.7721 LP  0  0  0  0  0  0  0  0  0  0  0  0  # atno 27225 bound_to 8160
  216.9933   37.6661   11.6387 LP  0  0  0  0  0  0  0  0  0  0  0  0  # atno 27226 bound_to 8232
  216.1260   37.4241   10.1591 LP  0  0  0  0  0  0  0  0  0  0  0  0  # atno 27227 bound_to 8232
  219.1378   39.4230   11.6882 LP  0  0  0  0  0  0  0  0  0  0  0  0  # atno 27228 bound_to 8229
  208.2542   37.1730    8.4385 LP  0  0  0  0  0  0  0  0  0  0  0  0  # atno 27229 bound_to 8531
  213.7865   36.8010   11.5938 LP  0  0  0  0  0  0  0  0  0  0  0  0  # atno 27230 bound_to 10310
  212.2188   36.1478   11.9336 LP  0  0  0  0  0  0  0  0  0  0  0  0  # atno 27231 bound_to 10310

> <Gold.Score>
     Fitness  S(hb_ext) S(vdw_ext)  S(hb_int)    S(int)      intcor
     25.65       0.00      19.23       0.00      -0.78      -0.77

> <Gold.Goldscore.Fitness>
25.6532

> <Gold.Goldscore.Internal.Vdw>
-0.8487

> <Gold.Goldscore.Internal.Torsion>
-0.6983

> <Gold.Goldscore.External.Vdw>
19.2254

> <Gold.Goldscore.Internal.HBond>
0.0000

> <Gold.Goldscore.External.HBond>
0.0000

> <Gold.Goldscore.Internal.Correction>
-0.7653

> <Gold.Goldscore.Internal.Vdw.Weighted>
-0.8487

> <Gold.Goldscore.Internal.Torsion.Weighted>
-0.6983

> <Gold.Goldscore.External.Vdw.Weighted>
26.4349

> <Gold.Goldscore.Internal.HBond.Weighted>
0.0000

> <Gold.Goldscore.External.HBond.Weighted>
0.0000

> <Gold.Goldscore.Internal.Correction.Weighted>
-0.7653

> <Gold.Rescore>
     Score     S(PLP)   S(hbond)     S(cho)   S(metal)  DE(clash)   DE(tors)     intcor
     20.38     -22.14       0.27       0.00       0.00       0.00       1.29       ----

> <Gold.PLP.Fitness>
20.3770

> <Gold.PLP.PLP>
-22.1448

> <Gold.PLP.part.hbond>
-4.2580

> <Gold.PLP.part.metal>
0.0000

> <Gold.PLP.part.buried>
2.7438

> <Gold.PLP.part.nonpolar>
-22.4333

> <Gold.PLP.part.repulsive>
0.7168

> <Gold.PLP.ligand.clash>
0.0000

> <Gold.PLP.ligand.torsion>
1.2864

> <Gold.PLP.Chemscore.Hbond>
0.2683

> <Gold.PLP.Chemscore.CHOScore>
0.0000

> <Gold.PLP.Chemscore.Metal>
0.0000

> <Gold.PLP.Chemscore.Internal.Correction>
   9.000000E+99

#       Name:                CT1002167954
#       Creating user name   hitesit
#       Creation time:       Sun Apr 16 23:03:07 2023


#       File generated by GOLD software.
#

@<TRIPOS>MOLECULE
CT1002167954|ligand_prepared|mol2|1|dock8
    29    30     1
SMALL
NO_CHARGES


@<TRIPOS>ATOM
      1 C1         212.9151  44.4607   9.3916 C.3            1 RES1               0.0000
      2 C2         211.8744  43.4426   9.9008 C.ar           1 RES1               0.0000
      3 C3         214.0859  44.4014  10.3683 C.2            1 RES1               0.0000
      4 C4         213.2682  44.0353   7.9707 C.2            1 RES1               0.0000
      5 C5         212.3924  45.9152   9.3390 C.3            1 RES1               0.0000
      6 C6         211.1671  43.6797  11.0756 C.ar           1 RES1               0.0000
      7 C7         211.6094  42.2652   9.2065 C.ar           1 RES1               0.0000
      8 N8         215.2278  43.7846   9.9493 N.am           1 RES1               0.0000
      9 O9         213.9951  44.8541  11.5029 O.2            1 RES1               0.0000
     10 N10        214.5462  43.6045   7.7283 N.am           1 RES1               0.0000
     11 O11        212.4466  44.0536   7.0624 O.2            1 RES1               0.0000
     12 C12        213.3837  46.9016   8.7419 C.3            1 RES1               0.0000
     13 C13        210.2267  42.7741  11.5381 C.ar           1 RES1               0.0000
     14 C14        210.6686  41.3608   9.6708 C.ar           1 RES1               0.0000
     15 C15        215.5334  43.4307   8.6597 C.2            1 RES1               0.0000
     16 C16        209.9765  41.6144  10.8359 C.ar           1 RES1               0.0000
     17 O17        216.6416  42.9869   8.3734 O.2            1 RES1               0.0000
     18 H18        211.4704  45.9378   8.7450 H              1 RES1               0.0000
     19 H19        212.1432  46.2379  10.3574 H              1 RES1               0.0000
     20 H20        211.3522  44.5858  11.6430 H              1 RES1               0.0000
     21 H21        212.1426  42.0443   8.2881 H              1 RES1               0.0000
     22 H22        215.9182  43.5662  10.6605 H              1 RES1               0.0000
     23 H23        214.7837  43.3938   6.7641 H              1 RES1               0.0000
     24 H24        212.9672  47.9067   8.7286 H              1 RES1               0.0000
     25 H25        214.3034  46.9236   9.3227 H              1 RES1               0.0000
     26 H26        213.6347  46.6253   7.7199 H              1 RES1               0.0000
     27 H27        209.6856  42.9778  12.4562 H              1 RES1               0.0000
     28 H28        210.4754  40.4491   9.1153 H              1 RES1               0.0000
     29 H29        209.2395  40.9053  11.1981 H              1 RES1               0.0000
@<TRIPOS>BOND
    1    1    2 1     
    2    1    3 1     
    3    1    4 1     
    4    1    5 1     
    5    2    6 ar    
    6    2    7 ar    
    7    3    8 1     
    8    3    9 2     
    9    4   10 1     
   10    4   11 2     
   11    5   12 1     
   12    5   18 1     
   13    5   19 1     
   14    6   13 ar    
   15    6   20 1     
   16    7   14 ar    
   17    7   21 1     
   18    8   15 1     
   19    8   22 1     
   20   10   15 1     
   21   10   23 1     
   22   12   24 1     
   23   12   25 1     
   24   12   26 1     
   25   13   16 ar    
   26   13   27 1     
   27   14   16 ar    
   28   14   28 1     
   29   15   17 2     
   30   16   29 1     
@<TRIPOS>SUBSTRUCTURE
      1 RES1           1
@<TRIPOS>SET
DONOR_HYDROGENS      STATIC     ATOMS    <user>   **** ""
2 22 23
ATOM$RED        STATIC     ATOMS    COLORGROUP SYSTEM
2 22 23
@<TRIPOS>COMMENT
> <Gold.Version>
2022.3.0

> <Gold.Id.Protein>
unknown|4v3u_clean|pdb

> <Gold.Protein.RotatedTorsions>
[ 8319 8303 8304 8305 ] final   16.00 input  100.38 | X-H torsion
[ 8355 8345 8346 8347 ] final -158.81 input   76.03 | X-H torsion
[ 8419 8397 8398 8399 ] final  171.90 input  108.00 | X-H torsion
[ 8503 8487 8488 8489 ] final -112.86 input   86.22 | X-H torsion
[ 9071 9050 9049 9047 ] final  -11.17 input   59.99 | X-H torsion
[ 8251 8229 8230 8231 ] final -175.50 input   84.12 | X-H torsion
[ 8543 8531 8532 8533 ] final -179.72 input  114.02 | X-H torsion
[ 10323 10307 10308 10309 ] final  155.01 input   62.28 | X-H torsion
[ 27205 8306 8305 8304 ] final -120.42 input   -0.00 | X-H torsion
[ 27220 8348 8347 8346 ] final  -14.54 input    0.00 | X-H torsion
[ 27222 8400 8399 8398 ] final   -6.03 input    0.00 | X-H torsion
[ 27224 8160 8159 8158 ] final  125.94 input    0.00 | X-H torsion
[ 27226 8232 8231 8230 ] final -101.82 input    0.00 | X-H torsion
[ 27230 10310 10309 10308 ] final  132.73 input   -0.00 | X-H torsion

> <Gold.Protein.ActiveResidues>
 ASP403  LEU406  ILE407  GLN430  VAL431  PHE432  ASP433  ALA434  ARG435  ASP436 
 CYS437  TYR446  ASN449  THR465  ILE466 

> <Gold.Protein.RotatedAtoms>
  220.2567   39.5742   10.4562 H   0  0  0  0  0  0  0  0  0  0  0  0  # atno 8251 bound_to 8229
  216.1552   40.2149    9.6368 H   0  0  0  0  0  0  0  0  0  0  0  0  # atno 8319 bound_to 8303
  214.2825   38.7796    9.9383 H   0  0  0  0  0  0  0  0  0  0  0  0  # atno 8355 bound_to 8345
  211.5821   38.1471   11.3955 H   0  0  0  0  0  0  0  0  0  0  0  0  # atno 8419 bound_to 8397
  208.1704   38.7793   10.4937 H   0  0  0  0  0  0  0  0  0  0  0  0  # atno 8503 bound_to 8487
  208.5879   37.9082    7.4963 H   0  0  0  0  0  0  0  0  0  0  0  0  # atno 8543 bound_to 8531
  212.3593   40.2573    6.7593 H   0  0  0  0  0  0  0  0  0  0  0  0  # atno 9071 bound_to 9050
  217.0098   35.6435   11.8895 H   0  0  0  0  0  0  0  0  0  0  0  0  # atno 10323 bound_to 10307
  216.9268   40.2749   11.2085 LP  0  0  0  0  0  0  0  0  0  0  0  0  # atno 27204 bound_to 8303
  212.2826   40.4733    9.3877 LP  0  0  0  0  0  0  0  0  0  0  0  0  # atno 27205 bound_to 8306
  213.8604   40.8489    8.7798 LP  0  0  0  0  0  0  0  0  0  0  0  0  # atno 27206 bound_to 8306
  213.3033   38.1431   11.2346 LP  0  0  0  0  0  0  0  0  0  0  0  0  # atno 27211 bound_to 8345
  210.7685   38.4941    9.8907 LP  0  0  0  0  0  0  0  0  0  0  0  0  # atno 27212 bound_to 8397
  209.2587   39.0017    9.1447 LP  0  0  0  0  0  0  0  0  0  0  0  0  # atno 27213 bound_to 8487
  210.9826   39.3905    6.7692 LP  0  0  0  0  0  0  0  0  0  0  0  0  # atno 27218 bound_to 9050
  211.4361   40.1930    5.4213 LP  0  0  0  0  0  0  0  0  0  0  0  0  # atno 27219 bound_to 9050
  210.6776   36.1318    8.5339 LP  0  0  0  0  0  0  0  0  0  0  0  0  # atno 27220 bound_to 8348
  209.6462   36.2276    9.9221 LP  0  0  0  0  0  0  0  0  0  0  0  0  # atno 27221 bound_to 8348
  206.9819   37.4272   11.9061 LP  0  0  0  0  0  0  0  0  0  0  0  0  # atno 27222 bound_to 8400
  206.2269   38.2979   10.6131 LP  0  0  0  0  0  0  0  0  0  0  0  0  # atno 27223 bound_to 8400
  219.4572   41.9253   10.3819 LP  0  0  0  0  0  0  0  0  0  0  0  0  # atno 27224 bound_to 8160
  219.0778   42.0187   12.0693 LP  0  0  0  0  0  0  0  0  0  0  0  0  # atno 27225 bound_to 8160
  216.0567   37.4511   10.2002 LP  0  0  0  0  0  0  0  0  0  0  0  0  # atno 27226 bound_to 8232
  217.0626   37.6391   11.5976 LP  0  0  0  0  0  0  0  0  0  0  0  0  # atno 27227 bound_to 8232
  219.1129   38.9271   11.6068 LP  0  0  0  0  0  0  0  0  0  0  0  0  # atno 27228 bound_to 8229
  207.0814   37.4080    8.2407 LP  0  0  0  0  0  0  0  0  0  0  0  0  # atno 27229 bound_to 8531
  212.7110   36.1572   11.0125 LP  0  0  0  0  0  0  0  0  0  0  0  0  # atno 27230 bound_to 10310
  213.2943   36.7916   12.5149 LP  0  0  0  0  0  0  0  0  0  0  0  0  # atno 27231 bound_to 10310

> <Gold.Score>
     Fitness  S(hb_ext) S(vdw_ext)  S(hb_int)    S(int)      intcor
     24.47       0.00      19.11       0.00      -1.81      -0.76

> <Gold.Goldscore.Fitness>
24.4692

> <Gold.Goldscore.Internal.Vdw>
-2.1807

> <Gold.Goldscore.Internal.Torsion>
-0.3935

> <Gold.Goldscore.External.Vdw>
19.1116

> <Gold.Goldscore.Internal.HBond>
0.0000

> <Gold.Goldscore.External.HBond>
0.0000

> <Gold.Goldscore.Internal.Correction>
-0.7650

> <Gold.Goldscore.Internal.Vdw.Weighted>
-2.1807

> <Gold.Goldscore.Internal.Torsion.Weighted>
-0.3935

> <Gold.Goldscore.External.Vdw.Weighted>
26.2785

> <Gold.Goldscore.Internal.HBond.Weighted>
0.0000

> <Gold.Goldscore.External.HBond.Weighted>
0.0000

> <Gold.Goldscore.Internal.Correction.Weighted>
-0.7650

> <Gold.Rescore>
     Score     S(PLP)   S(hbond)     S(cho)   S(metal)  DE(clash)   DE(tors)     intcor
     21.89     -23.49       0.00       0.00       0.00       0.99       0.30       ----

> <Gold.PLP.Fitness>
21.8905

> <Gold.PLP.PLP>
-23.4899

> <Gold.PLP.part.hbond>
-1.8750

> <Gold.PLP.part.metal>
0.0000

> <Gold.PLP.part.buried>
-2.9516

> <Gold.PLP.part.nonpolar>
-19.2492

> <Gold.PLP.part.repulsive>
0.4780

> <Gold.PLP.ligand.clash>
0.9925

> <Gold.PLP.ligand.torsion>
0.3035

> <Gold.PLP.Chemscore.Hbond>
0.0000

> <Gold.PLP.Chemscore.CHOScore>
0.0000

> <Gold.PLP.Chemscore.Metal>
0.0000

> <Gold.PLP.Chemscore.Internal.Correction>
   9.000000E+99

