#       Name:                GA Fitting Points
#       Creating user name   hitesit
#       Creation time:       Sun Apr 16 23:03:01 2023


#       Fitting Points Used by GA Software.
#

@<TRIPOS>MOLECULE
GA Fitting Points
  1328    0    0
SMALL
NO_CHARGES


@<TRIPOS>ATOM
      1 ****       207.0000  41.0000  14.0000 Du        
      2 ****       207.0000  41.0000  14.2500 Du        
      3 ****       207.0000  41.2500  13.0000 Du        
      4 ****       207.0000  41.2500  13.5000 Du        
      5 ****       207.0000  41.2500  13.7500 Du        
      6 ****       207.0000  41.2500  14.0000 Du        
      7 ****       207.0000  41.2500  14.2500 Du        
      8 ****       207.0000  41.5000  12.5000 Du        
      9 ****       207.0000  41.5000  12.7500 Du        
     10 ****       207.0000  41.5000  13.0000 Du        
     11 ****       207.0000  41.5000  13.2500 Du        
     12 ****       207.0000  41.5000  13.5000 Du        
     13 ****       207.0000  41.5000  13.7500 Du        
     14 ****       207.0000  41.5000  14.0000 Du        
     15 ****       207.0000  41.5000  14.2500 Du        
     16 ****       207.0000  41.7500  12.2500 Du        
     17 ****       207.0000  41.7500  12.5000 Du        
     18 ****       207.0000  41.7500  12.7500 Du        
     19 ****       207.0000  41.7500  13.0000 Du        
     20 ****       207.0000  41.7500  13.2500 Du        
     21 ****       207.0000  41.7500  13.5000 Du        
     22 ****       207.0000  41.7500  13.7500 Du        
     23 ****       207.0000  41.7500  14.0000 Du        
     24 ****       207.0000  41.7500  14.2500 Du        
     25 ****       207.0000  42.0000  12.2500 Du        
     26 ****       207.0000  42.0000  12.5000 Du        
     27 ****       207.0000  42.0000  12.7500 Du        
     28 ****       207.0000  42.0000  13.0000 Du        
     29 ****       207.0000  42.0000  13.2500 Du        
     30 ****       207.0000  42.0000  13.5000 Du        
     31 ****       207.0000  42.0000  13.7500 Du        
     32 ****       207.0000  42.0000  14.0000 Du        
     33 ****       207.0000  42.0000  14.2500 Du        
     34 ****       207.0000  42.2500  12.7500 Du        
     35 ****       207.0000  42.2500  13.0000 Du        
     36 ****       207.0000  42.2500  13.2500 Du        
     37 ****       207.0000  42.2500  13.5000 Du        
     38 ****       207.0000  42.2500  13.7500 Du        
     39 ****       207.0000  42.2500  14.0000 Du        
     40 ****       207.0000  42.2500  14.2500 Du        
     41 ****       207.2500  41.2500  14.0000 Du        
     42 ****       207.2500  41.2500  14.2500 Du        
     43 ****       207.2500  41.5000  13.0000 Du        
     44 ****       207.2500  41.5000  13.2500 Du        
     45 ****       207.2500  41.5000  13.5000 Du        
     46 ****       207.2500  41.5000  13.7500 Du        
     47 ****       207.2500  41.5000  14.0000 Du        
     48 ****       207.2500  41.5000  14.2500 Du        
     49 ****       207.2500  41.7500  12.2500 Du        
     50 ****       207.2500  41.7500  12.5000 Du        
     51 ****       207.2500  41.7500  12.7500 Du        
     52 ****       207.2500  41.7500  13.0000 Du        
     53 ****       207.2500  41.7500  13.2500 Du        
     54 ****       207.2500  41.7500  13.5000 Du        
     55 ****       207.2500  41.7500  13.7500 Du        
     56 ****       207.2500  41.7500  14.0000 Du        
     57 ****       207.2500  41.7500  14.2500 Du        
     58 ****       207.2500  42.0000  12.2500 Du        
     59 ****       207.2500  42.0000  12.5000 Du        
     60 ****       207.2500  42.0000  12.7500 Du        
     61 ****       207.2500  42.0000  13.0000 Du        
     62 ****       207.2500  42.0000  13.2500 Du        
     63 ****       207.2500  42.0000  13.5000 Du        
     64 ****       207.2500  42.0000  13.7500 Du        
     65 ****       207.2500  42.0000  14.0000 Du        
     66 ****       207.2500  42.0000  14.2500 Du        
     67 ****       207.2500  42.2500  12.2500 Du        
     68 ****       207.2500  42.2500  12.5000 Du        
     69 ****       207.2500  42.2500  12.7500 Du        
     70 ****       207.2500  42.2500  13.0000 Du        
     71 ****       207.2500  42.2500  13.2500 Du        
     72 ****       207.2500  42.2500  13.5000 Du        
     73 ****       207.2500  42.2500  13.7500 Du        
     74 ****       207.2500  42.2500  14.0000 Du        
     75 ****       207.2500  42.2500  14.2500 Du        
     76 ****       207.5000  41.2500  14.5000 Du        
     77 ****       207.5000  41.2500  14.7500 Du        
     78 ****       207.5000  41.2500  15.0000 Du        
     79 ****       207.5000  41.5000  13.7500 Du        
     80 ****       207.5000  41.5000  14.0000 Du        
     81 ****       207.5000  41.5000  14.2500 Du        
     82 ****       207.5000  41.5000  14.5000 Du        
     83 ****       207.5000  41.5000  14.7500 Du        
     84 ****       207.5000  41.5000  15.0000 Du        
     85 ****       207.5000  41.7500  12.0000 Du        
     86 ****       207.5000  41.7500  12.2500 Du        
     87 ****       207.5000  41.7500  12.5000 Du        
     88 ****       207.5000  41.7500  12.7500 Du        
     89 ****       207.5000  41.7500  13.0000 Du        
     90 ****       207.5000  41.7500  13.2500 Du        
     91 ****       207.5000  41.7500  13.5000 Du        
     92 ****       207.5000  41.7500  13.7500 Du        
     93 ****       207.5000  41.7500  14.0000 Du        
     94 ****       207.5000  41.7500  14.2500 Du        
     95 ****       207.5000  41.7500  14.5000 Du        
     96 ****       207.5000  41.7500  14.7500 Du        
     97 ****       207.5000  41.7500  15.0000 Du        
     98 ****       207.5000  41.7500  15.2500 Du        
     99 ****       207.5000  42.0000  12.0000 Du        
    100 ****       207.5000  42.0000  12.2500 Du        
    101 ****       207.5000  42.0000  12.5000 Du        
    102 ****       207.5000  42.0000  12.7500 Du        
    103 ****       207.5000  42.0000  13.0000 Du        
    104 ****       207.5000  42.0000  13.2500 Du        
    105 ****       207.5000  42.0000  13.5000 Du        
    106 ****       207.5000  42.0000  13.7500 Du        
    107 ****       207.5000  42.0000  14.0000 Du        
    108 ****       207.5000  42.0000  14.2500 Du        
    109 ****       207.5000  42.0000  14.5000 Du        
    110 ****       207.5000  42.0000  14.7500 Du        
    111 ****       207.5000  42.0000  15.0000 Du        
    112 ****       207.5000  42.0000  15.2500 Du        
    113 ****       207.5000  42.2500  12.0000 Du        
    114 ****       207.5000  42.2500  12.2500 Du        
    115 ****       207.5000  42.2500  12.5000 Du        
    116 ****       207.5000  42.2500  12.7500 Du        
    117 ****       207.5000  42.2500  13.0000 Du        
    118 ****       207.5000  42.2500  13.2500 Du        
    119 ****       207.5000  42.2500  13.5000 Du        
    120 ****       207.5000  42.2500  13.7500 Du        
    121 ****       207.5000  42.2500  14.0000 Du        
    122 ****       207.5000  42.2500  14.2500 Du        
    123 ****       207.5000  42.2500  14.5000 Du        
    124 ****       207.5000  42.2500  14.7500 Du        
    125 ****       207.5000  42.5000  12.7500 Du        
    126 ****       207.5000  42.5000  13.0000 Du        
    127 ****       207.5000  42.5000  13.2500 Du        
    128 ****       207.5000  42.5000  13.5000 Du        
    129 ****       207.5000  42.5000  13.7500 Du        
    130 ****       207.5000  42.5000  14.0000 Du        
    131 ****       207.5000  42.5000  14.2500 Du        
    132 ****       207.5000  42.5000  14.5000 Du        
    133 ****       207.5000  42.5000  14.7500 Du        
    134 ****       207.5000  42.7500  14.7500 Du        
    135 ****       207.5000  43.0000  14.7500 Du        
    136 ****       207.7500  41.7500  13.5000 Du        
    137 ****       207.7500  41.7500  13.7500 Du        
    138 ****       207.7500  41.7500  14.0000 Du        
    139 ****       207.7500  41.7500  14.2500 Du        
    140 ****       207.7500  41.7500  14.5000 Du        
    141 ****       207.7500  41.7500  14.7500 Du        
    142 ****       207.7500  42.0000  11.7500 Du        
    143 ****       207.7500  42.0000  12.0000 Du        
    144 ****       207.7500  42.0000  12.2500 Du        
    145 ****       207.7500  42.0000  12.5000 Du        
    146 ****       207.7500  42.0000  12.7500 Du        
    147 ****       207.7500  42.0000  13.0000 Du        
    148 ****       207.7500  42.0000  13.2500 Du        
    149 ****       207.7500  42.0000  13.5000 Du        
    150 ****       207.7500  42.0000  13.7500 Du        
    151 ****       207.7500  42.0000  14.0000 Du        
    152 ****       207.7500  42.0000  14.2500 Du        
    153 ****       207.7500  42.0000  14.5000 Du        
    154 ****       207.7500  42.0000  14.7500 Du        
    155 ****       207.7500  42.0000  15.0000 Du        
    156 ****       207.7500  42.2500  11.7500 Du        
    157 ****       207.7500  42.2500  12.0000 Du        
    158 ****       207.7500  42.2500  12.2500 Du        
    159 ****       207.7500  42.2500  12.5000 Du        
    160 ****       207.7500  42.2500  12.7500 Du        
    161 ****       207.7500  42.2500  13.0000 Du        
    162 ****       207.7500  42.2500  13.2500 Du        
    163 ****       207.7500  42.2500  13.5000 Du        
    164 ****       207.7500  42.2500  13.7500 Du        
    165 ****       207.7500  42.2500  14.0000 Du        
    166 ****       207.7500  42.2500  14.2500 Du        
    167 ****       207.7500  42.2500  14.5000 Du        
    168 ****       207.7500  42.2500  14.7500 Du        
    169 ****       207.7500  42.5000  12.0000 Du        
    170 ****       207.7500  42.5000  12.2500 Du        
    171 ****       207.7500  42.5000  12.5000 Du        
    172 ****       207.7500  42.5000  12.7500 Du        
    173 ****       207.7500  42.5000  13.0000 Du        
    174 ****       207.7500  42.5000  13.2500 Du        
    175 ****       207.7500  42.5000  13.5000 Du        
    176 ****       207.7500  42.5000  13.7500 Du        
    177 ****       207.7500  42.5000  14.0000 Du        
    178 ****       207.7500  42.5000  14.2500 Du        
    179 ****       207.7500  42.5000  14.5000 Du        
    180 ****       207.7500  42.5000  14.7500 Du        
    181 ****       207.7500  42.7500  13.0000 Du        
    182 ****       207.7500  42.7500  13.5000 Du        
    183 ****       207.7500  42.7500  13.7500 Du        
    184 ****       207.7500  42.7500  14.0000 Du        
    185 ****       207.7500  42.7500  14.2500 Du        
    186 ****       207.7500  42.7500  14.5000 Du        
    187 ****       207.7500  42.7500  14.7500 Du        
    188 ****       207.7500  43.0000  14.7500 Du        
    189 ****       208.0000  42.0000  11.7500 Du        
    190 ****       208.0000  42.0000  12.0000 Du        
    191 ****       208.0000  42.0000  12.2500 Du        
    192 ****       208.0000  42.0000  12.5000 Du        
    193 ****       208.0000  42.0000  12.7500 Du        
    194 ****       208.0000  42.0000  13.0000 Du        
    195 ****       208.0000  42.0000  13.2500 Du        
    196 ****       208.0000  42.0000  13.5000 Du        
    197 ****       208.0000  42.0000  13.7500 Du        
    198 ****       208.0000  42.0000  14.0000 Du        
    199 ****       208.0000  42.0000  14.2500 Du        
    200 ****       208.0000  42.2500  11.7500 Du        
    201 ****       208.0000  42.2500  12.0000 Du        
    202 ****       208.0000  42.2500  12.2500 Du        
    203 ****       208.0000  42.2500  12.5000 Du        
    204 ****       208.0000  42.2500  12.7500 Du        
    205 ****       208.0000  42.2500  13.0000 Du        
    206 ****       208.0000  42.2500  13.2500 Du        
    207 ****       208.0000  42.2500  13.5000 Du        
    208 ****       208.0000  42.2500  13.7500 Du        
    209 ****       208.0000  42.2500  14.0000 Du        
    210 ****       208.0000  42.2500  14.2500 Du        
    211 ****       208.0000  42.5000  11.7500 Du        
    212 ****       208.0000  42.5000  12.0000 Du        
    213 ****       208.0000  42.5000  12.2500 Du        
    214 ****       208.0000  42.5000  12.5000 Du        
    215 ****       208.0000  42.5000  12.7500 Du        
    216 ****       208.0000  42.5000  13.0000 Du        
    217 ****       208.0000  42.5000  13.2500 Du        
    218 ****       208.0000  42.5000  13.5000 Du        
    219 ****       208.0000  42.5000  13.7500 Du        
    220 ****       208.0000  42.5000  14.0000 Du        
    221 ****       208.0000  42.5000  14.2500 Du        
    222 ****       208.0000  42.7500  12.0000 Du        
    223 ****       208.0000  42.7500  12.2500 Du        
    224 ****       208.0000  42.7500  12.5000 Du        
    225 ****       208.0000  42.7500  12.7500 Du        
    226 ****       208.0000  42.7500  13.0000 Du        
    227 ****       208.0000  42.7500  13.2500 Du        
    228 ****       208.0000  42.7500  13.5000 Du        
    229 ****       208.0000  42.7500  13.7500 Du        
    230 ****       208.0000  42.7500  14.0000 Du        
    231 ****       208.0000  42.7500  14.2500 Du        
    232 ****       208.0000  42.7500  14.5000 Du        
    233 ****       208.0000  42.7500  15.0000 Du        
    234 ****       208.0000  43.0000  13.7500 Du        
    235 ****       208.0000  43.0000  14.0000 Du        
    236 ****       208.0000  43.0000  15.0000 Du        
    237 ****       208.0000  43.2500  15.2500 Du        
    238 ****       208.2500  42.0000  11.7500 Du        
    239 ****       208.2500  42.0000  12.0000 Du        
    240 ****       208.2500  42.2500  11.5000 Du        
    241 ****       208.2500  42.2500  11.7500 Du        
    242 ****       208.2500  42.2500  12.0000 Du        
    243 ****       208.2500  42.2500  12.2500 Du        
    244 ****       208.2500  42.2500  12.5000 Du        
    245 ****       208.2500  42.2500  12.7500 Du        
    246 ****       208.2500  42.2500  13.0000 Du        
    247 ****       208.2500  42.2500  13.2500 Du        
    248 ****       208.2500  42.2500  13.5000 Du        
    249 ****       208.2500  42.2500  13.7500 Du        
    250 ****       208.2500  42.2500  14.0000 Du        
    251 ****       208.2500  42.5000  11.7500 Du        
    252 ****       208.2500  42.5000  12.0000 Du        
    253 ****       208.2500  42.5000  12.2500 Du        
    254 ****       208.2500  42.5000  12.5000 Du        
    255 ****       208.2500  42.5000  12.7500 Du        
    256 ****       208.2500  42.5000  13.0000 Du        
    257 ****       208.2500  42.5000  13.2500 Du        
    258 ****       208.2500  42.5000  13.5000 Du        
    259 ****       208.2500  42.5000  13.7500 Du        
    260 ****       208.2500  42.5000  14.0000 Du        
    261 ****       208.2500  42.7500  11.7500 Du        
    262 ****       208.2500  42.7500  12.0000 Du        
    263 ****       208.2500  42.7500  12.2500 Du        
    264 ****       208.2500  42.7500  12.5000 Du        
    265 ****       208.2500  42.7500  12.7500 Du        
    266 ****       208.2500  42.7500  13.0000 Du        
    267 ****       208.2500  42.7500  13.2500 Du        
    268 ****       208.2500  42.7500  13.5000 Du        
    269 ****       208.2500  42.7500  13.7500 Du        
    270 ****       208.2500  42.7500  14.0000 Du        
    271 ****       208.2500  43.0000  12.0000 Du        
    272 ****       208.2500  43.0000  12.2500 Du        
    273 ****       208.2500  43.0000  12.5000 Du        
    274 ****       208.2500  43.0000  12.7500 Du        
    275 ****       208.2500  43.0000  13.0000 Du        
    276 ****       208.2500  43.0000  13.2500 Du        
    277 ****       208.2500  43.0000  13.5000 Du        
    278 ****       208.2500  43.0000  13.7500 Du        
    279 ****       208.2500  43.0000  14.0000 Du        
    280 ****       208.5000  42.0000  11.5000 Du        
    281 ****       208.5000  42.0000  11.7500 Du        
    282 ****       208.5000  42.0000  12.0000 Du        
    283 ****       208.5000  42.2500  11.5000 Du        
    284 ****       208.5000  42.2500  11.7500 Du        
    285 ****       208.5000  42.2500  12.0000 Du        
    286 ****       208.5000  42.2500  12.2500 Du        
    287 ****       208.5000  42.2500  12.5000 Du        
    288 ****       208.5000  42.2500  12.7500 Du        
    289 ****       208.5000  42.2500  13.0000 Du        
    290 ****       208.5000  42.5000  11.2500 Du        
    291 ****       208.5000  42.5000  11.5000 Du        
    292 ****       208.5000  42.5000  11.7500 Du        
    293 ****       208.5000  42.5000  12.0000 Du        
    294 ****       208.5000  42.5000  12.2500 Du        
    295 ****       208.5000  42.5000  12.5000 Du        
    296 ****       208.5000  42.5000  12.7500 Du        
    297 ****       208.5000  42.5000  13.0000 Du        
    298 ****       208.5000  42.5000  13.2500 Du        
    299 ****       208.5000  42.5000  13.5000 Du        
    300 ****       208.5000  42.7500  11.2500 Du        
    301 ****       208.5000  42.7500  11.5000 Du        
    302 ****       208.5000  42.7500  11.7500 Du        
    303 ****       208.5000  42.7500  12.0000 Du        
    304 ****       208.5000  42.7500  12.2500 Du        
    305 ****       208.5000  42.7500  12.5000 Du        
    306 ****       208.5000  42.7500  12.7500 Du        
    307 ****       208.5000  42.7500  13.0000 Du        
    308 ****       208.5000  42.7500  13.2500 Du        
    309 ****       208.5000  42.7500  13.5000 Du        
    310 ****       208.5000  42.7500  13.7500 Du        
    311 ****       208.5000  43.0000  11.2500 Du        
    312 ****       208.5000  43.0000  11.5000 Du        
    313 ****       208.5000  43.0000  11.7500 Du        
    314 ****       208.5000  43.0000  12.0000 Du        
    315 ****       208.5000  43.0000  12.2500 Du        
    316 ****       208.5000  43.0000  12.5000 Du        
    317 ****       208.5000  43.0000  12.7500 Du        
    318 ****       208.5000  43.0000  13.0000 Du        
    319 ****       208.5000  43.0000  13.2500 Du        
    320 ****       208.5000  43.0000  13.5000 Du        
    321 ****       208.5000  43.2500  11.7500 Du        
    322 ****       208.5000  43.2500  12.0000 Du        
    323 ****       208.5000  43.2500  12.2500 Du        
    324 ****       208.5000  43.2500  12.5000 Du        
    325 ****       208.5000  43.2500  12.7500 Du        
    326 ****       208.5000  43.2500  13.0000 Du        
    327 ****       208.5000  43.2500  13.2500 Du        
    328 ****       208.5000  44.0000  15.5000 Du        
    329 ****       208.5000  44.0000  15.7500 Du        
    330 ****       208.7500  42.0000  11.2500 Du        
    331 ****       208.7500  42.0000  11.5000 Du        
    332 ****       208.7500  42.0000  11.7500 Du        
    333 ****       208.7500  42.2500  11.2500 Du        
    334 ****       208.7500  42.2500  11.5000 Du        
    335 ****       208.7500  42.2500  11.7500 Du        
    336 ****       208.7500  42.2500  12.0000 Du        
    337 ****       208.7500  42.2500  12.2500 Du        
    338 ****       208.7500  42.2500  12.5000 Du        
    339 ****       208.7500  42.2500  12.7500 Du        
    340 ****       208.7500  42.5000  11.2500 Du        
    341 ****       208.7500  42.5000  11.5000 Du        
    342 ****       208.7500  42.5000  11.7500 Du        
    343 ****       208.7500  42.5000  12.0000 Du        
    344 ****       208.7500  42.5000  12.2500 Du        
    345 ****       208.7500  42.5000  12.5000 Du        
    346 ****       208.7500  42.5000  12.7500 Du        
    347 ****       208.7500  42.5000  13.0000 Du        
    348 ****       208.7500  42.7500  11.0000 Du        
    349 ****       208.7500  42.7500  11.2500 Du        
    350 ****       208.7500  42.7500  11.5000 Du        
    351 ****       208.7500  42.7500  11.7500 Du        
    352 ****       208.7500  42.7500  12.0000 Du        
    353 ****       208.7500  42.7500  12.2500 Du        
    354 ****       208.7500  42.7500  12.5000 Du        
    355 ****       208.7500  42.7500  12.7500 Du        
    356 ****       208.7500  42.7500  13.0000 Du        
    357 ****       208.7500  42.7500  13.2500 Du        
    358 ****       208.7500  43.0000  11.0000 Du        
    359 ****       208.7500  43.0000  11.2500 Du        
    360 ****       208.7500  43.0000  11.5000 Du        
    361 ****       208.7500  43.0000  11.7500 Du        
    362 ****       208.7500  43.0000  12.0000 Du        
    363 ****       208.7500  43.0000  12.2500 Du        
    364 ****       208.7500  43.0000  12.5000 Du        
    365 ****       208.7500  43.0000  12.7500 Du        
    366 ****       208.7500  43.0000  13.0000 Du        
    367 ****       208.7500  43.0000  13.2500 Du        
    368 ****       208.7500  43.2500  11.2500 Du        
    369 ****       208.7500  43.2500  11.5000 Du        
    370 ****       208.7500  43.2500  11.7500 Du        
    371 ****       208.7500  43.2500  12.0000 Du        
    372 ****       208.7500  43.2500  12.2500 Du        
    373 ****       208.7500  43.2500  12.5000 Du        
    374 ****       208.7500  43.2500  12.7500 Du        
    375 ****       208.7500  43.2500  13.0000 Du        
    376 ****       208.7500  43.2500  13.2500 Du        
    377 ****       209.0000  42.0000  11.0000 Du        
    378 ****       209.0000  42.0000  11.2500 Du        
    379 ****       209.0000  42.0000  11.5000 Du        
    380 ****       209.0000  42.0000  11.7500 Du        
    381 ****       209.0000  42.2500  11.0000 Du        
    382 ****       209.0000  42.2500  11.2500 Du        
    383 ****       209.0000  42.2500  11.5000 Du        
    384 ****       209.0000  42.2500  11.7500 Du        
    385 ****       209.0000  42.2500  12.0000 Du        
    386 ****       209.0000  42.2500  12.2500 Du        
    387 ****       209.0000  42.5000  11.0000 Du        
    388 ****       209.0000  42.5000  11.2500 Du        
    389 ****       209.0000  42.5000  11.5000 Du        
    390 ****       209.0000  42.5000  11.7500 Du        
    391 ****       209.0000  42.5000  12.0000 Du        
    392 ****       209.0000  42.5000  12.2500 Du        
    393 ****       209.0000  42.5000  12.5000 Du        
    394 ****       209.0000  42.5000  12.7500 Du        
    395 ****       209.0000  42.7500  10.7500 Du        
    396 ****       209.0000  42.7500  11.0000 Du        
    397 ****       209.0000  42.7500  11.2500 Du        
    398 ****       209.0000  42.7500  11.5000 Du        
    399 ****       209.0000  42.7500  11.7500 Du        
    400 ****       209.0000  42.7500  12.0000 Du        
    401 ****       209.0000  42.7500  12.2500 Du        
    402 ****       209.0000  42.7500  12.5000 Du        
    403 ****       209.0000  42.7500  12.7500 Du        
    404 ****       209.0000  42.7500  13.0000 Du        
    405 ****       209.0000  43.0000  10.7500 Du        
    406 ****       209.0000  43.0000  11.0000 Du        
    407 ****       209.0000  43.0000  11.2500 Du        
    408 ****       209.0000  43.0000  11.5000 Du        
    409 ****       209.0000  43.0000  11.7500 Du        
    410 ****       209.0000  43.0000  12.0000 Du        
    411 ****       209.0000  43.0000  12.2500 Du        
    412 ****       209.0000  43.0000  12.5000 Du        
    413 ****       209.0000  43.0000  12.7500 Du        
    414 ****       209.0000  43.0000  13.0000 Du        
    415 ****       209.0000  43.2500  10.7500 Du        
    416 ****       209.0000  43.2500  11.0000 Du        
    417 ****       209.0000  43.2500  11.2500 Du        
    418 ****       209.0000  43.2500  11.5000 Du        
    419 ****       209.0000  43.2500  11.7500 Du        
    420 ****       209.0000  43.2500  12.0000 Du        
    421 ****       209.0000  43.2500  12.2500 Du        
    422 ****       209.0000  43.2500  12.5000 Du        
    423 ****       209.0000  43.2500  12.7500 Du        
    424 ****       209.0000  43.2500  13.0000 Du        
    425 ****       209.0000  43.2500  13.2500 Du        
    426 ****       209.0000  43.5000  11.7500 Du        
    427 ****       209.0000  43.5000  12.0000 Du        
    428 ****       209.0000  43.5000  12.2500 Du        
    429 ****       209.2500  42.0000  11.0000 Du        
    430 ****       209.2500  42.0000  11.2500 Du        
    431 ****       209.2500  42.0000  11.5000 Du        
    432 ****       209.2500  42.2500  10.7500 Du        
    433 ****       209.2500  42.2500  11.0000 Du        
    434 ****       209.2500  42.2500  11.2500 Du        
    435 ****       209.2500  42.2500  11.5000 Du        
    436 ****       209.2500  42.2500  11.7500 Du        
    437 ****       209.2500  42.2500  12.0000 Du        
    438 ****       209.2500  42.5000  10.7500 Du        
    439 ****       209.2500  42.5000  11.0000 Du        
    440 ****       209.2500  42.5000  11.2500 Du        
    441 ****       209.2500  42.5000  11.5000 Du        
    442 ****       209.2500  42.5000  11.7500 Du        
    443 ****       209.2500  42.5000  12.0000 Du        
    444 ****       209.2500  42.5000  12.2500 Du        
    445 ****       209.2500  42.7500  10.7500 Du        
    446 ****       209.2500  42.7500  11.0000 Du        
    447 ****       209.2500  42.7500  11.2500 Du        
    448 ****       209.2500  42.7500  11.5000 Du        
    449 ****       209.2500  42.7500  11.7500 Du        
    450 ****       209.2500  42.7500  12.0000 Du        
    451 ****       209.2500  42.7500  12.2500 Du        
    452 ****       209.2500  42.7500  12.5000 Du        
    453 ****       209.2500  42.7500  12.7500 Du        
    454 ****       209.2500  43.0000  10.7500 Du        
    455 ****       209.2500  43.0000  11.0000 Du        
    456 ****       209.2500  43.0000  11.2500 Du        
    457 ****       209.2500  43.0000  11.5000 Du        
    458 ****       209.2500  43.0000  11.7500 Du        
    459 ****       209.2500  43.0000  12.0000 Du        
    460 ****       209.2500  43.0000  12.2500 Du        
    461 ****       209.2500  43.0000  12.5000 Du        
    462 ****       209.2500  43.0000  12.7500 Du        
    463 ****       209.2500  43.2500  10.7500 Du        
    464 ****       209.2500  43.2500  11.0000 Du        
    465 ****       209.2500  43.2500  11.2500 Du        
    466 ****       209.2500  43.2500  11.5000 Du        
    467 ****       209.2500  43.2500  11.7500 Du        
    468 ****       209.2500  43.2500  12.0000 Du        
    469 ****       209.2500  43.2500  12.2500 Du        
    470 ****       209.2500  43.2500  12.5000 Du        
    471 ****       209.2500  43.2500  12.7500 Du        
    472 ****       209.2500  43.5000  11.7500 Du        
    473 ****       209.2500  43.5000  12.0000 Du        
    474 ****       209.2500  43.5000  12.2500 Du        
    475 ****       209.5000  42.0000  10.7500 Du        
    476 ****       209.5000  42.0000  11.0000 Du        
    477 ****       209.5000  42.0000  11.2500 Du        
    478 ****       209.5000  42.0000  11.5000 Du        
    479 ****       209.5000  42.2500  10.5000 Du        
    480 ****       209.5000  42.2500  10.7500 Du        
    481 ****       209.5000  42.2500  11.0000 Du        
    482 ****       209.5000  42.2500  11.2500 Du        
    483 ****       209.5000  42.2500  11.5000 Du        
    484 ****       209.5000  42.2500  11.7500 Du        
    485 ****       209.5000  42.2500  12.0000 Du        
    486 ****       209.5000  42.5000  10.5000 Du        
    487 ****       209.5000  42.5000  10.7500 Du        
    488 ****       209.5000  42.5000  11.0000 Du        
    489 ****       209.5000  42.5000  11.2500 Du        
    490 ****       209.5000  42.5000  11.5000 Du        
    491 ****       209.5000  42.5000  11.7500 Du        
    492 ****       209.5000  42.5000  12.0000 Du        
    493 ****       209.5000  42.5000  12.2500 Du        
    494 ****       209.5000  42.7500  10.2500 Du        
    495 ****       209.5000  42.7500  10.5000 Du        
    496 ****       209.5000  42.7500  10.7500 Du        
    497 ****       209.5000  42.7500  11.0000 Du        
    498 ****       209.5000  42.7500  11.2500 Du        
    499 ****       209.5000  42.7500  11.5000 Du        
    500 ****       209.5000  42.7500  11.7500 Du        
    501 ****       209.5000  42.7500  12.0000 Du        
    502 ****       209.5000  42.7500  12.2500 Du        
    503 ****       209.5000  43.0000  10.2500 Du        
    504 ****       209.5000  43.0000  10.5000 Du        
    505 ****       209.5000  43.0000  10.7500 Du        
    506 ****       209.5000  43.0000  11.0000 Du        
    507 ****       209.5000  43.0000  11.2500 Du        
    508 ****       209.5000  43.0000  11.5000 Du        
    509 ****       209.5000  43.0000  11.7500 Du        
    510 ****       209.5000  43.0000  12.0000 Du        
    511 ****       209.5000  43.0000  12.2500 Du        
    512 ****       209.5000  43.0000  12.5000 Du        
    513 ****       209.5000  43.2500  10.2500 Du        
    514 ****       209.5000  43.2500  10.5000 Du        
    515 ****       209.5000  43.2500  10.7500 Du        
    516 ****       209.5000  43.2500  11.0000 Du        
    517 ****       209.5000  43.2500  11.2500 Du        
    518 ****       209.5000  43.2500  11.5000 Du        
    519 ****       209.5000  43.2500  11.7500 Du        
    520 ****       209.5000  43.2500  12.0000 Du        
    521 ****       209.5000  43.2500  12.2500 Du        
    522 ****       209.5000  43.2500  12.5000 Du        
    523 ****       209.5000  43.5000  11.0000 Du        
    524 ****       209.5000  43.5000  11.2500 Du        
    525 ****       209.5000  43.5000  11.5000 Du        
    526 ****       209.5000  43.5000  11.7500 Du        
    527 ****       209.5000  43.5000  12.0000 Du        
    528 ****       209.5000  43.5000  12.2500 Du        
    529 ****       209.5000  43.7500  12.0000 Du        
    530 ****       209.7500  41.7500  10.7500 Du        
    531 ****       209.7500  41.7500  11.0000 Du        
    532 ****       209.7500  42.0000  10.2500 Du        
    533 ****       209.7500  42.0000  10.5000 Du        
    534 ****       209.7500  42.0000  10.7500 Du        
    535 ****       209.7500  42.0000  11.0000 Du        
    536 ****       209.7500  42.0000  11.2500 Du        
    537 ****       209.7500  42.2500  10.2500 Du        
    538 ****       209.7500  42.2500  10.5000 Du        
    539 ****       209.7500  42.2500  10.7500 Du        
    540 ****       209.7500  42.2500  11.0000 Du        
    541 ****       209.7500  42.2500  11.2500 Du        
    542 ****       209.7500  42.2500  11.5000 Du        
    543 ****       209.7500  42.2500  11.7500 Du        
    544 ****       209.7500  42.5000  10.2500 Du        
    545 ****       209.7500  42.5000  10.5000 Du        
    546 ****       209.7500  42.5000  10.7500 Du        
    547 ****       209.7500  42.5000  11.0000 Du        
    548 ****       209.7500  42.5000  11.2500 Du        
    549 ****       209.7500  42.5000  11.5000 Du        
    550 ****       209.7500  42.5000  11.7500 Du        
    551 ****       209.7500  42.7500  10.0000 Du        
    552 ****       209.7500  42.7500  10.2500 Du        
    553 ****       209.7500  42.7500  10.5000 Du        
    554 ****       209.7500  42.7500  10.7500 Du        
    555 ****       209.7500  42.7500  11.0000 Du        
    556 ****       209.7500  42.7500  11.2500 Du        
    557 ****       209.7500  42.7500  11.5000 Du        
    558 ****       209.7500  42.7500  11.7500 Du        
    559 ****       209.7500  42.7500  12.0000 Du        
    560 ****       209.7500  43.0000  10.0000 Du        
    561 ****       209.7500  43.0000  10.2500 Du        
    562 ****       209.7500  43.0000  10.5000 Du        
    563 ****       209.7500  43.0000  10.7500 Du        
    564 ****       209.7500  43.0000  11.0000 Du        
    565 ****       209.7500  43.0000  11.2500 Du        
    566 ****       209.7500  43.0000  11.5000 Du        
    567 ****       209.7500  43.0000  11.7500 Du        
    568 ****       209.7500  43.0000  12.0000 Du        
    569 ****       209.7500  43.0000  12.2500 Du        
    570 ****       209.7500  43.2500  10.0000 Du        
    571 ****       209.7500  43.2500  10.2500 Du        
    572 ****       209.7500  43.2500  10.5000 Du        
    573 ****       209.7500  43.2500  10.7500 Du        
    574 ****       209.7500  43.2500  11.0000 Du        
    575 ****       209.7500  43.2500  11.2500 Du        
    576 ****       209.7500  43.2500  11.5000 Du        
    577 ****       209.7500  43.2500  11.7500 Du        
    578 ****       209.7500  43.2500  12.0000 Du        
    579 ****       209.7500  43.2500  12.2500 Du        
    580 ****       209.7500  43.5000  10.7500 Du        
    581 ****       209.7500  43.5000  11.0000 Du        
    582 ****       209.7500  43.5000  11.2500 Du        
    583 ****       209.7500  43.5000  11.5000 Du        
    584 ****       209.7500  43.5000  11.7500 Du        
    585 ****       209.7500  43.5000  12.0000 Du        
    586 ****       209.7500  43.7500  11.5000 Du        
    587 ****       209.7500  43.7500  11.7500 Du        
    588 ****       209.7500  43.7500  12.0000 Du        
    589 ****       210.0000  41.7500  10.5000 Du        
    590 ****       210.0000  41.7500  10.7500 Du        
    591 ****       210.0000  41.7500  11.0000 Du        
    592 ****       210.0000  42.0000  10.0000 Du        
    593 ****       210.0000  42.0000  10.2500 Du        
    594 ****       210.0000  42.0000  10.5000 Du        
    595 ****       210.0000  42.0000  10.7500 Du        
    596 ****       210.0000  42.0000  11.0000 Du        
    597 ****       210.0000  42.0000  11.2500 Du        
    598 ****       210.0000  42.2500  10.0000 Du        
    599 ****       210.0000  42.2500  10.2500 Du        
    600 ****       210.0000  42.2500  10.5000 Du        
    601 ****       210.0000  42.2500  10.7500 Du        
    602 ****       210.0000  42.2500  11.0000 Du        
    603 ****       210.0000  42.2500  11.2500 Du        
    604 ****       210.0000  42.2500  11.5000 Du        
    605 ****       210.0000  42.5000  10.0000 Du        
    606 ****       210.0000  42.5000  10.2500 Du        
    607 ****       210.0000  42.5000  10.5000 Du        
    608 ****       210.0000  42.5000  10.7500 Du        
    609 ****       210.0000  42.5000  11.0000 Du        
    610 ****       210.0000  42.5000  11.2500 Du        
    611 ****       210.0000  42.5000  11.5000 Du        
    612 ****       210.0000  42.7500  10.0000 Du        
    613 ****       210.0000  42.7500  10.2500 Du        
    614 ****       210.0000  42.7500  10.5000 Du        
    615 ****       210.0000  42.7500  10.7500 Du        
    616 ****       210.0000  42.7500  11.0000 Du        
    617 ****       210.0000  42.7500  11.2500 Du        
    618 ****       210.0000  42.7500  11.5000 Du        
    619 ****       210.0000  43.0000  10.0000 Du        
    620 ****       210.0000  43.0000  10.2500 Du        
    621 ****       210.0000  43.0000  10.5000 Du        
    622 ****       210.0000  43.0000  10.7500 Du        
    623 ****       210.0000  43.0000  11.0000 Du        
    624 ****       210.0000  43.0000  11.2500 Du        
    625 ****       210.0000  43.0000  11.5000 Du        
    626 ****       210.0000  43.0000  11.7500 Du        
    627 ****       210.0000  43.2500  10.0000 Du        
    628 ****       210.0000  43.2500  10.2500 Du        
    629 ****       210.0000  43.2500  10.5000 Du        
    630 ****       210.0000  43.2500  10.7500 Du        
    631 ****       210.0000  43.2500  11.0000 Du        
    632 ****       210.0000  43.2500  11.2500 Du        
    633 ****       210.0000  43.2500  11.5000 Du        
    634 ****       210.0000  43.2500  11.7500 Du        
    635 ****       210.0000  43.5000  10.5000 Du        
    636 ****       210.0000  43.5000  10.7500 Du        
    637 ****       210.0000  43.5000  11.0000 Du        
    638 ****       210.0000  43.5000  11.2500 Du        
    639 ****       210.0000  43.5000  11.5000 Du        
    640 ****       210.2500  41.7500  10.0000 Du        
    641 ****       210.2500  41.7500  10.2500 Du        
    642 ****       210.2500  41.7500  10.5000 Du        
    643 ****       210.2500  41.7500  10.7500 Du        
    644 ****       210.2500  42.0000   9.7500 Du        
    645 ****       210.2500  42.0000  10.0000 Du        
    646 ****       210.2500  42.0000  10.2500 Du        
    647 ****       210.2500  42.0000  10.5000 Du        
    648 ****       210.2500  42.0000  10.7500 Du        
    649 ****       210.2500  42.0000  11.0000 Du        
    650 ****       210.2500  42.2500   9.7500 Du        
    651 ****       210.2500  42.2500  10.0000 Du        
    652 ****       210.2500  42.2500  10.2500 Du        
    653 ****       210.2500  42.2500  10.5000 Du        
    654 ****       210.2500  42.2500  10.7500 Du        
    655 ****       210.2500  42.2500  11.0000 Du        
    656 ****       210.2500  42.5000   9.7500 Du        
    657 ****       210.2500  42.5000  10.0000 Du        
    658 ****       210.2500  42.5000  10.2500 Du        
    659 ****       210.2500  42.5000  10.5000 Du        
    660 ****       210.2500  42.5000  10.7500 Du        
    661 ****       210.2500  42.5000  11.0000 Du        
    662 ****       210.2500  42.7500   9.7500 Du        
    663 ****       210.2500  42.7500  10.0000 Du        
    664 ****       210.2500  42.7500  10.2500 Du        
    665 ****       210.2500  42.7500  10.5000 Du        
    666 ****       210.2500  42.7500  10.7500 Du        
    667 ****       210.2500  42.7500  11.0000 Du        
    668 ****       210.2500  42.7500  11.2500 Du        
    669 ****       210.2500  43.0000   9.7500 Du        
    670 ****       210.2500  43.0000  10.0000 Du        
    671 ****       210.2500  43.0000  10.2500 Du        
    672 ****       210.2500  43.0000  10.5000 Du        
    673 ****       210.2500  43.0000  10.7500 Du        
    674 ****       210.2500  43.0000  11.0000 Du        
    675 ****       210.2500  43.0000  11.2500 Du        
    676 ****       210.2500  43.2500   9.7500 Du        
    677 ****       210.2500  43.2500  10.0000 Du        
    678 ****       210.2500  43.2500  10.2500 Du        
    679 ****       210.2500  43.2500  10.5000 Du        
    680 ****       210.2500  43.2500  10.7500 Du        
    681 ****       210.2500  43.2500  11.0000 Du        
    682 ****       210.2500  43.2500  11.2500 Du        
    683 ****       210.2500  43.5000  10.2500 Du        
    684 ****       210.2500  43.5000  10.5000 Du        
    685 ****       210.2500  43.5000  10.7500 Du        
    686 ****       210.2500  43.5000  11.0000 Du        
    687 ****       210.5000  41.7500   9.7500 Du        
    688 ****       210.5000  41.7500  10.0000 Du        
    689 ****       210.5000  41.7500  10.2500 Du        
    690 ****       210.5000  41.7500  10.5000 Du        
    691 ****       210.5000  42.0000   9.7500 Du        
    692 ****       210.5000  42.0000  10.0000 Du        
    693 ****       210.5000  42.0000  10.2500 Du        
    694 ****       210.5000  42.0000  10.5000 Du        
    695 ****       210.5000  42.0000  10.7500 Du        
    696 ****       210.5000  42.2500   9.5000 Du        
    697 ****       210.5000  42.2500   9.7500 Du        
    698 ****       210.5000  42.2500  10.0000 Du        
    699 ****       210.5000  42.2500  10.2500 Du        
    700 ****       210.5000  42.2500  10.5000 Du        
    701 ****       210.5000  42.2500  10.7500 Du        
    702 ****       210.5000  42.5000   9.5000 Du        
    703 ****       210.5000  42.5000   9.7500 Du        
    704 ****       210.5000  42.5000  10.0000 Du        
    705 ****       210.5000  42.5000  10.2500 Du        
    706 ****       210.5000  42.5000  10.5000 Du        
    707 ****       210.5000  42.5000  10.7500 Du        
    708 ****       210.5000  42.7500   9.5000 Du        
    709 ****       210.5000  42.7500   9.7500 Du        
    710 ****       210.5000  42.7500  10.0000 Du        
    711 ****       210.5000  42.7500  10.2500 Du        
    712 ****       210.5000  42.7500  10.5000 Du        
    713 ****       210.5000  42.7500  10.7500 Du        
    714 ****       210.5000  43.0000   9.7500 Du        
    715 ****       210.5000  43.0000  10.0000 Du        
    716 ****       210.5000  43.0000  10.2500 Du        
    717 ****       210.5000  43.0000  10.5000 Du        
    718 ****       210.5000  43.0000  10.7500 Du        
    719 ****       210.5000  43.0000  11.0000 Du        
    720 ****       210.5000  43.2500   9.7500 Du        
    721 ****       210.5000  43.2500  10.0000 Du        
    722 ****       210.5000  43.2500  10.2500 Du        
    723 ****       210.5000  43.2500  10.5000 Du        
    724 ****       210.5000  43.2500  10.7500 Du        
    725 ****       210.5000  43.2500  11.0000 Du        
    726 ****       210.5000  43.5000  10.0000 Du        
    727 ****       210.5000  43.5000  10.2500 Du        
    728 ****       210.7500  41.7500   9.7500 Du        
    729 ****       210.7500  41.7500  10.0000 Du        
    730 ****       210.7500  41.7500  10.2500 Du        
    731 ****       210.7500  42.0000   9.5000 Du        
    732 ****       210.7500  42.0000   9.7500 Du        
    733 ****       210.7500  42.0000  10.0000 Du        
    734 ****       210.7500  42.0000  10.2500 Du        
    735 ****       210.7500  42.2500   9.5000 Du        
    736 ****       210.7500  42.2500   9.7500 Du        
    737 ****       210.7500  42.2500  10.0000 Du        
    738 ****       210.7500  42.2500  10.2500 Du        
    739 ****       210.7500  42.2500  10.5000 Du        
    740 ****       210.7500  42.5000   9.5000 Du        
    741 ****       210.7500  42.5000   9.7500 Du        
    742 ****       210.7500  42.5000  10.0000 Du        
    743 ****       210.7500  42.5000  10.2500 Du        
    744 ****       210.7500  42.5000  10.5000 Du        
    745 ****       210.7500  42.7500   9.5000 Du        
    746 ****       210.7500  42.7500   9.7500 Du        
    747 ****       210.7500  42.7500  10.0000 Du        
    748 ****       210.7500  42.7500  10.2500 Du        
    749 ****       210.7500  42.7500  10.5000 Du        
    750 ****       210.7500  43.0000   9.5000 Du        
    751 ****       210.7500  43.0000   9.7500 Du        
    752 ****       210.7500  43.0000  10.0000 Du        
    753 ****       210.7500  43.0000  10.2500 Du        
    754 ****       210.7500  43.0000  10.5000 Du        
    755 ****       210.7500  43.0000  10.7500 Du        
    756 ****       210.7500  43.2500   9.5000 Du        
    757 ****       210.7500  43.2500   9.7500 Du        
    758 ****       210.7500  43.2500  10.0000 Du        
    759 ****       210.7500  43.2500  10.2500 Du        
    760 ****       210.7500  43.2500  10.5000 Du        
    761 ****       210.7500  43.2500  10.7500 Du        
    762 ****       210.7500  43.5000  10.0000 Du        
    763 ****       210.7500  43.5000  10.2500 Du        
    764 ****       211.0000  42.0000   9.5000 Du        
    765 ****       211.0000  42.0000   9.7500 Du        
    766 ****       211.0000  42.0000  10.0000 Du        
    767 ****       211.0000  42.2500   9.2500 Du        
    768 ****       211.0000  42.2500   9.5000 Du        
    769 ****       211.0000  42.2500   9.7500 Du        
    770 ****       211.0000  42.2500  10.0000 Du        
    771 ****       211.0000  42.2500  10.2500 Du        
    772 ****       211.0000  42.5000   9.2500 Du        
    773 ****       211.0000  42.5000   9.5000 Du        
    774 ****       211.0000  42.5000   9.7500 Du        
    775 ****       211.0000  42.5000  10.0000 Du        
    776 ****       211.0000  42.5000  10.2500 Du        
    777 ****       211.0000  42.7500   9.2500 Du        
    778 ****       211.0000  42.7500   9.5000 Du        
    779 ****       211.0000  42.7500   9.7500 Du        
    780 ****       211.0000  42.7500  10.0000 Du        
    781 ****       211.0000  42.7500  10.2500 Du        
    782 ****       211.0000  43.0000   9.2500 Du        
    783 ****       211.0000  43.0000   9.5000 Du        
    784 ****       211.0000  43.0000   9.7500 Du        
    785 ****       211.0000  43.0000  10.0000 Du        
    786 ****       211.0000  43.0000  10.2500 Du        
    787 ****       211.0000  43.0000  10.5000 Du        
    788 ****       211.0000  43.2500   9.2500 Du        
    789 ****       211.0000  43.2500   9.5000 Du        
    790 ****       211.0000  43.2500   9.7500 Du        
    791 ****       211.0000  43.2500  10.0000 Du        
    792 ****       211.0000  43.2500  10.2500 Du        
    793 ****       211.0000  43.2500  10.5000 Du        
    794 ****       211.0000  43.5000  10.0000 Du        
    795 ****       211.2500  42.2500   9.5000 Du        
    796 ****       211.2500  42.2500   9.7500 Du        
    797 ****       211.2500  42.5000   9.2500 Du        
    798 ****       211.2500  42.5000   9.5000 Du        
    799 ****       211.2500  42.5000   9.7500 Du        
    800 ****       211.2500  42.5000  10.0000 Du        
    801 ****       211.2500  42.7500   9.0000 Du        
    802 ****       211.2500  42.7500   9.2500 Du        
    803 ****       211.2500  42.7500   9.5000 Du        
    804 ****       211.2500  42.7500   9.7500 Du        
    805 ****       211.2500  42.7500  10.0000 Du        
    806 ****       211.2500  43.0000   9.0000 Du        
    807 ****       211.2500  43.0000   9.2500 Du        
    808 ****       211.2500  43.0000   9.5000 Du        
    809 ****       211.2500  43.0000   9.7500 Du        
    810 ****       211.2500  43.0000  10.0000 Du        
    811 ****       211.2500  43.0000  10.2500 Du        
    812 ****       211.2500  43.2500   9.0000 Du        
    813 ****       211.2500  43.2500   9.2500 Du        
    814 ****       211.2500  43.2500   9.5000 Du        
    815 ****       211.2500  43.2500   9.7500 Du        
    816 ****       211.2500  43.2500  10.0000 Du        
    817 ****       211.2500  43.2500  10.2500 Du        
    818 ****       211.5000  42.7500   9.0000 Du        
    819 ****       211.5000  42.7500   9.2500 Du        
    820 ****       211.5000  42.7500   9.5000 Du        
    821 ****       211.5000  42.7500   9.7500 Du        
    822 ****       211.5000  43.0000   9.0000 Du        
    823 ****       211.5000  43.0000   9.2500 Du        
    824 ****       211.5000  43.0000   9.5000 Du        
    825 ****       211.5000  43.0000   9.7500 Du        
    826 ****       211.5000  43.2500   9.0000 Du        
    827 ****       211.5000  43.2500   9.2500 Du        
    828 ****       211.5000  43.2500   9.5000 Du        
    829 ****       211.5000  43.2500   9.7500 Du        
    830 ****       211.5000  43.2500  10.0000 Du        
    831 ****       211.7500  43.0000   9.0000 Du        
    832 ****       211.7500  43.0000   9.2500 Du        
    833 ****       211.7500  43.2500   9.0000 Du        
    834 ****       211.7500  43.2500   9.2500 Du        
    835 ****       211.7500  43.2500   9.5000 Du        
    836 ****       211.7500  43.2500   9.7500 Du        
    837 ****       214.5000  38.5000   2.0000 Du        
    838 ****       214.5000  38.7500   2.0000 Du        
    839 ****       214.5000  38.7500   2.2500 Du        
    840 ****       214.5000  39.0000   2.0000 Du        
    841 ****       214.5000  39.0000   2.2500 Du        
    842 ****       214.5000  39.0000   2.5000 Du        
    843 ****       214.5000  39.2500   2.0000 Du        
    844 ****       214.5000  39.2500   2.2500 Du        
    845 ****       214.5000  39.2500   2.5000 Du        
    846 ****       214.5000  39.5000   2.0000 Du        
    847 ****       214.5000  39.5000   2.2500 Du        
    848 ****       214.5000  39.5000   2.5000 Du        
    849 ****       214.5000  39.7500   2.0000 Du        
    850 ****       214.5000  39.7500   2.2500 Du        
    851 ****       214.5000  39.7500   2.5000 Du        
    852 ****       214.5000  40.0000   2.2500 Du        
    853 ****       214.7500  38.7500   2.0000 Du        
    854 ****       214.7500  38.7500   2.2500 Du        
    855 ****       214.7500  39.0000   2.0000 Du        
    856 ****       214.7500  39.0000   2.2500 Du        
    857 ****       214.7500  39.0000   2.5000 Du        
    858 ****       214.7500  39.2500   2.0000 Du        
    859 ****       214.7500  39.2500   2.2500 Du        
    860 ****       214.7500  39.2500   2.5000 Du        
    861 ****       214.7500  39.5000   2.0000 Du        
    862 ****       214.7500  39.5000   2.2500 Du        
    863 ****       214.7500  39.5000   2.5000 Du        
    864 ****       214.7500  39.5000   2.7500 Du        
    865 ****       214.7500  39.7500   2.0000 Du        
    866 ****       214.7500  39.7500   2.2500 Du        
    867 ****       214.7500  39.7500   2.5000 Du        
    868 ****       214.7500  39.7500   2.7500 Du        
    869 ****       214.7500  40.0000   2.2500 Du        
    870 ****       214.7500  40.0000   2.5000 Du        
    871 ****       214.7500  40.0000   2.7500 Du        
    872 ****       215.0000  38.7500   2.0000 Du        
    873 ****       215.0000  38.7500   2.2500 Du        
    874 ****       215.0000  39.0000   2.0000 Du        
    875 ****       215.0000  39.0000   2.2500 Du        
    876 ****       215.0000  39.0000   2.5000 Du        
    877 ****       215.0000  39.2500   2.0000 Du        
    878 ****       215.0000  39.2500   2.2500 Du        
    879 ****       215.0000  39.2500   2.5000 Du        
    880 ****       215.0000  39.2500   2.7500 Du        
    881 ****       215.0000  39.5000   2.0000 Du        
    882 ****       215.0000  39.5000   2.2500 Du        
    883 ****       215.0000  39.5000   2.5000 Du        
    884 ****       215.0000  39.5000   2.7500 Du        
    885 ****       215.0000  39.7500   2.0000 Du        
    886 ****       215.0000  39.7500   2.2500 Du        
    887 ****       215.0000  39.7500   2.5000 Du        
    888 ****       215.0000  39.7500   2.7500 Du        
    889 ****       215.0000  40.0000   2.0000 Du        
    890 ****       215.0000  40.0000   2.2500 Du        
    891 ****       215.0000  40.0000   2.5000 Du        
    892 ****       215.0000  40.0000   2.7500 Du        
    893 ****       215.0000  42.2500   7.2500 Du        
    894 ****       215.0000  42.2500   7.5000 Du        
    895 ****       215.0000  42.2500   7.7500 Du        
    896 ****       215.2500  38.7500   2.0000 Du        
    897 ****       215.2500  39.0000   2.0000 Du        
    898 ****       215.2500  39.0000   2.2500 Du        
    899 ****       215.2500  39.0000   2.5000 Du        
    900 ****       215.2500  39.2500   2.0000 Du        
    901 ****       215.2500  39.2500   2.2500 Du        
    902 ****       215.2500  39.2500   2.5000 Du        
    903 ****       215.2500  39.2500   2.7500 Du        
    904 ****       215.2500  39.5000   2.0000 Du        
    905 ****       215.2500  39.5000   2.2500 Du        
    906 ****       215.2500  39.5000   2.5000 Du        
    907 ****       215.2500  39.5000   2.7500 Du        
    908 ****       215.2500  39.7500   2.0000 Du        
    909 ****       215.2500  39.7500   2.2500 Du        
    910 ****       215.2500  39.7500   2.5000 Du        
    911 ****       215.2500  39.7500   2.7500 Du        
    912 ****       215.2500  39.7500   3.0000 Du        
    913 ****       215.2500  40.0000   2.0000 Du        
    914 ****       215.2500  40.0000   2.2500 Du        
    915 ****       215.2500  40.0000   2.5000 Du        
    916 ****       215.2500  40.0000   2.7500 Du        
    917 ****       215.2500  40.0000   3.0000 Du        
    918 ****       215.2500  40.2500   2.5000 Du        
    919 ****       215.2500  40.2500   2.7500 Du        
    920 ****       215.2500  40.2500   3.0000 Du        
    921 ****       215.2500  42.0000   7.2500 Du        
    922 ****       215.2500  42.0000   7.5000 Du        
    923 ****       215.2500  42.2500   7.0000 Du        
    924 ****       215.2500  42.2500   7.2500 Du        
    925 ****       215.2500  42.2500   7.5000 Du        
    926 ****       215.2500  42.2500   7.7500 Du        
    927 ****       215.5000  38.7500   2.0000 Du        
    928 ****       215.5000  39.0000   2.0000 Du        
    929 ****       215.5000  39.0000   2.2500 Du        
    930 ****       215.5000  39.0000   2.5000 Du        
    931 ****       215.5000  39.2500   2.0000 Du        
    932 ****       215.5000  39.2500   2.2500 Du        
    933 ****       215.5000  39.2500   2.5000 Du        
    934 ****       215.5000  39.2500   2.7500 Du        
    935 ****       215.5000  39.5000   2.0000 Du        
    936 ****       215.5000  39.5000   2.2500 Du        
    937 ****       215.5000  39.5000   2.5000 Du        
    938 ****       215.5000  39.5000   2.7500 Du        
    939 ****       215.5000  39.5000   3.0000 Du        
    940 ****       215.5000  39.7500   2.0000 Du        
    941 ****       215.5000  39.7500   2.2500 Du        
    942 ****       215.5000  39.7500   2.5000 Du        
    943 ****       215.5000  39.7500   2.7500 Du        
    944 ****       215.5000  39.7500   3.0000 Du        
    945 ****       215.5000  40.0000   2.0000 Du        
    946 ****       215.5000  40.0000   2.2500 Du        
    947 ****       215.5000  40.0000   2.5000 Du        
    948 ****       215.5000  40.0000   2.7500 Du        
    949 ****       215.5000  40.0000   3.0000 Du        
    950 ****       215.5000  40.0000   3.2500 Du        
    951 ****       215.5000  40.2500   2.7500 Du        
    952 ****       215.5000  40.2500   3.0000 Du        
    953 ****       215.5000  40.2500   3.2500 Du        
    954 ****       215.5000  42.0000   7.0000 Du        
    955 ****       215.5000  42.0000   7.2500 Du        
    956 ****       215.5000  42.0000   7.5000 Du        
    957 ****       215.5000  42.2500   7.0000 Du        
    958 ****       215.5000  42.2500   7.2500 Du        
    959 ****       215.5000  42.2500   7.5000 Du        
    960 ****       215.5000  42.2500   7.7500 Du        
    961 ****       215.5000  42.5000   7.5000 Du        
    962 ****       215.5000  42.5000   7.7500 Du        
    963 ****       215.7500  39.0000   2.0000 Du        
    964 ****       215.7500  39.0000   2.2500 Du        
    965 ****       215.7500  39.0000   2.5000 Du        
    966 ****       215.7500  39.2500   2.0000 Du        
    967 ****       215.7500  39.2500   2.2500 Du        
    968 ****       215.7500  39.2500   2.5000 Du        
    969 ****       215.7500  39.2500   2.7500 Du        
    970 ****       215.7500  39.2500   3.0000 Du        
    971 ****       215.7500  39.5000   2.0000 Du        
    972 ****       215.7500  39.5000   2.2500 Du        
    973 ****       215.7500  39.5000   2.5000 Du        
    974 ****       215.7500  39.5000   2.7500 Du        
    975 ****       215.7500  39.5000   3.0000 Du        
    976 ****       215.7500  39.7500   2.0000 Du        
    977 ****       215.7500  39.7500   2.2500 Du        
    978 ****       215.7500  39.7500   2.5000 Du        
    979 ****       215.7500  39.7500   2.7500 Du        
    980 ****       215.7500  39.7500   3.0000 Du        
    981 ****       215.7500  39.7500   3.2500 Du        
    982 ****       215.7500  40.0000   2.0000 Du        
    983 ****       215.7500  40.0000   2.2500 Du        
    984 ****       215.7500  40.0000   2.5000 Du        
    985 ****       215.7500  40.0000   2.7500 Du        
    986 ****       215.7500  40.0000   3.0000 Du        
    987 ****       215.7500  40.0000   3.2500 Du        
    988 ****       215.7500  40.0000   3.5000 Du        
    989 ****       215.7500  40.2500   2.5000 Du        
    990 ****       215.7500  40.2500   2.7500 Du        
    991 ****       215.7500  40.2500   3.0000 Du        
    992 ****       215.7500  40.2500   3.2500 Du        
    993 ****       215.7500  40.2500   3.5000 Du        
    994 ****       215.7500  41.7500   7.0000 Du        
    995 ****       215.7500  41.7500   7.2500 Du        
    996 ****       215.7500  41.7500   7.5000 Du        
    997 ****       215.7500  42.0000   6.7500 Du        
    998 ****       215.7500  42.0000   7.0000 Du        
    999 ****       215.7500  42.0000   7.2500 Du        
   1000 ****       215.7500  42.0000   7.5000 Du        
   1001 ****       215.7500  42.2500   6.7500 Du        
   1002 ****       215.7500  42.2500   7.0000 Du        
   1003 ****       215.7500  42.2500   7.2500 Du        
   1004 ****       215.7500  42.2500   7.5000 Du        
   1005 ****       215.7500  42.2500   7.7500 Du        
   1006 ****       215.7500  42.5000   7.5000 Du        
   1007 ****       215.7500  42.5000   7.7500 Du        
   1008 ****       215.7500  44.7500  12.2500 Du        
   1009 ****       215.7500  45.0000  12.2500 Du        
   1010 ****       216.0000  39.2500   2.2500 Du        
   1011 ****       216.0000  39.2500   2.5000 Du        
   1012 ****       216.0000  39.2500   2.7500 Du        
   1013 ****       216.0000  39.2500   3.0000 Du        
   1014 ****       216.0000  39.5000   2.0000 Du        
   1015 ****       216.0000  39.5000   2.2500 Du        
   1016 ****       216.0000  39.5000   2.5000 Du        
   1017 ****       216.0000  39.5000   2.7500 Du        
   1018 ****       216.0000  39.5000   3.0000 Du        
   1019 ****       216.0000  39.5000   3.2500 Du        
   1020 ****       216.0000  39.7500   2.0000 Du        
   1021 ****       216.0000  39.7500   2.2500 Du        
   1022 ****       216.0000  39.7500   2.5000 Du        
   1023 ****       216.0000  39.7500   2.7500 Du        
   1024 ****       216.0000  39.7500   3.0000 Du        
   1025 ****       216.0000  39.7500   3.2500 Du        
   1026 ****       216.0000  39.7500   3.5000 Du        
   1027 ****       216.0000  40.0000   2.2500 Du        
   1028 ****       216.0000  40.0000   2.5000 Du        
   1029 ****       216.0000  40.0000   2.7500 Du        
   1030 ****       216.0000  40.0000   3.0000 Du        
   1031 ****       216.0000  40.0000   3.2500 Du        
   1032 ****       216.0000  40.0000   3.5000 Du        
   1033 ****       216.0000  40.2500   2.5000 Du        
   1034 ****       216.0000  40.2500   2.7500 Du        
   1035 ****       216.0000  40.2500   3.0000 Du        
   1036 ****       216.0000  40.2500   3.2500 Du        
   1037 ****       216.0000  40.2500   3.5000 Du        
   1038 ****       216.0000  40.2500   3.7500 Du        
   1039 ****       216.0000  41.7500   6.7500 Du        
   1040 ****       216.0000  41.7500   7.0000 Du        
   1041 ****       216.0000  41.7500   7.2500 Du        
   1042 ****       216.0000  42.0000   6.5000 Du        
   1043 ****       216.0000  42.0000   6.7500 Du        
   1044 ****       216.0000  42.0000   7.0000 Du        
   1045 ****       216.0000  42.0000   7.2500 Du        
   1046 ****       216.0000  42.0000   7.5000 Du        
   1047 ****       216.0000  42.2500   6.7500 Du        
   1048 ****       216.0000  42.2500   7.0000 Du        
   1049 ****       216.0000  42.2500   7.2500 Du        
   1050 ****       216.0000  42.2500   7.5000 Du        
   1051 ****       216.0000  42.5000   7.5000 Du        
   1052 ****       216.0000  43.7500  14.0000 Du        
   1053 ****       216.0000  44.2500  13.0000 Du        
   1054 ****       216.0000  44.2500  13.2500 Du        
   1055 ****       216.0000  44.5000  12.7500 Du        
   1056 ****       216.0000  44.5000  13.0000 Du        
   1057 ****       216.0000  44.7500  12.0000 Du        
   1058 ****       216.0000  44.7500  12.2500 Du        
   1059 ****       216.0000  44.7500  12.5000 Du        
   1060 ****       216.0000  44.7500  12.7500 Du        
   1061 ****       216.0000  44.7500  13.0000 Du        
   1062 ****       216.0000  45.0000  12.0000 Du        
   1063 ****       216.0000  45.0000  12.2500 Du        
   1064 ****       216.0000  45.0000  12.5000 Du        
   1065 ****       216.2500  39.5000   2.7500 Du        
   1066 ****       216.2500  39.5000   3.0000 Du        
   1067 ****       216.2500  39.5000   3.2500 Du        
   1068 ****       216.2500  39.7500   2.5000 Du        
   1069 ****       216.2500  39.7500   2.7500 Du        
   1070 ****       216.2500  39.7500   3.0000 Du        
   1071 ****       216.2500  39.7500   3.2500 Du        
   1072 ****       216.2500  39.7500   3.5000 Du        
   1073 ****       216.2500  39.7500   3.7500 Du        
   1074 ****       216.2500  40.0000   2.5000 Du        
   1075 ****       216.2500  40.0000   2.7500 Du        
   1076 ****       216.2500  40.0000   3.0000 Du        
   1077 ****       216.2500  40.0000   3.2500 Du        
   1078 ****       216.2500  40.0000   3.5000 Du        
   1079 ****       216.2500  40.0000   3.7500 Du        
   1080 ****       216.2500  40.0000   4.0000 Du        
   1081 ****       216.2500  40.2500   2.7500 Du        
   1082 ****       216.2500  40.2500   3.0000 Du        
   1083 ****       216.2500  40.2500   3.2500 Du        
   1084 ****       216.2500  40.2500   3.5000 Du        
   1085 ****       216.2500  40.2500   3.7500 Du        
   1086 ****       216.2500  40.2500   4.0000 Du        
   1087 ****       216.2500  40.2500   4.2500 Du        
   1088 ****       216.2500  40.7500   4.0000 Du        
   1089 ****       216.2500  40.7500   4.5000 Du        
   1090 ****       216.2500  40.7500   4.7500 Du        
   1091 ****       216.2500  41.0000   4.5000 Du        
   1092 ****       216.2500  41.0000   4.7500 Du        
   1093 ****       216.2500  41.0000   5.0000 Du        
   1094 ****       216.2500  41.2500   4.7500 Du        
   1095 ****       216.2500  41.2500   5.0000 Du        
   1096 ****       216.2500  42.0000   7.0000 Du        
   1097 ****       216.2500  42.0000   7.2500 Du        
   1098 ****       216.2500  42.2500   7.0000 Du        
   1099 ****       216.2500  42.2500   7.2500 Du        
   1100 ****       216.2500  42.2500   7.5000 Du        
   1101 ****       216.2500  42.5000   7.5000 Du        
   1102 ****       216.2500  44.0000  13.5000 Du        
   1103 ****       216.2500  44.2500  12.5000 Du        
   1104 ****       216.2500  44.2500  12.7500 Du        
   1105 ****       216.2500  44.2500  13.0000 Du        
   1106 ****       216.2500  44.2500  13.2500 Du        
   1107 ****       216.2500  44.2500  13.5000 Du        
   1108 ****       216.2500  44.5000  12.0000 Du        
   1109 ****       216.2500  44.5000  12.2500 Du        
   1110 ****       216.2500  44.5000  12.5000 Du        
   1111 ****       216.2500  44.5000  12.7500 Du        
   1112 ****       216.2500  44.5000  13.0000 Du        
   1113 ****       216.2500  44.7500  12.0000 Du        
   1114 ****       216.2500  44.7500  12.2500 Du        
   1115 ****       216.2500  44.7500  12.5000 Du        
   1116 ****       216.2500  44.7500  12.7500 Du        
   1117 ****       216.2500  44.7500  13.0000 Du        
   1118 ****       216.2500  45.0000  12.0000 Du        
   1119 ****       216.2500  45.0000  12.2500 Du        
   1120 ****       216.5000  39.5000   3.5000 Du        
   1121 ****       216.5000  39.7500   3.2500 Du        
   1122 ****       216.5000  39.7500   3.5000 Du        
   1123 ****       216.5000  39.7500   3.7500 Du        
   1124 ****       216.5000  39.7500   4.0000 Du        
   1125 ****       216.5000  40.0000   3.0000 Du        
   1126 ****       216.5000  40.0000   3.2500 Du        
   1127 ****       216.5000  40.0000   3.5000 Du        
   1128 ****       216.5000  40.0000   3.7500 Du        
   1129 ****       216.5000  40.0000   4.0000 Du        
   1130 ****       216.5000  40.0000   4.2500 Du        
   1131 ****       216.5000  40.2500   2.7500 Du        
   1132 ****       216.5000  40.2500   3.0000 Du        
   1133 ****       216.5000  40.2500   3.2500 Du        
   1134 ****       216.5000  40.2500   3.5000 Du        
   1135 ****       216.5000  40.2500   3.7500 Du        
   1136 ****       216.5000  40.2500   4.0000 Du        
   1137 ****       216.5000  40.2500   4.2500 Du        
   1138 ****       216.5000  40.2500   4.5000 Du        
   1139 ****       216.5000  40.2500   4.7500 Du        
   1140 ****       216.5000  40.5000   3.7500 Du        
   1141 ****       216.5000  40.5000   4.0000 Du        
   1142 ****       216.5000  40.5000   4.2500 Du        
   1143 ****       216.5000  40.5000   4.5000 Du        
   1144 ****       216.5000  40.5000   4.7500 Du        
   1145 ****       216.5000  40.7500   3.7500 Du        
   1146 ****       216.5000  40.7500   4.0000 Du        
   1147 ****       216.5000  40.7500   4.2500 Du        
   1148 ****       216.5000  40.7500   4.5000 Du        
   1149 ****       216.5000  40.7500   4.7500 Du        
   1150 ****       216.5000  40.7500   5.0000 Du        
   1151 ****       216.5000  41.0000   4.0000 Du        
   1152 ****       216.5000  41.0000   4.2500 Du        
   1153 ****       216.5000  41.0000   4.5000 Du        
   1154 ****       216.5000  41.0000   4.7500 Du        
   1155 ****       216.5000  41.0000   5.0000 Du        
   1156 ****       216.5000  41.0000   5.2500 Du        
   1157 ****       216.5000  41.2500   4.5000 Du        
   1158 ****       216.5000  41.2500   4.7500 Du        
   1159 ****       216.5000  41.2500   5.0000 Du        
   1160 ****       216.5000  41.2500   5.2500 Du        
   1161 ****       216.5000  44.0000  13.0000 Du        
   1162 ****       216.5000  44.0000  13.2500 Du        
   1163 ****       216.5000  44.2500  12.0000 Du        
   1164 ****       216.5000  44.2500  12.2500 Du        
   1165 ****       216.5000  44.2500  12.5000 Du        
   1166 ****       216.5000  44.2500  12.7500 Du        
   1167 ****       216.5000  44.2500  13.0000 Du        
   1168 ****       216.5000  44.2500  13.2500 Du        
   1169 ****       216.5000  44.5000  12.0000 Du        
   1170 ****       216.5000  44.5000  12.2500 Du        
   1171 ****       216.5000  44.5000  12.5000 Du        
   1172 ****       216.5000  44.5000  12.7500 Du        
   1173 ****       216.5000  44.7500  12.0000 Du        
   1174 ****       216.5000  44.7500  12.2500 Du        
   1175 ****       216.5000  44.7500  12.5000 Du        
   1176 ****       216.5000  44.7500  12.7500 Du        
   1177 ****       216.5000  45.0000  12.2500 Du        
   1178 ****       216.5000  45.0000  12.5000 Du        
   1179 ****       216.7500  39.7500   3.7500 Du        
   1180 ****       216.7500  39.7500   4.0000 Du        
   1181 ****       216.7500  39.7500   4.2500 Du        
   1182 ****       216.7500  40.0000   3.5000 Du        
   1183 ****       216.7500  40.0000   3.7500 Du        
   1184 ****       216.7500  40.0000   4.0000 Du        
   1185 ****       216.7500  40.0000   4.2500 Du        
   1186 ****       216.7500  40.0000   4.5000 Du        
   1187 ****       216.7500  40.0000   4.7500 Du        
   1188 ****       216.7500  40.2500   3.5000 Du        
   1189 ****       216.7500  40.2500   3.7500 Du        
   1190 ****       216.7500  40.2500   4.0000 Du        
   1191 ****       216.7500  40.2500   4.2500 Du        
   1192 ****       216.7500  40.2500   4.5000 Du        
   1193 ****       216.7500  40.2500   4.7500 Du        
   1194 ****       216.7500  40.2500   5.0000 Du        
   1195 ****       216.7500  40.5000   3.7500 Du        
   1196 ****       216.7500  40.5000   4.0000 Du        
   1197 ****       216.7500  40.5000   4.2500 Du        
   1198 ****       216.7500  40.5000   4.5000 Du        
   1199 ****       216.7500  40.5000   4.7500 Du        
   1200 ****       216.7500  40.5000   5.0000 Du        
   1201 ****       216.7500  40.7500   3.7500 Du        
   1202 ****       216.7500  40.7500   4.0000 Du        
   1203 ****       216.7500  40.7500   4.2500 Du        
   1204 ****       216.7500  40.7500   4.5000 Du        
   1205 ****       216.7500  40.7500   4.7500 Du        
   1206 ****       216.7500  40.7500   5.0000 Du        
   1207 ****       216.7500  41.0000   3.7500 Du        
   1208 ****       216.7500  41.0000   4.0000 Du        
   1209 ****       216.7500  41.0000   4.2500 Du        
   1210 ****       216.7500  41.0000   4.5000 Du        
   1211 ****       216.7500  41.0000   4.7500 Du        
   1212 ****       216.7500  41.0000   5.0000 Du        
   1213 ****       216.7500  41.0000   5.2500 Du        
   1214 ****       216.7500  41.2500   4.2500 Du        
   1215 ****       216.7500  41.2500   4.5000 Du        
   1216 ****       216.7500  41.2500   4.7500 Du        
   1217 ****       216.7500  41.2500   5.0000 Du        
   1218 ****       216.7500  43.7500  13.0000 Du        
   1219 ****       216.7500  44.0000  12.0000 Du        
   1220 ****       216.7500  44.0000  12.2500 Du        
   1221 ****       216.7500  44.0000  12.5000 Du        
   1222 ****       216.7500  44.0000  12.7500 Du        
   1223 ****       216.7500  44.0000  13.0000 Du        
   1224 ****       216.7500  44.2500  11.5000 Du        
   1225 ****       216.7500  44.2500  11.7500 Du        
   1226 ****       216.7500  44.2500  12.0000 Du        
   1227 ****       216.7500  44.2500  12.2500 Du        
   1228 ****       216.7500  44.2500  12.5000 Du        
   1229 ****       216.7500  44.2500  12.7500 Du        
   1230 ****       216.7500  44.2500  13.0000 Du        
   1231 ****       216.7500  44.5000  12.0000 Du        
   1232 ****       216.7500  44.5000  12.2500 Du        
   1233 ****       216.7500  44.5000  12.5000 Du        
   1234 ****       216.7500  44.7500  12.0000 Du        
   1235 ****       216.7500  44.7500  12.2500 Du        
   1236 ****       216.7500  44.7500  12.5000 Du        
   1237 ****       217.0000  40.0000   4.5000 Du        
   1238 ****       217.0000  40.0000   4.7500 Du        
   1239 ****       217.0000  40.2500   4.0000 Du        
   1240 ****       217.0000  40.2500   4.2500 Du        
   1241 ****       217.0000  40.2500   4.5000 Du        
   1242 ****       217.0000  40.2500   4.7500 Du        
   1243 ****       217.0000  40.2500   5.0000 Du        
   1244 ****       217.0000  40.5000   4.0000 Du        
   1245 ****       217.0000  40.5000   4.2500 Du        
   1246 ****       217.0000  40.5000   4.5000 Du        
   1247 ****       217.0000  40.5000   4.7500 Du        
   1248 ****       217.0000  40.5000   5.0000 Du        
   1249 ****       217.0000  40.7500   4.0000 Du        
   1250 ****       217.0000  40.7500   4.2500 Du        
   1251 ****       217.0000  40.7500   4.5000 Du        
   1252 ****       217.0000  40.7500   4.7500 Du        
   1253 ****       217.0000  40.7500   5.0000 Du        
   1254 ****       217.0000  41.0000   4.0000 Du        
   1255 ****       217.0000  41.0000   4.2500 Du        
   1256 ****       217.0000  41.0000   4.5000 Du        
   1257 ****       217.0000  41.0000   4.7500 Du        
   1258 ****       217.0000  41.2500   4.2500 Du        
   1259 ****       217.0000  41.2500   4.5000 Du        
   1260 ****       217.0000  41.2500   4.7500 Du        
   1261 ****       217.0000  43.7500  12.2500 Du        
   1262 ****       217.0000  43.7500  12.5000 Du        
   1263 ****       217.0000  43.7500  12.7500 Du        
   1264 ****       217.0000  43.7500  13.0000 Du        
   1265 ****       217.0000  44.0000  11.2500 Du        
   1266 ****       217.0000  44.0000  11.7500 Du        
   1267 ****       217.0000  44.0000  12.0000 Du        
   1268 ****       217.0000  44.0000  12.2500 Du        
   1269 ****       217.0000  44.0000  12.5000 Du        
   1270 ****       217.0000  44.0000  12.7500 Du        
   1271 ****       217.0000  44.2500  11.0000 Du        
   1272 ****       217.0000  44.2500  11.5000 Du        
   1273 ****       217.0000  44.2500  11.7500 Du        
   1274 ****       217.0000  44.2500  12.0000 Du        
   1275 ****       217.0000  44.2500  12.2500 Du        
   1276 ****       217.0000  44.2500  12.5000 Du        
   1277 ****       217.0000  44.5000  11.7500 Du        
   1278 ****       217.0000  44.5000  12.0000 Du        
   1279 ****       217.0000  44.5000  12.2500 Du        
   1280 ****       217.0000  44.7500  12.0000 Du        
   1281 ****       217.0000  44.7500  12.2500 Du        
   1282 ****       217.2500  43.2500  12.7500 Du        
   1283 ****       217.2500  43.2500  13.0000 Du        
   1284 ****       217.2500  43.5000  12.5000 Du        
   1285 ****       217.2500  43.5000  12.7500 Du        
   1286 ****       217.2500  43.7500  12.0000 Du        
   1287 ****       217.2500  43.7500  12.2500 Du        
   1288 ****       217.2500  43.7500  12.5000 Du        
   1289 ****       217.2500  43.7500  12.7500 Du        
   1290 ****       217.2500  44.0000  11.0000 Du        
   1291 ****       217.2500  44.0000  11.2500 Du        
   1292 ****       217.2500  44.0000  11.5000 Du        
   1293 ****       217.2500  44.0000  11.7500 Du        
   1294 ****       217.2500  44.0000  12.0000 Du        
   1295 ****       217.2500  44.0000  12.2500 Du        
   1296 ****       217.2500  44.0000  12.5000 Du        
   1297 ****       217.2500  44.2500  10.7500 Du        
   1298 ****       217.2500  44.2500  11.0000 Du        
   1299 ****       217.2500  44.2500  11.2500 Du        
   1300 ****       217.2500  44.2500  11.5000 Du        
   1301 ****       217.2500  44.2500  11.7500 Du        
   1302 ****       217.2500  44.2500  12.0000 Du        
   1303 ****       217.2500  44.2500  12.2500 Du        
   1304 ****       217.2500  44.2500  12.5000 Du        
   1305 ****       217.5000  43.2500  12.7500 Du        
   1306 ****       217.5000  43.5000  12.5000 Du        
   1307 ****       217.5000  43.7500  11.7500 Du        
   1308 ****       217.5000  43.7500  12.0000 Du        
   1309 ****       217.5000  43.7500  12.2500 Du        
   1310 ****       217.5000  43.7500  12.5000 Du        
   1311 ****       217.5000  44.0000  11.5000 Du        
   1312 ****       217.5000  44.0000  11.7500 Du        
   1313 ****       217.5000  44.0000  12.0000 Du        
   1314 ****       217.5000  44.0000  12.2500 Du        
   1315 ****       217.5000  44.2500  11.0000 Du        
   1316 ****       217.5000  44.2500  11.2500 Du        
   1317 ****       217.5000  44.2500  11.5000 Du        
   1318 ****       217.5000  44.2500  11.7500 Du        
   1319 ****       217.5000  44.2500  12.0000 Du        
   1320 ****       217.7500  43.7500  12.0000 Du        
   1321 ****       217.7500  44.0000  11.5000 Du        
   1322 ****       217.7500  44.0000  11.7500 Du        
   1323 ****       217.7500  44.0000  12.0000 Du        
   1324 ****       217.7500  44.2500  11.2500 Du        
   1325 ****       217.7500  44.2500  11.5000 Du        
   1326 ****       217.7500  44.2500  11.7500 Du        
   1327 ****       217.7500  44.2500  12.0000 Du        
   1328 ****       218.0000  44.2500  11.7500 Du        
