#       Name:                CT1002167954
#       Creating user name   hitesit
#       Creation time:       Sun Apr 16 23:03:08 2023


#       File generated by GOLD software.
#

@<TRIPOS>MOLECULE
CT1002167954|ligand_prepared|mol2|1|dock10
    29    30     1
SMALL
NO_CHARGES


@<TRIPOS>ATOM
      1 C1         208.5150  42.9100  12.2098 C.3            1 RES1               0.0000
      2 C2         208.4347  42.9685  13.7489 C.ar           1 RES1               0.0000
      3 C3         207.5088  41.8514  11.7682 C.2            1 RES1               0.0000
      4 C4         208.1977  44.3159  11.7123 C.2            1 RES1               0.0000
      5 C5         209.9103  42.5164  11.6714 C.3            1 RES1               0.0000
      6 C6         207.4744  42.2329  14.4368 C.ar           1 RES1               0.0000
      7 C7         209.3142  43.7501  14.4934 C.ar           1 RES1               0.0000
      8 N8         206.3518  42.2821  11.1887 N.am           1 RES1               0.0000
      9 O9         207.7098  40.6587  11.9613 O.2            1 RES1               0.0000
     10 N10        207.0496  44.4962  10.9862 N.am           1 RES1               0.0000
     11 O11        208.9229  45.2722  11.9567 O.2            1 RES1               0.0000
     12 C12        209.9552  42.3300  10.1630 C.3            1 RES1               0.0000
     13 C13        207.3978  42.2746  15.8191 C.ar           1 RES1               0.0000
     14 C14        209.2358  43.7906  15.8757 C.ar           1 RES1               0.0000
     15 C15        206.0967  43.5488  10.7281 C.2            1 RES1               0.0000
     16 C16        208.2786  43.0531  16.5394 C.ar           1 RES1               0.0000
     17 O17        205.0637  43.8004  10.1141 O.2            1 RES1               0.0000
     18 H18        210.6299  43.2952  11.9526 H              1 RES1               0.0000
     19 H19        210.2233  41.5813  12.1522 H              1 RES1               0.0000
     20 H20        206.7711  41.6165  13.8868 H              1 RES1               0.0000
     21 H21        210.0746  44.3395  13.9924 H              1 RES1               0.0000
     22 H22        205.6074  41.5994  11.0887 H              1 RES1               0.0000
     23 H23        206.8907  45.4223  10.6025 H              1 RES1               0.0000
     24 H24        210.9564  42.0546   9.8380 H              1 RES1               0.0000
     25 H25        209.2697  41.5449   9.8507 H              1 RES1               0.0000
     26 H26        209.6738  43.2486   9.6523 H              1 RES1               0.0000
     27 H27        206.6418  41.6934  16.3367 H              1 RES1               0.0000
     28 H28        209.9306  44.4052  16.4385 H              1 RES1               0.0000
     29 H29        208.2187  43.0853  17.6223 H              1 RES1               0.0000
@<TRIPOS>BOND
    1    1    2 1     
    2    1    3 1     
    3    1    4 1     
    4    1    5 1     
    5    2    6 ar    
    6    2    7 ar    
    7    3    8 1     
    8    3    9 2     
    9    4   10 1     
   10    4   11 2     
   11    5   12 1     
   12    5   18 1     
   13    5   19 1     
   14    6   13 ar    
   15    6   20 1     
   16    7   14 ar    
   17    7   21 1     
   18    8   15 1     
   19    8   22 1     
   20   10   15 1     
   21   10   23 1     
   22   12   24 1     
   23   12   25 1     
   24   12   26 1     
   25   13   16 ar    
   26   13   27 1     
   27   14   16 ar    
   28   14   28 1     
   29   15   17 2     
   30   16   29 1     
@<TRIPOS>SUBSTRUCTURE
      1 RES1           1
@<TRIPOS>SET
DONOR_HYDROGENS      STATIC     ATOMS    <user>   **** ""
2 22 23
ATOM$RED        STATIC     ATOMS    COLORGROUP SYSTEM
2 22 23
@<TRIPOS>COMMENT
> <Gold.Version>
2022.3.0

> <Gold.Id.Protein>
unknown|4v3u_clean|pdb

> <Gold.Protein.RotatedTorsions>
[ 8319 8303 8304 8305 ] final    5.77 input  100.38 | X-H torsion
[ 8355 8345 8346 8347 ] final   29.92 input   76.03 | X-H torsion
[ 8419 8397 8398 8399 ] final   26.92 input  108.00 | X-H torsion
[ 8503 8487 8488 8489 ] final   22.59 input   86.22 | X-H torsion
[ 9071 9050 9049 9047 ] final  -53.45 input   59.99 | X-H torsion
[ 8251 8229 8230 8231 ] final  -16.40 input   84.12 | X-H torsion
[ 8543 8531 8532 8533 ] final   54.18 input  114.02 | X-H torsion
[ 10323 10307 10308 10309 ] final   53.54 input   62.28 | X-H torsion
[ 27205 8306 8305 8304 ] final  110.08 input   -0.00 | X-H torsion
[ 27220 8348 8347 8346 ] final  135.94 input    0.00 | X-H torsion
[ 27222 8400 8399 8398 ] final  -50.36 input    0.00 | X-H torsion
[ 27224 8160 8159 8158 ] final  153.46 input    0.00 | X-H torsion
[ 27226 8232 8231 8230 ] final   80.28 input    0.00 | X-H torsion
[ 27230 10310 10309 10308 ] final -142.31 input   -0.00 | X-H torsion

> <Gold.Protein.ActiveResidues>
 ASP403  LEU406  ILE407  GLN430  VAL431  PHE432  ASP433  ALA434  ARG435  ASP436 
 CYS437  TYR446  ASN449  THR465  ILE466 

> <Gold.Protein.RotatedAtoms>
  219.0910   39.2310   11.6956 H   0  0  0  0  0  0  0  0  0  0  0  0  # atno 8251 bound_to 8229
  216.1775   40.0576    9.6477 H   0  0  0  0  0  0  0  0  0  0  0  0  # atno 8319 bound_to 8303
  213.3746   38.0301   11.2375 H   0  0  0  0  0  0  0  0  0  0  0  0  # atno 8355 bound_to 8345
  210.8123   38.9540   10.1409 H   0  0  0  0  0  0  0  0  0  0  0  0  # atno 8419 bound_to 8397
  209.0455   38.3748    9.1710 H   0  0  0  0  0  0  0  0  0  0  0  0  # atno 8503 bound_to 8487
  207.7312   37.0638    8.5455 H   0  0  0  0  0  0  0  0  0  0  0  0  # atno 8543 bound_to 8531
  211.9858   39.8671    7.1639 H   0  0  0  0  0  0  0  0  0  0  0  0  # atno 9071 bound_to 9050
  215.9896   36.1837   11.1586 H   0  0  0  0  0  0  0  0  0  0  0  0  # atno 10323 bound_to 10307
  216.9054   40.4263   11.1980 LP  0  0  0  0  0  0  0  0  0  0  0  0  # atno 27204 bound_to 8303
  213.5207   40.2835    8.4469 LP  0  0  0  0  0  0  0  0  0  0  0  0  # atno 27205 bound_to 8306
  212.6222   41.0387    9.7206 LP  0  0  0  0  0  0  0  0  0  0  0  0  # atno 27206 bound_to 8306
  214.1972   38.8811    9.9554 LP  0  0  0  0  0  0  0  0  0  0  0  0  # atno 27211 bound_to 8345
  211.5255   37.7007   11.1244 LP  0  0  0  0  0  0  0  0  0  0  0  0  # atno 27212 bound_to 8397
  208.4046   39.3965   10.4357 LP  0  0  0  0  0  0  0  0  0  0  0  0  # atno 27213 bound_to 8487
  210.7814   39.5090    6.1306 LP  0  0  0  0  0  0  0  0  0  0  0  0  # atno 27218 bound_to 9050
  212.0137   40.4676    5.6522 LP  0  0  0  0  0  0  0  0  0  0  0  0  # atno 27219 bound_to 9050
  209.9564   35.9337   10.0326 LP  0  0  0  0  0  0  0  0  0  0  0  0  # atno 27220 bound_to 8348
  210.3673   36.4258    8.4235 LP  0  0  0  0  0  0  0  0  0  0  0  0  # atno 27221 bound_to 8348
  206.8979   37.0559   11.3749 LP  0  0  0  0  0  0  0  0  0  0  0  0  # atno 27222 bound_to 8400
  206.3109   38.6691   11.1443 LP  0  0  0  0  0  0  0  0  0  0  0  0  # atno 27223 bound_to 8400
  219.0636   41.8052   10.4006 LP  0  0  0  0  0  0  0  0  0  0  0  0  # atno 27224 bound_to 8160
  219.4714   42.1389   12.0506 LP  0  0  0  0  0  0  0  0  0  0  0  0  # atno 27225 bound_to 8160
  217.0373   37.6493   11.6137 LP  0  0  0  0  0  0  0  0  0  0  0  0  # atno 27226 bound_to 8232
  216.0820   37.4409   10.1840 LP  0  0  0  0  0  0  0  0  0  0  0  0  # atno 27227 bound_to 8232
  220.2544   39.2632   10.3931 LP  0  0  0  0  0  0  0  0  0  0  0  0  # atno 27228 bound_to 8229
  207.9021   38.2168    7.2358 LP  0  0  0  0  0  0  0  0  0  0  0  0  # atno 27229 bound_to 8531
  212.2478   36.1980   12.0858 LP  0  0  0  0  0  0  0  0  0  0  0  0  # atno 27230 bound_to 10310
  213.7575   36.7508   11.4415 LP  0  0  0  0  0  0  0  0  0  0  0  0  # atno 27231 bound_to 10310

> <Gold.Score>
     Fitness  S(hb_ext) S(vdw_ext)  S(hb_int)    S(int)      intcor
     27.34       0.00      21.87       0.00      -2.73      -0.76

> <Gold.Goldscore.Fitness>
27.3442

> <Gold.Goldscore.Internal.Vdw>
-3.0804

> <Gold.Goldscore.Internal.Torsion>
-0.4178

> <Gold.Goldscore.External.Vdw>
21.8745

> <Gold.Goldscore.Internal.HBond>
0.0000

> <Gold.Goldscore.External.HBond>
0.0000

> <Gold.Goldscore.Internal.Correction>
-0.7650

> <Gold.Goldscore.Internal.Vdw.Weighted>
-3.0804

> <Gold.Goldscore.Internal.Torsion.Weighted>
-0.4178

> <Gold.Goldscore.External.Vdw.Weighted>
30.0774

> <Gold.Goldscore.Internal.HBond.Weighted>
0.0000

> <Gold.Goldscore.External.HBond.Weighted>
0.0000

> <Gold.Goldscore.Internal.Correction.Weighted>
-0.7650

> <Gold.Rescore>
     Score     S(PLP)   S(hbond)     S(cho)   S(metal)  DE(clash)   DE(tors)     intcor
     20.44     -22.51       0.00       0.00       0.00       2.06       0.01       ----

> <Gold.PLP.Fitness>
20.4417

> <Gold.PLP.PLP>
-22.5137

> <Gold.PLP.part.hbond>
0.0000

> <Gold.PLP.part.metal>
0.0000

> <Gold.PLP.part.buried>
-1.2425

> <Gold.PLP.part.nonpolar>
-21.5367

> <Gold.PLP.part.repulsive>
0.1374

> <Gold.PLP.ligand.clash>
2.0573

> <Gold.PLP.ligand.torsion>
0.0074

> <Gold.PLP.Chemscore.Hbond>
0.0000

> <Gold.PLP.Chemscore.CHOScore>
0.0000

> <Gold.PLP.Chemscore.Metal>
0.0000

> <Gold.PLP.Chemscore.Internal.Correction>
   9.000000E+99

