#       Name:                CT1002167954
#       Creating user name   hitesit
#       Creation time:       Sun Apr 16 23:03:07 2023


#       File generated by GOLD software.
#

@<TRIPOS>MOLECULE
CT1002167954|ligand_prepared|mol2|1|dock8
    29    30     1
SMALL
NO_CHARGES


@<TRIPOS>ATOM
      1 C1         212.9151  44.4607   9.3916 C.3            1 RES1               0.0000
      2 C2         211.8744  43.4426   9.9008 C.ar           1 RES1               0.0000
      3 C3         214.0859  44.4014  10.3683 C.2            1 RES1               0.0000
      4 C4         213.2682  44.0353   7.9707 C.2            1 RES1               0.0000
      5 C5         212.3924  45.9152   9.3390 C.3            1 RES1               0.0000
      6 C6         211.1671  43.6797  11.0756 C.ar           1 RES1               0.0000
      7 C7         211.6094  42.2652   9.2065 C.ar           1 RES1               0.0000
      8 N8         215.2278  43.7846   9.9493 N.am           1 RES1               0.0000
      9 O9         213.9951  44.8541  11.5029 O.2            1 RES1               0.0000
     10 N10        214.5462  43.6045   7.7283 N.am           1 RES1               0.0000
     11 O11        212.4466  44.0536   7.0624 O.2            1 RES1               0.0000
     12 C12        213.3837  46.9016   8.7419 C.3            1 RES1               0.0000
     13 C13        210.2267  42.7741  11.5381 C.ar           1 RES1               0.0000
     14 C14        210.6686  41.3608   9.6708 C.ar           1 RES1               0.0000
     15 C15        215.5334  43.4307   8.6597 C.2            1 RES1               0.0000
     16 C16        209.9765  41.6144  10.8359 C.ar           1 RES1               0.0000
     17 O17        216.6416  42.9869   8.3734 O.2            1 RES1               0.0000
     18 H18        211.4704  45.9378   8.7450 H              1 RES1               0.0000
     19 H19        212.1432  46.2379  10.3574 H              1 RES1               0.0000
     20 H20        211.3522  44.5858  11.6430 H              1 RES1               0.0000
     21 H21        212.1426  42.0443   8.2881 H              1 RES1               0.0000
     22 H22        215.9182  43.5662  10.6605 H              1 RES1               0.0000
     23 H23        214.7837  43.3938   6.7641 H              1 RES1               0.0000
     24 H24        212.9672  47.9067   8.7286 H              1 RES1               0.0000
     25 H25        214.3034  46.9236   9.3227 H              1 RES1               0.0000
     26 H26        213.6347  46.6253   7.7199 H              1 RES1               0.0000
     27 H27        209.6856  42.9778  12.4562 H              1 RES1               0.0000
     28 H28        210.4754  40.4491   9.1153 H              1 RES1               0.0000
     29 H29        209.2395  40.9053  11.1981 H              1 RES1               0.0000
@<TRIPOS>BOND
    1    1    2 1     
    2    1    3 1     
    3    1    4 1     
    4    1    5 1     
    5    2    6 ar    
    6    2    7 ar    
    7    3    8 1     
    8    3    9 2     
    9    4   10 1     
   10    4   11 2     
   11    5   12 1     
   12    5   18 1     
   13    5   19 1     
   14    6   13 ar    
   15    6   20 1     
   16    7   14 ar    
   17    7   21 1     
   18    8   15 1     
   19    8   22 1     
   20   10   15 1     
   21   10   23 1     
   22   12   24 1     
   23   12   25 1     
   24   12   26 1     
   25   13   16 ar    
   26   13   27 1     
   27   14   16 ar    
   28   14   28 1     
   29   15   17 2     
   30   16   29 1     
@<TRIPOS>SUBSTRUCTURE
      1 RES1           1
@<TRIPOS>SET
DONOR_HYDROGENS      STATIC     ATOMS    <user>   **** ""
2 22 23
ATOM$RED        STATIC     ATOMS    COLORGROUP SYSTEM
2 22 23
@<TRIPOS>COMMENT
> <Gold.Version>
2022.3.0

> <Gold.Id.Protein>
unknown|4v3u_clean|pdb

> <Gold.Protein.RotatedTorsions>
[ 8319 8303 8304 8305 ] final   16.00 input  100.38 | X-H torsion
[ 8355 8345 8346 8347 ] final -158.81 input   76.03 | X-H torsion
[ 8419 8397 8398 8399 ] final  171.90 input  108.00 | X-H torsion
[ 8503 8487 8488 8489 ] final -112.86 input   86.22 | X-H torsion
[ 9071 9050 9049 9047 ] final  -11.17 input   59.99 | X-H torsion
[ 8251 8229 8230 8231 ] final -175.50 input   84.12 | X-H torsion
[ 8543 8531 8532 8533 ] final -179.72 input  114.02 | X-H torsion
[ 10323 10307 10308 10309 ] final  155.01 input   62.28 | X-H torsion
[ 27205 8306 8305 8304 ] final -120.42 input   -0.00 | X-H torsion
[ 27220 8348 8347 8346 ] final  -14.54 input    0.00 | X-H torsion
[ 27222 8400 8399 8398 ] final   -6.03 input    0.00 | X-H torsion
[ 27224 8160 8159 8158 ] final  125.94 input    0.00 | X-H torsion
[ 27226 8232 8231 8230 ] final -101.82 input    0.00 | X-H torsion
[ 27230 10310 10309 10308 ] final  132.73 input   -0.00 | X-H torsion

> <Gold.Protein.ActiveResidues>
 ASP403  LEU406  ILE407  GLN430  VAL431  PHE432  ASP433  ALA434  ARG435  ASP436 
 CYS437  TYR446  ASN449  THR465  ILE466 

> <Gold.Protein.RotatedAtoms>
  220.2567   39.5742   10.4562 H   0  0  0  0  0  0  0  0  0  0  0  0  # atno 8251 bound_to 8229
  216.1552   40.2149    9.6368 H   0  0  0  0  0  0  0  0  0  0  0  0  # atno 8319 bound_to 8303
  214.2825   38.7796    9.9383 H   0  0  0  0  0  0  0  0  0  0  0  0  # atno 8355 bound_to 8345
  211.5821   38.1471   11.3955 H   0  0  0  0  0  0  0  0  0  0  0  0  # atno 8419 bound_to 8397
  208.1704   38.7793   10.4937 H   0  0  0  0  0  0  0  0  0  0  0  0  # atno 8503 bound_to 8487
  208.5879   37.9082    7.4963 H   0  0  0  0  0  0  0  0  0  0  0  0  # atno 8543 bound_to 8531
  212.3593   40.2573    6.7593 H   0  0  0  0  0  0  0  0  0  0  0  0  # atno 9071 bound_to 9050
  217.0098   35.6435   11.8895 H   0  0  0  0  0  0  0  0  0  0  0  0  # atno 10323 bound_to 10307
  216.9268   40.2749   11.2085 LP  0  0  0  0  0  0  0  0  0  0  0  0  # atno 27204 bound_to 8303
  212.2826   40.4733    9.3877 LP  0  0  0  0  0  0  0  0  0  0  0  0  # atno 27205 bound_to 8306
  213.8604   40.8489    8.7798 LP  0  0  0  0  0  0  0  0  0  0  0  0  # atno 27206 bound_to 8306
  213.3033   38.1431   11.2346 LP  0  0  0  0  0  0  0  0  0  0  0  0  # atno 27211 bound_to 8345
  210.7685   38.4941    9.8907 LP  0  0  0  0  0  0  0  0  0  0  0  0  # atno 27212 bound_to 8397
  209.2587   39.0017    9.1447 LP  0  0  0  0  0  0  0  0  0  0  0  0  # atno 27213 bound_to 8487
  210.9826   39.3905    6.7692 LP  0  0  0  0  0  0  0  0  0  0  0  0  # atno 27218 bound_to 9050
  211.4361   40.1930    5.4213 LP  0  0  0  0  0  0  0  0  0  0  0  0  # atno 27219 bound_to 9050
  210.6776   36.1318    8.5339 LP  0  0  0  0  0  0  0  0  0  0  0  0  # atno 27220 bound_to 8348
  209.6462   36.2276    9.9221 LP  0  0  0  0  0  0  0  0  0  0  0  0  # atno 27221 bound_to 8348
  206.9819   37.4272   11.9061 LP  0  0  0  0  0  0  0  0  0  0  0  0  # atno 27222 bound_to 8400
  206.2269   38.2979   10.6131 LP  0  0  0  0  0  0  0  0  0  0  0  0  # atno 27223 bound_to 8400
  219.4572   41.9253   10.3819 LP  0  0  0  0  0  0  0  0  0  0  0  0  # atno 27224 bound_to 8160
  219.0778   42.0187   12.0693 LP  0  0  0  0  0  0  0  0  0  0  0  0  # atno 27225 bound_to 8160
  216.0567   37.4511   10.2002 LP  0  0  0  0  0  0  0  0  0  0  0  0  # atno 27226 bound_to 8232
  217.0626   37.6391   11.5976 LP  0  0  0  0  0  0  0  0  0  0  0  0  # atno 27227 bound_to 8232
  219.1129   38.9271   11.6068 LP  0  0  0  0  0  0  0  0  0  0  0  0  # atno 27228 bound_to 8229
  207.0814   37.4080    8.2407 LP  0  0  0  0  0  0  0  0  0  0  0  0  # atno 27229 bound_to 8531
  212.7110   36.1572   11.0125 LP  0  0  0  0  0  0  0  0  0  0  0  0  # atno 27230 bound_to 10310
  213.2943   36.7916   12.5149 LP  0  0  0  0  0  0  0  0  0  0  0  0  # atno 27231 bound_to 10310

> <Gold.Score>
     Fitness  S(hb_ext) S(vdw_ext)  S(hb_int)    S(int)      intcor
     24.47       0.00      19.11       0.00      -1.81      -0.76

> <Gold.Goldscore.Fitness>
24.4692

> <Gold.Goldscore.Internal.Vdw>
-2.1807

> <Gold.Goldscore.Internal.Torsion>
-0.3935

> <Gold.Goldscore.External.Vdw>
19.1116

> <Gold.Goldscore.Internal.HBond>
0.0000

> <Gold.Goldscore.External.HBond>
0.0000

> <Gold.Goldscore.Internal.Correction>
-0.7650

> <Gold.Goldscore.Internal.Vdw.Weighted>
-2.1807

> <Gold.Goldscore.Internal.Torsion.Weighted>
-0.3935

> <Gold.Goldscore.External.Vdw.Weighted>
26.2785

> <Gold.Goldscore.Internal.HBond.Weighted>
0.0000

> <Gold.Goldscore.External.HBond.Weighted>
0.0000

> <Gold.Goldscore.Internal.Correction.Weighted>
-0.7650

> <Gold.Rescore>
     Score     S(PLP)   S(hbond)     S(cho)   S(metal)  DE(clash)   DE(tors)     intcor
     21.89     -23.49       0.00       0.00       0.00       0.99       0.30       ----

> <Gold.PLP.Fitness>
21.8905

> <Gold.PLP.PLP>
-23.4899

> <Gold.PLP.part.hbond>
-1.8750

> <Gold.PLP.part.metal>
0.0000

> <Gold.PLP.part.buried>
-2.9516

> <Gold.PLP.part.nonpolar>
-19.2492

> <Gold.PLP.part.repulsive>
0.4780

> <Gold.PLP.ligand.clash>
0.9925

> <Gold.PLP.ligand.torsion>
0.3035

> <Gold.PLP.Chemscore.Hbond>
0.0000

> <Gold.PLP.Chemscore.CHOScore>
0.0000

> <Gold.PLP.Chemscore.Metal>
0.0000

> <Gold.PLP.Chemscore.Internal.Correction>
   9.000000E+99

