#       Name:                CT1002167954
#       Creating user name   hitesit
#       Creation time:       Sun Apr 16 23:03:07 2023


#       File generated by GOLD software.
#

@<TRIPOS>MOLECULE
CT1002167954|ligand_prepared|mol2|1|dock7
    29    30     1
SMALL
NO_CHARGES


@<TRIPOS>ATOM
      1 C1         207.3091  42.5613  13.3299 C.3            1 RES1               0.0000
      2 C2         208.5459  42.4670  12.4133 C.ar           1 RES1               0.0000
      3 C3         207.4356  41.4233  14.3386 C.2            1 RES1               0.0000
      4 C4         207.3452  43.9522  13.9534 C.2            1 RES1               0.0000
      5 C5         205.9641  42.4077  12.5822 C.3            1 RES1               0.0000
      6 C6         208.6183  41.4965  11.4185 C.ar           1 RES1               0.0000
      7 C7         209.6192  43.3436  12.5484 C.ar           1 RES1               0.0000
      8 N8         207.7822  41.7479  15.6170 N.am           1 RES1               0.0000
      9 O9         207.2724  40.2553  14.0079 O.2            1 RES1               0.0000
     10 N10        207.5352  44.0441  15.3074 N.am           1 RES1               0.0000
     11 O11        207.2275  44.9699  13.2821 O.2            1 RES1               0.0000
     12 C12        204.7449  42.6565  13.4562 C.3            1 RES1               0.0000
     13 C13        209.7223  41.4073  10.5869 C.ar           1 RES1               0.0000
     14 C14        210.7224  43.2525  11.7159 C.ar           1 RES1               0.0000
     15 C15        207.7860  43.0063  16.1630 C.2            1 RES1               0.0000
     16 C16        210.7748  42.2854  10.7347 C.ar           1 RES1               0.0000
     17 O17        208.0009  43.1737  17.3601 O.2            1 RES1               0.0000
     18 H18        205.9453  43.1116  11.7411 H              1 RES1               0.0000
     19 H19        205.9025  41.3924  12.1712 H              1 RES1               0.0000
     20 H20        207.8007  40.7952  11.2888 H              1 RES1               0.0000
     21 H21        209.6002  44.1117  13.3141 H              1 RES1               0.0000
     22 H22        208.0648  40.9843  16.2231 H              1 RES1               0.0000
     23 H23        207.4848  44.9723  15.7152 H              1 RES1               0.0000
     24 H24        203.8282  42.5358  12.8828 H              1 RES1               0.0000
     25 H25        204.7181  41.9570  14.2891 H              1 RES1               0.0000
     26 H26        204.7606  43.6660  13.8617 H              1 RES1               0.0000
     27 H27        209.7592  40.6436   9.8172 H              1 RES1               0.0000
     28 H28        211.5487  43.9453  11.8362 H              1 RES1               0.0000
     29 H29        211.6393  42.2156  10.0829 H              1 RES1               0.0000
@<TRIPOS>BOND
    1    1    2 1     
    2    1    3 1     
    3    1    4 1     
    4    1    5 1     
    5    2    6 ar    
    6    2    7 ar    
    7    3    8 1     
    8    3    9 2     
    9    4   10 1     
   10    4   11 2     
   11    5   12 1     
   12    5   18 1     
   13    5   19 1     
   14    6   13 ar    
   15    6   20 1     
   16    7   14 ar    
   17    7   21 1     
   18    8   15 1     
   19    8   22 1     
   20   10   15 1     
   21   10   23 1     
   22   12   24 1     
   23   12   25 1     
   24   12   26 1     
   25   13   16 ar    
   26   13   27 1     
   27   14   16 ar    
   28   14   28 1     
   29   15   17 2     
   30   16   29 1     
@<TRIPOS>SUBSTRUCTURE
      1 RES1           1
@<TRIPOS>SET
DONOR_HYDROGENS      STATIC     ATOMS    <user>   **** ""
2 22 23
ATOM$RED        STATIC     ATOMS    COLORGROUP SYSTEM
2 22 23
@<TRIPOS>COMMENT
> <Gold.Version>
2022.3.0

> <Gold.Id.Protein>
unknown|4v3u_clean|pdb

> <Gold.Protein.RotatedTorsions>
[ 8319 8303 8304 8305 ] final  178.69 input  100.38 | X-H torsion
[ 8355 8345 8346 8347 ] final -127.36 input   76.03 | X-H torsion
[ 8419 8397 8398 8399 ] final  114.16 input  108.00 | X-H torsion
[ 8503 8487 8488 8489 ] final -117.95 input   86.22 | X-H torsion
[ 9071 9050 9049 9047 ] final -119.88 input   59.99 | X-H torsion
[ 8251 8229 8230 8231 ] final  -64.38 input   84.12 | X-H torsion
[ 8543 8531 8532 8533 ] final -121.15 input  114.02 | X-H torsion
[ 10323 10307 10308 10309 ] final  178.62 input   62.28 | X-H torsion
[ 27205 8306 8305 8304 ] final   37.14 input   -0.00 | X-H torsion
[ 27220 8348 8347 8346 ] final -104.96 input    0.00 | X-H torsion
[ 27222 8400 8399 8398 ] final  163.95 input    0.00 | X-H torsion
[ 27224 8160 8159 8158 ] final    9.23 input    0.00 | X-H torsion
[ 27226 8232 8231 8230 ] final  -87.90 input    0.00 | X-H torsion
[ 27230 10310 10309 10308 ] final   91.17 input   -0.00 | X-H torsion

> <Gold.Protein.ActiveResidues>
 ASP403  LEU406  ILE407  GLN430  VAL431  PHE432  ASP433  ALA434  ARG435  ASP436 
 CYS437  TYR446  ASN449  THR465  ILE466 

> <Gold.Protein.RotatedAtoms>
  219.3480   39.8849   11.5501 H   0  0  0  0  0  0  0  0  0  0  0  0  # atno 8251 bound_to 8229
  216.8702   40.5361   11.2185 H   0  0  0  0  0  0  0  0  0  0  0  0  # atno 8319 bound_to 8303
  213.9707   39.1238   10.0457 H   0  0  0  0  0  0  0  0  0  0  0  0  # atno 8355 bound_to 8345
  211.3518   38.9480   11.2287 H   0  0  0  0  0  0  0  0  0  0  0  0  # atno 8419 bound_to 8397
  208.1805   38.8554   10.5099 H   0  0  0  0  0  0  0  0  0  0  0  0  # atno 8503 bound_to 8487
  207.8313   38.2184    7.1824 H   0  0  0  0  0  0  0  0  0  0  0  0  # atno 8543 bound_to 8531
  211.1043   39.4113    6.9070 H   0  0  0  0  0  0  0  0  0  0  0  0  # atno 9071 bound_to 9050
  217.0940   35.2979   11.8277 H   0  0  0  0  0  0  0  0  0  0  0  0  # atno 10323 bound_to 10307
  216.2390   39.9660    9.6869 LP  0  0  0  0  0  0  0  0  0  0  0  0  # atno 27204 bound_to 8303
  213.8266   41.0806    9.0222 LP  0  0  0  0  0  0  0  0  0  0  0  0  # atno 27205 bound_to 8306
  212.3163   40.2417    9.1453 LP  0  0  0  0  0  0  0  0  0  0  0  0  # atno 27206 bound_to 8306
  213.6103   37.8042   11.1289 LP  0  0  0  0  0  0  0  0  0  0  0  0  # atno 27211 bound_to 8345
  210.9949   37.7066   10.0547 LP  0  0  0  0  0  0  0  0  0  0  0  0  # atno 27212 bound_to 8397
  209.2488   38.9274    9.1289 LP  0  0  0  0  0  0  0  0  0  0  0  0  # atno 27213 bound_to 8487
  211.2831   40.0898    5.4393 LP  0  0  0  0  0  0  0  0  0  0  0  0  # atno 27218 bound_to 9050
  212.4003   40.3462    6.6023 LP  0  0  0  0  0  0  0  0  0  0  0  0  # atno 27219 bound_to 9050
  209.6645   36.7639    8.8263 LP  0  0  0  0  0  0  0  0  0  0  0  0  # atno 27220 bound_to 8348
  210.6592   35.5956    9.6298 LP  0  0  0  0  0  0  0  0  0  0  0  0  # atno 27221 bound_to 8348
  206.2268   38.4145   10.7094 LP  0  0  0  0  0  0  0  0  0  0  0  0  # atno 27222 bound_to 8400
  206.9820   37.3105   11.8098 LP  0  0  0  0  0  0  0  0  0  0  0  0  # atno 27223 bound_to 8400
  219.9017   42.2355   11.7532 LP  0  0  0  0  0  0  0  0  0  0  0  0  # atno 27224 bound_to 8160
  218.6333   41.7086   10.6980 LP  0  0  0  0  0  0  0  0  0  0  0  0  # atno 27225 bound_to 8160
  216.2355   37.3864   10.1116 LP  0  0  0  0  0  0  0  0  0  0  0  0  # atno 27226 bound_to 8232
  216.8838   37.7038   11.6861 LP  0  0  0  0  0  0  0  0  0  0  0  0  # atno 27227 bound_to 8232
  220.0028   38.6228   10.5356 LP  0  0  0  0  0  0  0  0  0  0  0  0  # atno 27228 bound_to 8229
  207.8061   37.1109    8.5414 LP  0  0  0  0  0  0  0  0  0  0  0  0  # atno 27229 bound_to 8531
  213.2701   36.4025   10.9431 LP  0  0  0  0  0  0  0  0  0  0  0  0  # atno 27230 bound_to 10310
  212.7352   36.5462   12.5842 LP  0  0  0  0  0  0  0  0  0  0  0  0  # atno 27231 bound_to 10310

> <Gold.Score>
     Fitness  S(hb_ext) S(vdw_ext)  S(hb_int)    S(int)      intcor
     28.80       0.00      21.84       0.00      -1.23      -0.76

> <Gold.Goldscore.Fitness>
28.8048

> <Gold.Goldscore.Internal.Vdw>
-1.5596

> <Gold.Goldscore.Internal.Torsion>
-0.4318

> <Gold.Goldscore.External.Vdw>
21.8410

> <Gold.Goldscore.Internal.HBond>
0.0000

> <Gold.Goldscore.External.HBond>
0.0000

> <Gold.Goldscore.Internal.Correction>
-0.7650

> <Gold.Goldscore.Internal.Vdw.Weighted>
-1.5596

> <Gold.Goldscore.Internal.Torsion.Weighted>
-0.4318

> <Gold.Goldscore.External.Vdw.Weighted>
30.0313

> <Gold.Goldscore.Internal.HBond.Weighted>
0.0000

> <Gold.Goldscore.External.HBond.Weighted>
0.0000

> <Gold.Goldscore.Internal.Correction.Weighted>
-0.7650

> <Gold.Rescore>
     Score     S(PLP)   S(hbond)     S(cho)   S(metal)  DE(clash)   DE(tors)     intcor
     19.14     -21.08       0.00       0.00       0.00       0.75       0.60       ----

> <Gold.PLP.Fitness>
19.1388

> <Gold.PLP.PLP>
-21.0849

> <Gold.PLP.part.hbond>
0.0000

> <Gold.PLP.part.metal>
0.0000

> <Gold.PLP.part.buried>
-3.9510

> <Gold.PLP.part.nonpolar>
-17.7132

> <Gold.PLP.part.repulsive>
0.4376

> <Gold.PLP.ligand.clash>
0.7542

> <Gold.PLP.ligand.torsion>
0.5960

> <Gold.PLP.Chemscore.Hbond>
0.0000

> <Gold.PLP.Chemscore.CHOScore>
0.0000

> <Gold.PLP.Chemscore.Metal>
0.0000

> <Gold.PLP.Chemscore.Internal.Correction>
   9.000000E+99

