#       Name:                CT1002167954
#       Creating user name   hitesit
#       Creation time:       Sun Apr 16 23:03:05 2023


#       File generated by GOLD software.
#

@<TRIPOS>MOLECULE
CT1002167954|ligand_prepared|mol2|1|dock2
    29    30     1
SMALL
NO_CHARGES


@<TRIPOS>ATOM
      1 C1         207.1997  42.2274  13.1709 C.3            1 RES1               0.0000
      2 C2         208.4992  42.3031  12.3437 C.ar           1 RES1               0.0000
      3 C3         206.1030  41.7857  12.2063 C.2            1 RES1               0.0000
      4 C4         207.4698  41.2394  14.3003 C.2            1 RES1               0.0000
      5 C5         206.7830  43.5751  13.8045 C.3            1 RES1               0.0000
      6 C6         209.4914  43.2245  12.6654 C.ar           1 RES1               0.0000
      7 C7         208.7211  41.4579  11.2597 C.ar           1 RES1               0.0000
      8 N8         205.6485  40.5041  12.3104 N.am           1 RES1               0.0000
      9 O9         205.6714  42.5382  11.3416 O.2            1 RES1               0.0000
     10 N10        206.7630  40.0655  14.3093 N.am           1 RES1               0.0000
     11 O11        208.3003  41.4597  15.1733 O.2            1 RES1               0.0000
     12 C12        205.3623  43.5846  14.3464 C.3            1 RES1               0.0000
     13 C13        210.6641  43.2963  11.9320 C.ar           1 RES1               0.0000
     14 C14        209.8945  41.5316  10.5275 C.ar           1 RES1               0.0000
     15 C15        205.8868  39.6396  13.3485 C.2            1 RES1               0.0000
     16 C16        210.8666  42.4498  10.8629 C.ar           1 RES1               0.0000
     17 O17        205.3307  38.5463  13.3990 O.2            1 RES1               0.0000
     18 H18        207.4747  43.8093  14.6231 H              1 RES1               0.0000
     19 H19        206.8780  44.3649  13.0490 H              1 RES1               0.0000
     20 H20        209.3487  43.9005  13.5019 H              1 RES1               0.0000
     21 H21        207.9697  40.7284  10.9769 H              1 RES1               0.0000
     22 H22        205.0789  40.1562  11.5457 H              1 RES1               0.0000
     23 H23        206.9029  39.4524  15.1061 H              1 RES1               0.0000
     24 H24        205.1211  44.5531  14.7796 H              1 RES1               0.0000
     25 H25        204.6457  43.3801  13.5536 H              1 RES1               0.0000
     26 H26        205.2388  42.8279  15.1183 H              1 RES1               0.0000
     27 H27        211.4254  44.0217  12.1993 H              1 RES1               0.0000
     28 H28        210.0494  40.8638   9.6865 H              1 RES1               0.0000
     29 H29        211.7855  42.5060  10.2888 H              1 RES1               0.0000
@<TRIPOS>BOND
    1    1    2 1     
    2    1    3 1     
    3    1    4 1     
    4    1    5 1     
    5    2    6 ar    
    6    2    7 ar    
    7    3    8 1     
    8    3    9 2     
    9    4   10 1     
   10    4   11 2     
   11    5   12 1     
   12    5   18 1     
   13    5   19 1     
   14    6   13 ar    
   15    6   20 1     
   16    7   14 ar    
   17    7   21 1     
   18    8   15 1     
   19    8   22 1     
   20   10   15 1     
   21   10   23 1     
   22   12   24 1     
   23   12   25 1     
   24   12   26 1     
   25   13   16 ar    
   26   13   27 1     
   27   14   16 ar    
   28   14   28 1     
   29   15   17 2     
   30   16   29 1     
@<TRIPOS>SUBSTRUCTURE
      1 RES1           1
@<TRIPOS>SET
DONOR_HYDROGENS      STATIC     ATOMS    <user>   **** ""
2 22 23
ATOM$RED        STATIC     ATOMS    COLORGROUP SYSTEM
2 22 23
@<TRIPOS>COMMENT
> <Gold.Version>
2022.3.0

> <Gold.Id.Protein>
unknown|4v3u_clean|pdb

> <Gold.Protein.RotatedTorsions>
[ 8319 8303 8304 8305 ] final   58.91 input  100.38 | X-H torsion
[ 8355 8345 8346 8347 ] final -146.26 input   76.03 | X-H torsion
[ 8419 8397 8398 8399 ] final  118.49 input  108.00 | X-H torsion
[ 8503 8487 8488 8489 ] final  -72.79 input   86.22 | X-H torsion
[ 9071 9050 9049 9047 ] final  112.18 input   59.99 | X-H torsion
[ 8251 8229 8230 8231 ] final -131.59 input   84.12 | X-H torsion
[ 8543 8531 8532 8533 ] final -170.40 input  114.02 | X-H torsion
[ 10323 10307 10308 10309 ] final -132.81 input   62.28 | X-H torsion
[ 27205 8306 8305 8304 ] final  178.90 input   -0.00 | X-H torsion
[ 27220 8348 8347 8346 ] final  -45.12 input    0.00 | X-H torsion
[ 27222 8400 8399 8398 ] final -124.16 input    0.00 | X-H torsion
[ 27224 8160 8159 8158 ] final -166.34 input    0.00 | X-H torsion
[ 27226 8232 8231 8230 ] final  144.57 input    0.00 | X-H torsion
[ 27230 10310 10309 10308 ] final  -35.62 input   -0.00 | X-H torsion

> <Gold.Protein.ActiveResidues>
 ASP403  LEU406  ILE407  GLN430  VAL431  PHE432  ASP433  ALA434  ARG435  ASP436 
 CYS437  TYR446  ASN449  THR465  ILE466 

> <Gold.Protein.RotatedAtoms>
  220.0045   40.0444   10.8446 H   0  0  0  0  0  0  0  0  0  0  0  0  # atno 8251 bound_to 8229
  216.1947   40.8273    9.8602 H   0  0  0  0  0  0  0  0  0  0  0  0  # atno 8319 bound_to 8303
  214.1710   38.9349    9.9586 H   0  0  0  0  0  0  0  0  0  0  0  0  # atno 8355 bound_to 8345
  211.3792   38.9008   11.2665 H   0  0  0  0  0  0  0  0  0  0  0  0  # atno 8419 bound_to 8397
  208.2412   38.2564   10.1957 H   0  0  0  0  0  0  0  0  0  0  0  0  # atno 8503 bound_to 8487
  208.5041   37.9880    7.4082 H   0  0  0  0  0  0  0  0  0  0  0  0  # atno 8543 bound_to 8531
  211.3925   40.1596    5.4291 H   0  0  0  0  0  0  0  0  0  0  0  0  # atno 9071 bound_to 9050
  216.9230   34.7142   11.4315 H   0  0  0  0  0  0  0  0  0  0  0  0  # atno 10323 bound_to 10307
  216.8888   39.6858   10.9936 LP  0  0  0  0  0  0  0  0  0  0  0  0  # atno 27204 bound_to 8303
  212.6258   40.0075    8.7314 LP  0  0  0  0  0  0  0  0  0  0  0  0  # atno 27205 bound_to 8306
  213.5172   41.3147    9.4360 LP  0  0  0  0  0  0  0  0  0  0  0  0  # atno 27206 bound_to 8306
  213.4131   37.9902   11.2147 LP  0  0  0  0  0  0  0  0  0  0  0  0  # atno 27211 bound_to 8345
  210.9679   37.7530   10.0175 LP  0  0  0  0  0  0  0  0  0  0  0  0  # atno 27212 bound_to 8397
  209.1896   39.5120    9.4356 LP  0  0  0  0  0  0  0  0  0  0  0  0  # atno 27213 bound_to 8487
  212.3779   40.2881    6.7171 LP  0  0  0  0  0  0  0  0  0  0  0  0  # atno 27218 bound_to 9050
  211.0150   39.3938    6.8138 LP  0  0  0  0  0  0  0  0  0  0  0  0  # atno 27219 bound_to 9050
  210.3547   36.4355    8.4235 LP  0  0  0  0  0  0  0  0  0  0  0  0  # atno 27220 bound_to 8348
  209.9690   35.9239   10.0326 LP  0  0  0  0  0  0  0  0  0  0  0  0  # atno 27221 bound_to 8348
  206.4560   37.4429   10.5167 LP  0  0  0  0  0  0  0  0  0  0  0  0  # atno 27222 bound_to 8400
  206.7528   38.2821   12.0025 LP  0  0  0  0  0  0  0  0  0  0  0  0  # atno 27223 bound_to 8400
  218.5941   41.7032   10.7520 LP  0  0  0  0  0  0  0  0  0  0  0  0  # atno 27224 bound_to 8160
  219.9409   42.2409   11.6992 LP  0  0  0  0  0  0  0  0  0  0  0  0  # atno 27225 bound_to 8160
  216.1360   37.8399   11.5942 LP  0  0  0  0  0  0  0  0  0  0  0  0  # atno 27226 bound_to 8232
  216.9834   37.2503   10.2035 LP  0  0  0  0  0  0  0  0  0  0  0  0  # atno 27227 bound_to 8232
  219.3598   38.4666   11.2265 LP  0  0  0  0  0  0  0  0  0  0  0  0  # atno 27228 bound_to 8229
  207.1617   37.3316    8.3252 LP  0  0  0  0  0  0  0  0  0  0  0  0  # atno 27229 bound_to 8531
  213.4362   36.8355   12.4207 LP  0  0  0  0  0  0  0  0  0  0  0  0  # atno 27230 bound_to 10310
  212.5691   36.1133   11.1067 LP  0  0  0  0  0  0  0  0  0  0  0  0  # atno 27231 bound_to 10310

> <Gold.Score>
     Fitness  S(hb_ext) S(vdw_ext)  S(hb_int)    S(int)      intcor
     30.34       0.00      22.58       0.00      -0.70      -0.79

> <Gold.Goldscore.Fitness>
30.3426

> <Gold.Goldscore.Internal.Vdw>
-0.8513

> <Gold.Goldscore.Internal.Torsion>
-0.6420

> <Gold.Goldscore.External.Vdw>
22.5780

> <Gold.Goldscore.Internal.HBond>
0.0000

> <Gold.Goldscore.External.HBond>
0.0000

> <Gold.Goldscore.Internal.Correction>
-0.7912

> <Gold.Goldscore.Internal.Vdw.Weighted>
-0.8513

> <Gold.Goldscore.Internal.Torsion.Weighted>
-0.6420

> <Gold.Goldscore.External.Vdw.Weighted>
31.0447

> <Gold.Goldscore.Internal.HBond.Weighted>
0.0000

> <Gold.Goldscore.External.HBond.Weighted>
0.0000

> <Gold.Goldscore.Internal.Correction.Weighted>
-0.7912

> <Gold.Rescore>
     Score     S(PLP)   S(hbond)     S(cho)   S(metal)  DE(clash)   DE(tors)     intcor
     27.38     -26.30       0.47       0.00       0.00       0.00       0.16       ----

> <Gold.PLP.Fitness>
27.3762

> <Gold.PLP.PLP>
-26.3030

> <Gold.PLP.part.hbond>
-1.5341

> <Gold.PLP.part.metal>
0.0000

> <Gold.PLP.part.buried>
-5.4952

> <Gold.PLP.part.nonpolar>
-19.7563

> <Gold.PLP.part.repulsive>
0.8541

> <Gold.PLP.ligand.clash>
0.0000

> <Gold.PLP.ligand.torsion>
0.1646

> <Gold.PLP.Chemscore.Hbond>
0.4675

> <Gold.PLP.Chemscore.CHOScore>
0.0000

> <Gold.PLP.Chemscore.Metal>
0.0000

> <Gold.PLP.Chemscore.Internal.Correction>
   9.000000E+99

