#       Name:                CT1002167954
#       Creating user name   hitesit
#       Creation time:       Sun Apr 16 23:03:08 2023


#       File generated by GOLD software.
#

@<TRIPOS>MOLECULE
CT1002167954|ligand_prepared|mol2|1|dock9
    29    30     1
SMALL
NO_CHARGES


@<TRIPOS>ATOM
      1 C1         206.7031  41.6162  13.7116 C.3            1 RES1               0.0000
      2 C2         207.9514  41.9302  12.8620 C.ar           1 RES1               0.0000
      3 C3         207.2045  41.3501  15.1280 C.2            1 RES1               0.0000
      4 C4         205.7897  42.8313  13.5931 C.2            1 RES1               0.0000
      5 C5         205.9143  40.3767  13.2289 C.3            1 RES1               0.0000
      6 C6         208.0792  41.4184  11.5742 C.ar           1 RES1               0.0000
      7 C7         208.9805  42.7308  13.3506 C.ar           1 RES1               0.0000
      8 N8         206.9825  42.3127  16.0681 N.am           1 RES1               0.0000
      9 O9         207.8203  40.3286  15.4064 O.2            1 RES1               0.0000
     10 N10        205.5583  43.5732  14.7217 N.am           1 RES1               0.0000
     11 O11        205.2817  43.1625  12.5289 O.2            1 RES1               0.0000
     12 C12        204.8463  39.9109  14.2058 C.3            1 RES1               0.0000
     13 C13        209.1939  41.6992  10.8016 C.ar           1 RES1               0.0000
     14 C14        210.0945  43.0101  12.5763 C.ar           1 RES1               0.0000
     15 C15        206.1378  43.3868  15.9471 C.2            1 RES1               0.0000
     16 C16        210.2019  42.4955  11.3019 C.ar           1 RES1               0.0000
     17 O17        205.9212  44.1293  16.9005 O.2            1 RES1               0.0000
     18 H18        205.4368  40.6135  12.2701 H              1 RES1               0.0000
     19 H19        206.6195  39.5539  13.0580 H              1 RES1               0.0000
     20 H20        207.2971  40.7878  11.1645 H              1 RES1               0.0000
     21 H21        208.9179  43.1456  14.3509 H              1 RES1               0.0000
     22 H22        207.4916  42.2261  16.9420 H              1 RES1               0.0000
     23 H23        204.8922  44.3348  14.6409 H              1 RES1               0.0000
     24 H24        204.3232  39.0390  13.8186 H              1 RES1               0.0000
     25 H25        205.2893  39.6429  15.1628 H              1 RES1               0.0000
     26 H26        204.1135  40.6962  14.3795 H              1 RES1               0.0000
     27 H27        209.2743  41.2906   9.7997 H              1 RES1               0.0000
     28 H28        210.8857  43.6368  12.9744 H              1 RES1               0.0000
     29 H29        211.0749  42.7156  10.6963 H              1 RES1               0.0000
@<TRIPOS>BOND
    1    1    2 1     
    2    1    3 1     
    3    1    4 1     
    4    1    5 1     
    5    2    6 ar    
    6    2    7 ar    
    7    3    8 1     
    8    3    9 2     
    9    4   10 1     
   10    4   11 2     
   11    5   12 1     
   12    5   18 1     
   13    5   19 1     
   14    6   13 ar    
   15    6   20 1     
   16    7   14 ar    
   17    7   21 1     
   18    8   15 1     
   19    8   22 1     
   20   10   15 1     
   21   10   23 1     
   22   12   24 1     
   23   12   25 1     
   24   12   26 1     
   25   13   16 ar    
   26   13   27 1     
   27   14   16 ar    
   28   14   28 1     
   29   15   17 2     
   30   16   29 1     
@<TRIPOS>SUBSTRUCTURE
      1 RES1           1
@<TRIPOS>SET
DONOR_HYDROGENS      STATIC     ATOMS    <user>   **** ""
2 22 23
ATOM$RED        STATIC     ATOMS    COLORGROUP SYSTEM
2 22 23
@<TRIPOS>COMMENT
> <Gold.Version>
2022.3.0

> <Gold.Id.Protein>
unknown|4v3u_clean|pdb

> <Gold.Protein.RotatedTorsions>
[ 8319 8303 8304 8305 ] final   81.00 input  100.38 | X-H torsion
[ 8355 8345 8346 8347 ] final   27.70 input   76.03 | X-H torsion
[ 8419 8397 8398 8399 ] final   40.82 input  108.00 | X-H torsion
[ 8503 8487 8488 8489 ] final  -48.88 input   86.22 | X-H torsion
[ 9071 9050 9049 9047 ] final   64.62 input   59.99 | X-H torsion
[ 8251 8229 8230 8231 ] final  -48.19 input   84.12 | X-H torsion
[ 8543 8531 8532 8533 ] final  130.55 input  114.02 | X-H torsion
[ 10323 10307 10308 10309 ] final  141.69 input   62.28 | X-H torsion
[ 27205 8306 8305 8304 ] final -110.72 input   -0.00 | X-H torsion
[ 27220 8348 8347 8346 ] final  -27.46 input    0.00 | X-H torsion
[ 27222 8400 8399 8398 ] final  125.36 input    0.00 | X-H torsion
[ 27224 8160 8159 8158 ] final -109.31 input    0.00 | X-H torsion
[ 27226 8232 8231 8230 ] final   57.42 input    0.00 | X-H torsion
[ 27230 10310 10309 10308 ] final  131.62 input   -0.00 | X-H torsion

> <Gold.Protein.ActiveResidues>
 ASP403  LEU406  ILE407  GLN430  VAL431  PHE432  ASP433  ALA434  ARG435  ASP436 
 CYS437  TYR446  ASN449  THR465  ILE466 

> <Gold.Protein.RotatedAtoms>
  219.2237   39.6933   11.6480 H   0  0  0  0  0  0  0  0  0  0  0  0  # atno 8251 bound_to 8229
  216.2918   41.0366   10.1128 H   0  0  0  0  0  0  0  0  0  0  0  0  # atno 8319 bound_to 8303
  213.3545   38.0573   11.2417 H   0  0  0  0  0  0  0  0  0  0  0  0  # atno 8355 bound_to 8345
  210.8699   39.0786   10.3038 H   0  0  0  0  0  0  0  0  0  0  0  0  # atno 8419 bound_to 8397
  208.3972   38.0759    9.9177 H   0  0  0  0  0  0  0  0  0  0  0  0  # atno 8503 bound_to 8487
  208.6625   37.4202    8.0647 H   0  0  0  0  0  0  0  0  0  0  0  0  # atno 8543 bound_to 8531
  212.0347   40.4685    5.6769 H   0  0  0  0  0  0  0  0  0  0  0  0  # atno 9071 bound_to 9050
  216.9178   35.8259   11.8779 H   0  0  0  0  0  0  0  0  0  0  0  0  # atno 10323 bound_to 10307
  216.7954   39.4845   10.7506 LP  0  0  0  0  0  0  0  0  0  0  0  0  # atno 27204 bound_to 8303
  212.3054   40.5846    9.4803 LP  0  0  0  0  0  0  0  0  0  0  0  0  # atno 27205 bound_to 8306
  213.8376   40.7376    8.6872 LP  0  0  0  0  0  0  0  0  0  0  0  0  # atno 27206 bound_to 8306
  214.2171   38.8544    9.9513 LP  0  0  0  0  0  0  0  0  0  0  0  0  # atno 27211 bound_to 8345
  211.4689   37.5781   10.9643 LP  0  0  0  0  0  0  0  0  0  0  0  0  # atno 27212 bound_to 8397
  209.0373   39.6882    9.7069 LP  0  0  0  0  0  0  0  0  0  0  0  0  # atno 27213 bound_to 8487
  211.9634   39.8498    7.1799 LP  0  0  0  0  0  0  0  0  0  0  0  0  # atno 27218 bound_to 9050
  210.7823   39.5208    6.1013 LP  0  0  0  0  0  0  0  0  0  0  0  0  # atno 27219 bound_to 9050
  210.5542   36.2636    8.4605 LP  0  0  0  0  0  0  0  0  0  0  0  0  # atno 27220 bound_to 8348
  209.7696   36.0959    9.9956 LP  0  0  0  0  0  0  0  0  0  0  0  0  # atno 27221 bound_to 8348
  206.3296   38.6820   11.2048 LP  0  0  0  0  0  0  0  0  0  0  0  0  # atno 27222 bound_to 8400
  206.8792   37.0431   11.3144 LP  0  0  0  0  0  0  0  0  0  0  0  0  # atno 27223 bound_to 8400
  218.4976   41.7756   11.5700 LP  0  0  0  0  0  0  0  0  0  0  0  0  # atno 27224 bound_to 8160
  220.0374   42.1685   10.8812 LP  0  0  0  0  0  0  0  0  0  0  0  0  # atno 27225 bound_to 8160
  217.2718   37.5335   11.3915 LP  0  0  0  0  0  0  0  0  0  0  0  0  # atno 27226 bound_to 8232
  215.8475   37.5567   10.4062 LP  0  0  0  0  0  0  0  0  0  0  0  0  # atno 27227 bound_to 8232
  220.1245   38.8104   10.4397 LP  0  0  0  0  0  0  0  0  0  0  0  0  # atno 27228 bound_to 8229
  207.0099   37.8755    7.6963 LP  0  0  0  0  0  0  0  0  0  0  0  0  # atno 27229 bound_to 8531
  212.7253   36.1621   11.0051 LP  0  0  0  0  0  0  0  0  0  0  0  0  # atno 27230 bound_to 10310
  213.2800   36.7867   12.5223 LP  0  0  0  0  0  0  0  0  0  0  0  0  # atno 27231 bound_to 10310

> <Gold.Score>
     Fitness  S(hb_ext) S(vdw_ext)  S(hb_int)    S(int)      intcor
     28.45       0.00      21.15       0.00      -0.62      -0.76

> <Gold.Goldscore.Fitness>
28.4527

> <Gold.Goldscore.Internal.Vdw>
-0.8275

> <Gold.Goldscore.Internal.Torsion>
-0.5608

> <Gold.Goldscore.External.Vdw>
21.1463

> <Gold.Goldscore.Internal.HBond>
0.0000

> <Gold.Goldscore.External.HBond>
0.0000

> <Gold.Goldscore.Internal.Correction>
-0.7650

> <Gold.Goldscore.Internal.Vdw.Weighted>
-0.8275

> <Gold.Goldscore.Internal.Torsion.Weighted>
-0.5608

> <Gold.Goldscore.External.Vdw.Weighted>
29.0761

> <Gold.Goldscore.Internal.HBond.Weighted>
0.0000

> <Gold.Goldscore.External.HBond.Weighted>
0.0000

> <Gold.Goldscore.Internal.Correction.Weighted>
-0.7650

> <Gold.Rescore>
     Score     S(PLP)   S(hbond)     S(cho)   S(metal)  DE(clash)   DE(tors)     intcor
     21.82     -23.98       0.00       0.00       0.00       0.00       1.08       ----

> <Gold.PLP.Fitness>
21.8207

> <Gold.PLP.PLP>
-23.9848

> <Gold.PLP.part.hbond>
-1.0000

> <Gold.PLP.part.metal>
0.0000

> <Gold.PLP.part.buried>
-3.2377

> <Gold.PLP.part.nonpolar>
-19.7045

> <Gold.PLP.part.repulsive>
0.1624

> <Gold.PLP.ligand.clash>
0.0000

> <Gold.PLP.ligand.torsion>
1.0821

> <Gold.PLP.Chemscore.Hbond>
0.0000

> <Gold.PLP.Chemscore.CHOScore>
0.0000

> <Gold.PLP.Chemscore.Metal>
0.0000

> <Gold.PLP.Chemscore.Internal.Correction>
   9.000000E+99

