#       Name:                CT1002167954
#       Creating user name   hitesit
#       Creation time:       Sun Apr 16 23:03:06 2023


#       File generated by GOLD software.
#

@<TRIPOS>MOLECULE
CT1002167954|ligand_prepared|mol2|1|dock4
    29    30     1
SMALL
NO_CHARGES


@<TRIPOS>ATOM
      1 C1         208.0609  42.8891  13.1326 C.3            1 RES1               0.0000
      2 C2         209.1767  42.6698  12.0906 C.ar           1 RES1               0.0000
      3 C3         208.6269  43.8548  14.1696 C.2            1 RES1               0.0000
      4 C4         206.8613  43.4335  12.3650 C.2            1 RES1               0.0000
      5 C5         207.6184  41.5958  13.8558 C.3            1 RES1               0.0000
      6 C6         209.1895  41.5274  11.2960 C.ar           1 RES1               0.0000
      7 C7         210.1965  43.6005  11.9110 C.ar           1 RES1               0.0000
      8 N8         208.1699  45.1396  14.1523 N.am           1 RES1               0.0000
      9 O9         209.4902  43.5046  14.9648 O.2            1 RES1               0.0000
     10 N10        206.4545  44.7142  12.6337 N.am           1 RES1               0.0000
     11 O11        206.2751  42.7709  11.5179 O.2            1 RES1               0.0000
     12 C12        206.7136  41.8417  15.0529 C.3            1 RES1               0.0000
     13 C13        210.1841  41.3241  10.3538 C.ar           1 RES1               0.0000
     14 C14        211.1904  43.3951  10.9684 C.ar           1 RES1               0.0000
     15 C15        207.0733  45.6025  13.4704 C.2            1 RES1               0.0000
     16 C16        211.1849  42.2579  10.1890 C.ar           1 RES1               0.0000
     17 O17        206.6791  46.7557  13.6185 O.2            1 RES1               0.0000
     18 H18        207.0902  40.9540  13.1400 H              1 RES1               0.0000
     19 H19        208.5121  41.0567  14.1936 H              1 RES1               0.0000
     20 H20        208.4115  40.7803  11.4131 H              1 RES1               0.0000
     21 H21        210.2217  44.5020  12.5137 H              1 RES1               0.0000
     22 H22        208.6917  45.8191  14.6967 H              1 RES1               0.0000
     23 H23        205.6122  45.0349  12.1668 H              1 RES1               0.0000
     24 H24        206.4327  40.9018  15.5236 H              1 RES1               0.0000
     25 H25        207.2164  42.4562  15.7968 H              1 RES1               0.0000
     26 H26        205.8030  42.3541  14.7494 H              1 RES1               0.0000
     27 H27        210.1760  40.4268   9.7439 H              1 RES1               0.0000
     28 H28        211.9764  44.1324  10.8426 H              1 RES1               0.0000
     29 H29        211.9637  42.0986   9.4506 H              1 RES1               0.0000
@<TRIPOS>BOND
    1    1    2 1     
    2    1    3 1     
    3    1    4 1     
    4    1    5 1     
    5    2    6 ar    
    6    2    7 ar    
    7    3    8 1     
    8    3    9 2     
    9    4   10 1     
   10    4   11 2     
   11    5   12 1     
   12    5   18 1     
   13    5   19 1     
   14    6   13 ar    
   15    6   20 1     
   16    7   14 ar    
   17    7   21 1     
   18    8   15 1     
   19    8   22 1     
   20   10   15 1     
   21   10   23 1     
   22   12   24 1     
   23   12   25 1     
   24   12   26 1     
   25   13   16 ar    
   26   13   27 1     
   27   14   16 ar    
   28   14   28 1     
   29   15   17 2     
   30   16   29 1     
@<TRIPOS>SUBSTRUCTURE
      1 RES1           1
@<TRIPOS>SET
DONOR_HYDROGENS      STATIC     ATOMS    <user>   **** ""
2 22 23
ATOM$RED        STATIC     ATOMS    COLORGROUP SYSTEM
2 22 23
@<TRIPOS>COMMENT
> <Gold.Version>
2022.3.0

> <Gold.Id.Protein>
unknown|4v3u_clean|pdb

> <Gold.Protein.RotatedTorsions>
[ 8319 8303 8304 8305 ] final  159.56 input  100.38 | X-H torsion
[ 8355 8345 8346 8347 ] final  -79.17 input   76.03 | X-H torsion
[ 8419 8397 8398 8399 ] final -174.53 input  108.00 | X-H torsion
[ 8503 8487 8488 8489 ] final  -88.98 input   86.22 | X-H torsion
[ 9071 9050 9049 9047 ] final -173.10 input   59.99 | X-H torsion
[ 8251 8229 8230 8231 ] final   37.63 input   84.12 | X-H torsion
[ 8543 8531 8532 8533 ] final -163.56 input  114.02 | X-H torsion
[ 10323 10307 10308 10309 ] final -176.73 input   62.28 | X-H torsion
[ 27205 8306 8305 8304 ] final -109.21 input   -0.00 | X-H torsion
[ 27220 8348 8347 8346 ] final  116.08 input    0.00 | X-H torsion
[ 27222 8400 8399 8398 ] final    4.26 input    0.00 | X-H torsion
[ 27224 8160 8159 8158 ] final   -4.49 input    0.00 | X-H torsion
[ 27226 8232 8231 8230 ] final  -90.57 input    0.00 | X-H torsion
[ 27230 10310 10309 10308 ] final  -83.02 input   -0.00 | X-H torsion

> <Gold.Protein.ActiveResidues>
 ASP403  LEU406  ILE407  GLN430  VAL431  PHE432  ASP433  ALA434  ARG435  ASP436 
 CYS437  TYR446  ASN449  THR465  ILE466 

> <Gold.Protein.RotatedAtoms>
  219.2647   38.5311   11.3451 H   0  0  0  0  0  0  0  0  0  0  0  0  # atno 8251 bound_to 8229
  216.7862   40.7950   11.1004 H   0  0  0  0  0  0  0  0  0  0  0  0  # atno 8319 bound_to 8303
  213.4278   39.2548   10.4965 H   0  0  0  0  0  0  0  0  0  0  0  0  # atno 8355 bound_to 8345
  211.5818   37.9525   11.3223 H   0  0  0  0  0  0  0  0  0  0  0  0  # atno 8419 bound_to 8397
  208.1809   38.4435   10.3488 H   0  0  0  0  0  0  0  0  0  0  0  0  # atno 8503 bound_to 8487
  208.4309   38.0408    7.3510 H   0  0  0  0  0  0  0  0  0  0  0  0  # atno 8543 bound_to 8531
  210.7886   39.5083    6.1366 H   0  0  0  0  0  0  0  0  0  0  0  0  # atno 9071 bound_to 9050
  217.0976   35.2306   11.8037 H   0  0  0  0  0  0  0  0  0  0  0  0  # atno 10323 bound_to 10307
  216.3198   39.7169    9.8005 LP  0  0  0  0  0  0  0  0  0  0  0  0  # atno 27204 bound_to 8303
  212.3109   40.6021    9.4936 LP  0  0  0  0  0  0  0  0  0  0  0  0  # atno 27205 bound_to 8306
  213.8321   40.7201    8.6738 LP  0  0  0  0  0  0  0  0  0  0  0  0  # atno 27206 bound_to 8306
  214.1449   37.6753   10.6850 LP  0  0  0  0  0  0  0  0  0  0  0  0  # atno 27211 bound_to 8345
  210.7688   38.6855    9.9627 LP  0  0  0  0  0  0  0  0  0  0  0  0  # atno 27212 bound_to 8397
  209.2484   39.3295    9.2861 LP  0  0  0  0  0  0  0  0  0  0  0  0  # atno 27213 bound_to 8487
  212.0095   40.4664    5.6486 LP  0  0  0  0  0  0  0  0  0  0  0  0  # atno 27218 bound_to 9050
  211.9919   39.8718    7.1694 LP  0  0  0  0  0  0  0  0  0  0  0  0  # atno 27219 bound_to 9050
  210.2008   35.7677    9.9888 LP  0  0  0  0  0  0  0  0  0  0  0  0  # atno 27220 bound_to 8348
  210.1229   36.5917    8.4673 LP  0  0  0  0  0  0  0  0  0  0  0  0  # atno 27221 bound_to 8348
  206.9699   37.5608   11.9844 LP  0  0  0  0  0  0  0  0  0  0  0  0  # atno 27222 bound_to 8400
  206.2390   38.1643   10.5347 LP  0  0  0  0  0  0  0  0  0  0  0  0  # atno 27223 bound_to 8400
  219.7576   42.2090   11.8992 LP  0  0  0  0  0  0  0  0  0  0  0  0  # atno 27224 bound_to 8160
  218.7774   41.7351   10.5520 LP  0  0  0  0  0  0  0  0  0  0  0  0  # atno 27225 bound_to 8160
  216.1994   37.3982   10.1251 LP  0  0  0  0  0  0  0  0  0  0  0  0  # atno 27226 bound_to 8232
  216.9199   37.6920   11.6726 LP  0  0  0  0  0  0  0  0  0  0  0  0  # atno 27227 bound_to 8232
  220.0843   39.9485   10.7363 LP  0  0  0  0  0  0  0  0  0  0  0  0  # atno 27228 bound_to 8229
  207.2318   37.2810    8.3799 LP  0  0  0  0  0  0  0  0  0  0  0  0  # atno 27229 bound_to 8531
  212.8117   36.5861   12.6010 LP  0  0  0  0  0  0  0  0  0  0  0  0  # atno 27230 bound_to 10310
  213.1936   36.3627   10.9264 LP  0  0  0  0  0  0  0  0  0  0  0  0  # atno 27231 bound_to 10310

> <Gold.Score>
     Fitness  S(hb_ext) S(vdw_ext)  S(hb_int)    S(int)      intcor
     27.79       0.00      20.91       0.00      -0.96      -0.77

> <Gold.Goldscore.Fitness>
27.7911

> <Gold.Goldscore.Internal.Vdw>
-1.1726

> <Gold.Goldscore.Internal.Torsion>
-0.5543

> <Gold.Goldscore.External.Vdw>
20.9111

> <Gold.Goldscore.Internal.HBond>
0.0000

> <Gold.Goldscore.External.HBond>
0.0000

> <Gold.Goldscore.Internal.Correction>
-0.7653

> <Gold.Goldscore.Internal.Vdw.Weighted>
-1.1726

> <Gold.Goldscore.Internal.Torsion.Weighted>
-0.5543

> <Gold.Goldscore.External.Vdw.Weighted>
28.7527

> <Gold.Goldscore.Internal.HBond.Weighted>
0.0000

> <Gold.Goldscore.External.HBond.Weighted>
0.0000

> <Gold.Goldscore.Internal.Correction.Weighted>
-0.7653

> <Gold.Rescore>
     Score     S(PLP)   S(hbond)     S(cho)   S(metal)  DE(clash)   DE(tors)     intcor
     24.72     -26.80       0.00       0.00       0.00       0.00       1.04       ----

> <Gold.PLP.Fitness>
24.7247

> <Gold.PLP.PLP>
-26.8043

> <Gold.PLP.part.hbond>
-1.0000

> <Gold.PLP.part.metal>
0.0000

> <Gold.PLP.part.buried>
-4.4771

> <Gold.PLP.part.nonpolar>
-21.3933

> <Gold.PLP.part.repulsive>
0.7110

> <Gold.PLP.ligand.clash>
0.0000

> <Gold.PLP.ligand.torsion>
1.0398

> <Gold.PLP.Chemscore.Hbond>
0.0000

> <Gold.PLP.Chemscore.CHOScore>
0.0000

> <Gold.PLP.Chemscore.Metal>
0.0000

> <Gold.PLP.Chemscore.Internal.Correction>
   9.000000E+99

