#       Name:                CT1002167954
#       Creating user name   hitesit
#       Creation time:       Sun Apr 16 23:03:06 2023


#       File generated by GOLD software.
#

@<TRIPOS>MOLECULE
CT1002167954|ligand_prepared|mol2|1|dock5
    29    30     1
SMALL
NO_CHARGES


@<TRIPOS>ATOM
      1 C1         205.3281  40.2332  13.3329 C.3            1 RES1               0.0000
      2 C2         206.7074  40.9095  13.1945 C.ar           1 RES1               0.0000
      3 C3         204.3986  40.9527  12.3600 C.2            1 RES1               0.0000
      4 C4         205.5423  38.7580  13.0130 C.2            1 RES1               0.0000
      5 C5         204.7239  40.3313  14.7530 C.3            1 RES1               0.0000
      6 C6         207.4807  41.1787  14.3198 C.ar           1 RES1               0.0000
      7 C7         207.2200  41.2669  11.9503 C.ar           1 RES1               0.0000
      8 N8         204.0460  40.2942  11.2189 N.am           1 RES1               0.0000
      9 O9         204.0127  42.0957  12.5718 O.2            1 RES1               0.0000
     10 N10        204.9425  38.2508  11.8901 N.am           1 RES1               0.0000
     11 O11        206.2386  38.0341  13.7140 O.2            1 RES1               0.0000
     12 C12        203.2677  39.9004  14.8308 C.3            1 RES1               0.0000
     13 C13        208.7228  41.7807  14.2053 C.ar           1 RES1               0.0000
     14 C14        208.4623  41.8690  11.8380 C.ar           1 RES1               0.0000
     15 C15        204.2293  38.9593  10.9619 C.2            1 RES1               0.0000
     16 C16        209.2146  42.1258  12.9645 C.ar           1 RES1               0.0000
     17 O17        203.7666  38.4428   9.9488 O.2            1 RES1               0.0000
     18 H18        205.3144  39.7041  15.4321 H              1 RES1               0.0000
     19 H19        204.8040  41.3689  15.1000 H              1 RES1               0.0000
     20 H20        207.1091  40.9164  15.3048 H              1 RES1               0.0000
     21 H21        206.6452  41.0755  11.0505 H              1 RES1               0.0000
     22 H22        203.6054  40.8453  10.4892 H              1 RES1               0.0000
     23 H23        205.0364  37.2526  11.7315 H              1 RES1               0.0000
     24 H24        202.8932  39.9886  15.8485 H              1 RES1               0.0000
     25 H25        202.6472  40.5198  14.1865 H              1 RES1               0.0000
     26 H26        203.1546  38.8649  14.5167 H              1 RES1               0.0000
     27 H27        209.3103  41.9818  15.0950 H              1 RES1               0.0000
     28 H28        208.8452  42.1396  10.8595 H              1 RES1               0.0000
     29 H29        210.1878  42.5970  12.8750 H              1 RES1               0.0000
@<TRIPOS>BOND
    1    1    2 1     
    2    1    3 1     
    3    1    4 1     
    4    1    5 1     
    5    2    6 ar    
    6    2    7 ar    
    7    3    8 1     
    8    3    9 2     
    9    4   10 1     
   10    4   11 2     
   11    5   12 1     
   12    5   18 1     
   13    5   19 1     
   14    6   13 ar    
   15    6   20 1     
   16    7   14 ar    
   17    7   21 1     
   18    8   15 1     
   19    8   22 1     
   20   10   15 1     
   21   10   23 1     
   22   12   24 1     
   23   12   25 1     
   24   12   26 1     
   25   13   16 ar    
   26   13   27 1     
   27   14   16 ar    
   28   14   28 1     
   29   15   17 2     
   30   16   29 1     
@<TRIPOS>SUBSTRUCTURE
      1 RES1           1
@<TRIPOS>SET
DONOR_HYDROGENS      STATIC     ATOMS    <user>   **** ""
2 22 23
ATOM$RED        STATIC     ATOMS    COLORGROUP SYSTEM
2 22 23
@<TRIPOS>COMMENT
> <Gold.Version>
2022.3.0

> <Gold.Id.Protein>
unknown|4v3u_clean|pdb

> <Gold.Protein.RotatedTorsions>
[ 8319 8303 8304 8305 ] final -133.41 input  100.38 | X-H torsion
[ 8355 8345 8346 8347 ] final -151.03 input   76.03 | X-H torsion
[ 8419 8397 8398 8399 ] final  -42.76 input  108.00 | X-H torsion
[ 8503 8487 8488 8489 ] final   46.06 input   86.22 | X-H torsion
[ 9071 9050 9049 9047 ] final  113.54 input   59.99 | X-H torsion
[ 8251 8229 8230 8231 ] final  159.82 input   84.12 | X-H torsion
[ 8543 8531 8532 8533 ] final   26.09 input  114.02 | X-H torsion
[ 10323 10307 10308 10309 ] final   16.36 input   62.28 | X-H torsion
[ 27205 8306 8305 8304 ] final   74.36 input   -0.00 | X-H torsion
[ 27220 8348 8347 8346 ] final  -95.48 input    0.00 | X-H torsion
[ 27222 8400 8399 8398 ] final -127.24 input    0.00 | X-H torsion
[ 27224 8160 8159 8158 ] final  144.33 input    0.00 | X-H torsion
[ 27226 8232 8231 8230 ] final   40.30 input    0.00 | X-H torsion
[ 27230 10310 10309 10308 ] final -122.74 input   -0.00 | X-H torsion

> <Gold.Protein.ActiveResidues>
 ASP403  LEU406  ILE407  GLN430  VAL431  PHE432  ASP433  ALA434  ARG435  ASP436 
 CYS437  TYR446  ASN449  THR465  ILE466 

> <Gold.Protein.RotatedAtoms>
  220.2583   39.2062   10.3732 H   0  0  0  0  0  0  0  0  0  0  0  0  # atno 8251 bound_to 8229
  216.9081   39.8172   11.1340 H   0  0  0  0  0  0  0  0  0  0  0  0  # atno 8319 bound_to 8303
  214.2158   38.8782    9.9472 H   0  0  0  0  0  0  0  0  0  0  0  0  # atno 8355 bound_to 8345
  210.8647   37.9830    9.8850 H   0  0  0  0  0  0  0  0  0  0  0  0  # atno 8419 bound_to 8397
  209.1969   38.6917    9.0929 H   0  0  0  0  0  0  0  0  0  0  0  0  # atno 8503 bound_to 8487
  207.3222   37.1717    8.4460 H   0  0  0  0  0  0  0  0  0  0  0  0  # atno 8543 bound_to 8531
  211.3739   40.1474    5.4306 H   0  0  0  0  0  0  0  0  0  0  0  0  # atno 9071 bound_to 9050
  215.7754   35.8026   10.8044 H   0  0  0  0  0  0  0  0  0  0  0  0  # atno 10323 bound_to 10307
  216.2026   40.6576    9.7682 LP  0  0  0  0  0  0  0  0  0  0  0  0  # atno 27204 bound_to 8303
  213.8169   40.6783    8.6432 LP  0  0  0  0  0  0  0  0  0  0  0  0  # atno 27205 bound_to 8306
  212.3261   40.6439    9.5243 LP  0  0  0  0  0  0  0  0  0  0  0  0  # atno 27206 bound_to 8306
  213.3690   38.0460   11.2259 LP  0  0  0  0  0  0  0  0  0  0  0  0  # atno 27211 bound_to 8345
  211.4740   38.6555   11.3761 LP  0  0  0  0  0  0  0  0  0  0  0  0  # atno 27212 bound_to 8397
  208.2568   39.0872   10.5119 LP  0  0  0  0  0  0  0  0  0  0  0  0  # atno 27213 bound_to 8487
  212.3828   40.2986    6.6979 LP  0  0  0  0  0  0  0  0  0  0  0  0  # atno 27218 bound_to 9050
  211.0288   39.3956    6.8315 LP  0  0  0  0  0  0  0  0  0  0  0  0  # atno 27219 bound_to 9050
  209.7557   36.7487    8.7169 LP  0  0  0  0  0  0  0  0  0  0  0  0  # atno 27220 bound_to 8348
  210.5681   35.6107    9.7392 LP  0  0  0  0  0  0  0  0  0  0  0  0  # atno 27221 bound_to 8348
  206.4375   37.4821   10.4997 LP  0  0  0  0  0  0  0  0  0  0  0  0  # atno 27222 bound_to 8400
  206.7714   38.2429   12.0195 LP  0  0  0  0  0  0  0  0  0  0  0  0  # atno 27223 bound_to 8400
  219.1935   41.8421   10.3726 LP  0  0  0  0  0  0  0  0  0  0  0  0  # atno 27224 bound_to 8160
  219.3415   42.1020   12.0786 LP  0  0  0  0  0  0  0  0  0  0  0  0  # atno 27225 bound_to 8160
  217.3756   37.4469   11.1719 LP  0  0  0  0  0  0  0  0  0  0  0  0  # atno 27226 bound_to 8232
  215.7437   37.6433   10.6258 LP  0  0  0  0  0  0  0  0  0  0  0  0  # atno 27227 bound_to 8232
  219.1114   39.2874   11.6881 LP  0  0  0  0  0  0  0  0  0  0  0  0  # atno 27228 bound_to 8229
  208.2938   38.1135    7.3311 LP  0  0  0  0  0  0  0  0  0  0  0  0  # atno 27229 bound_to 8531
  212.3672   36.3125   12.3293 LP  0  0  0  0  0  0  0  0  0  0  0  0  # atno 27230 bound_to 10310
  213.6381   36.6363   11.1980 LP  0  0  0  0  0  0  0  0  0  0  0  0  # atno 27231 bound_to 10310

> <Gold.Score>
     Fitness  S(hb_ext) S(vdw_ext)  S(hb_int)    S(int)      intcor
     28.56       0.00      21.22       0.00      -0.62      -0.76

> <Gold.Goldscore.Fitness>
28.5590

> <Gold.Goldscore.Internal.Vdw>
-0.8298

> <Gold.Goldscore.Internal.Torsion>
-0.5556

> <Gold.Goldscore.External.Vdw>
21.2215

> <Gold.Goldscore.Internal.HBond>
0.0000

> <Gold.Goldscore.External.HBond>
0.0000

> <Gold.Goldscore.Internal.Correction>
-0.7650

> <Gold.Goldscore.Internal.Vdw.Weighted>
-0.8298

> <Gold.Goldscore.Internal.Torsion.Weighted>
-0.5556

> <Gold.Goldscore.External.Vdw.Weighted>
29.1796

> <Gold.Goldscore.Internal.HBond.Weighted>
0.0000

> <Gold.Goldscore.External.HBond.Weighted>
0.0000

> <Gold.Goldscore.Internal.Correction.Weighted>
-0.7650

> <Gold.Rescore>
     Score     S(PLP)   S(hbond)     S(cho)   S(metal)  DE(clash)   DE(tors)     intcor
     23.33     -24.94       0.00       0.00       0.00       0.03       0.79       ----

> <Gold.PLP.Fitness>
23.3337

> <Gold.PLP.PLP>
-24.9436

> <Gold.PLP.part.hbond>
-1.0000

> <Gold.PLP.part.metal>
0.0000

> <Gold.PLP.part.buried>
-4.7322

> <Gold.PLP.part.nonpolar>
-20.3682

> <Gold.PLP.part.repulsive>
1.1255

> <Gold.PLP.ligand.clash>
0.0264

> <Gold.PLP.ligand.torsion>
0.7917

> <Gold.PLP.Chemscore.Hbond>
0.0000

> <Gold.PLP.Chemscore.CHOScore>
0.0000

> <Gold.PLP.Chemscore.Metal>
0.0000

> <Gold.PLP.Chemscore.Internal.Correction>
   9.000000E+99

