#       Name:                CT1002167954
#       Creating user name   hitesit
#       Creation time:       Sun Apr 16 23:03:04 2023


#       File generated by GOLD software.
#

@<TRIPOS>MOLECULE
CT1002167954|ligand_prepared|mol2|1|dock1
    29    30     1
SMALL
NO_CHARGES


@<TRIPOS>ATOM
      1 C1         208.6787  43.0257  12.3618 C.3            1 RES1               0.0000
      2 C2         209.6400  42.7152  11.1963 C.ar           1 RES1               0.0000
      3 C3         209.2721  44.2223  13.0995 C.2            1 RES1               0.0000
      4 C4         207.3171  43.2962  11.7313 C.2            1 RES1               0.0000
      5 C5         208.5172  41.8605  13.3657 C.3            1 RES1               0.0000
      6 C6         210.5169  43.6867  10.7231 C.ar           1 RES1               0.0000
      7 C7         209.6632  41.4635  10.5870 C.ar           1 RES1               0.0000
      8 N8         208.6611  45.4308  12.9376 N.am           1 RES1               0.0000
      9 O9         210.2840  44.1150  13.7813 O.2            1 RES1               0.0000
     10 N10        206.7997  44.5606  11.8385 N.am           1 RES1               0.0000
     11 O11        206.6952  42.4303  11.1282 O.2            1 RES1               0.0000
     12 C12        207.7303  42.2306  14.6131 C.3            1 RES1               0.0000
     13 C13        211.3877  43.4159   9.6807 C.ar           1 RES1               0.0000
     14 C14        210.5346  41.1948   9.5445 C.ar           1 RES1               0.0000
     15 C15        207.4239  45.6480  12.3865 C.2            1 RES1               0.0000
     16 C16        211.3974  42.1698   9.0910 C.ar           1 RES1               0.0000
     17 O17        206.9162  46.7657  12.3970 O.2            1 RES1               0.0000
     18 H18        208.0100  41.0283  12.8622 H              1 RES1               0.0000
     19 H19        209.5133  41.5132  13.6668 H              1 RES1               0.0000
     20 H20        210.5218  44.6739  11.1731 H              1 RES1               0.0000
     21 H21        208.9925  40.6815  10.9266 H              1 RES1               0.0000
     22 H22        209.1713  46.2486  13.2556 H              1 RES1               0.0000
     23 H23        205.8624  44.7044  11.4764 H              1 RES1               0.0000
     24 H24        207.6466  41.3778  15.2835 H              1 RES1               0.0000
     25 H25        208.2199  43.0388  15.1524 H              1 RES1               0.0000
     26 H26        206.7255  42.5568  14.3526 H              1 RES1               0.0000
     27 H27        212.0638  44.1870   9.3265 H              1 RES1               0.0000
     28 H28        210.5384  40.2128   9.0829 H              1 RES1               0.0000
     29 H29        212.0799  41.9577   8.2746 H              1 RES1               0.0000
@<TRIPOS>BOND
    1    1    2 1     
    2    1    3 1     
    3    1    4 1     
    4    1    5 1     
    5    2    6 ar    
    6    2    7 ar    
    7    3    8 1     
    8    3    9 2     
    9    4   10 1     
   10    4   11 2     
   11    5   12 1     
   12    5   18 1     
   13    5   19 1     
   14    6   13 ar    
   15    6   20 1     
   16    7   14 ar    
   17    7   21 1     
   18    8   15 1     
   19    8   22 1     
   20   10   15 1     
   21   10   23 1     
   22   12   24 1     
   23   12   25 1     
   24   12   26 1     
   25   13   16 ar    
   26   13   27 1     
   27   14   16 ar    
   28   14   28 1     
   29   15   17 2     
   30   16   29 1     
@<TRIPOS>SUBSTRUCTURE
      1 RES1           1
@<TRIPOS>SET
DONOR_HYDROGENS      STATIC     ATOMS    <user>   **** ""
2 22 23
ATOM$RED        STATIC     ATOMS    COLORGROUP SYSTEM
2 22 23
@<TRIPOS>COMMENT
> <Gold.Version>
2022.3.0

> <Gold.Id.Protein>
unknown|4v3u_clean|pdb

> <Gold.Protein.RotatedTorsions>
[ 8319 8303 8304 8305 ] final  -87.72 input  100.38 | X-H torsion
[ 8355 8345 8346 8347 ] final    3.16 input   76.03 | X-H torsion
[ 8419 8397 8398 8399 ] final  172.62 input  108.00 | X-H torsion
[ 8503 8487 8488 8489 ] final   25.47 input   86.22 | X-H torsion
[ 9071 9050 9049 9047 ] final  -54.16 input   59.99 | X-H torsion
[ 8251 8229 8230 8231 ] final   57.72 input   84.12 | X-H torsion
[ 8543 8531 8532 8533 ] final -148.19 input  114.02 | X-H torsion
[ 10323 10307 10308 10309 ] final  -44.39 input   62.28 | X-H torsion
[ 27205 8306 8305 8304 ] final -163.39 input   -0.00 | X-H torsion
[ 27220 8348 8347 8346 ] final  -27.69 input    0.00 | X-H torsion
[ 27222 8400 8399 8398 ] final  146.08 input    0.00 | X-H torsion
[ 27224 8160 8159 8158 ] final  -11.08 input    0.00 | X-H torsion
[ 27226 8232 8231 8230 ] final  -75.36 input    0.00 | X-H torsion
[ 27230 10310 10309 10308 ] final  -26.38 input   -0.00 | X-H torsion

> <Gold.Protein.ActiveResidues>
 ASP403  LEU406  ILE407  GLN430  VAL431  PHE432  ASP433  ALA434  ARG435  ASP436 
 CYS437  TYR446  ASN449  THR465  ILE466 

> <Gold.Protein.RotatedAtoms>
  219.4360   38.4031   11.1235 H   0  0  0  0  0  0  0  0  0  0  0  0  # atno 8251 bound_to 8229
  216.7135   39.3882   10.6254 H   0  0  0  0  0  0  0  0  0  0  0  0  # atno 8319 bound_to 8303
  213.1814   38.3878   11.2228 H   0  0  0  0  0  0  0  0  0  0  0  0  # atno 8355 bound_to 8345
  211.5827   38.1365   11.3926 H   0  0  0  0  0  0  0  0  0  0  0  0  # atno 8419 bound_to 8397
  209.0676   38.4101    9.1553 H   0  0  0  0  0  0  0  0  0  0  0  0  # atno 8503 bound_to 8487
  208.2363   38.1376    7.2503 H   0  0  0  0  0  0  0  0  0  0  0  0  # atno 8543 bound_to 8531
  211.9771   39.8604    7.1672 H   0  0  0  0  0  0  0  0  0  0  0  0  # atno 9071 bound_to 9050
  215.9929   34.9491   10.6606 H   0  0  0  0  0  0  0  0  0  0  0  0  # atno 10323 bound_to 10307
  216.3898   41.0702   10.2575 LP  0  0  0  0  0  0  0  0  0  0  0  0  # atno 27204 bound_to 8303
  212.4478   40.0846    8.9144 LP  0  0  0  0  0  0  0  0  0  0  0  0  # atno 27205 bound_to 8306
  213.6952   41.2376    9.2531 LP  0  0  0  0  0  0  0  0  0  0  0  0  # atno 27206 bound_to 8306
  214.3875   38.5289    9.9699 LP  0  0  0  0  0  0  0  0  0  0  0  0  # atno 27211 bound_to 8345
  210.7679   38.5045    9.8935 LP  0  0  0  0  0  0  0  0  0  0  0  0  # atno 27212 bound_to 8397
  208.3830   39.3621   10.4510 LP  0  0  0  0  0  0  0  0  0  0  0  0  # atno 27213 bound_to 8487
  210.7816   39.5133    6.1198 LP  0  0  0  0  0  0  0  0  0  0  0  0  # atno 27218 bound_to 9050
  212.0223   40.4702    5.6596 LP  0  0  0  0  0  0  0  0  0  0  0  0  # atno 27219 bound_to 9050
  210.5517   36.2660    8.4595 LP  0  0  0  0  0  0  0  0  0  0  0  0  # atno 27220 bound_to 8348
  209.7721   36.0934    9.9966 LP  0  0  0  0  0  0  0  0  0  0  0  0  # atno 27221 bound_to 8348
  206.2551   38.5788   10.9206 LP  0  0  0  0  0  0  0  0  0  0  0  0  # atno 27222 bound_to 8400
  206.9538   37.1463   11.5986 LP  0  0  0  0  0  0  0  0  0  0  0  0  # atno 27223 bound_to 8400
  219.6777   42.1912   11.9561 LP  0  0  0  0  0  0  0  0  0  0  0  0  # atno 27224 bound_to 8160
  218.8573   41.7528   10.4951 LP  0  0  0  0  0  0  0  0  0  0  0  0  # atno 27225 bound_to 8160
  216.4134   37.3359   10.0713 LP  0  0  0  0  0  0  0  0  0  0  0  0  # atno 27226 bound_to 8232
  216.7060   37.7543   11.7264 LP  0  0  0  0  0  0  0  0  0  0  0  0  # atno 27227 bound_to 8232
  219.9165   40.0738   10.9533 LP  0  0  0  0  0  0  0  0  0  0  0  0  # atno 27228 bound_to 8229
  207.4182   37.1883    8.4764 LP  0  0  0  0  0  0  0  0  0  0  0  0  # atno 27229 bound_to 8531
  213.5362   36.8597   12.3265 LP  0  0  0  0  0  0  0  0  0  0  0  0  # atno 27230 bound_to 10310
  212.4691   36.0890   11.2008 LP  0  0  0  0  0  0  0  0  0  0  0  0  # atno 27231 bound_to 10310

> <Gold.Score>
     Fitness  S(hb_ext) S(vdw_ext)  S(hb_int)    S(int)      intcor
     28.33       0.00      21.41       0.00      -1.11      -0.79

> <Gold.Goldscore.Fitness>
28.3319

> <Gold.Goldscore.Internal.Vdw>
-1.4201

> <Gold.Goldscore.Internal.Torsion>
-0.4767

> <Gold.Goldscore.External.Vdw>
21.4091

> <Gold.Goldscore.Internal.HBond>
0.0000

> <Gold.Goldscore.External.HBond>
0.0000

> <Gold.Goldscore.Internal.Correction>
-0.7912

> <Gold.Goldscore.Internal.Vdw.Weighted>
-1.4201

> <Gold.Goldscore.Internal.Torsion.Weighted>
-0.4767

> <Gold.Goldscore.External.Vdw.Weighted>
29.4375

> <Gold.Goldscore.Internal.HBond.Weighted>
0.0000

> <Gold.Goldscore.External.HBond.Weighted>
0.0000

> <Gold.Goldscore.Internal.Correction.Weighted>
-0.7912

> <Gold.Rescore>
     Score     S(PLP)   S(hbond)     S(cho)   S(metal)  DE(clash)   DE(tors)     intcor
     24.00     -26.03       0.00       0.00       0.00       0.00       1.02       ----

> <Gold.PLP.Fitness>
23.9970

> <Gold.PLP.PLP>
-26.0327

> <Gold.PLP.part.hbond>
-1.0000

> <Gold.PLP.part.metal>
0.0000

> <Gold.PLP.part.buried>
-4.3506

> <Gold.PLP.part.nonpolar>
-20.6508

> <Gold.PLP.part.repulsive>
0.2081

> <Gold.PLP.ligand.clash>
0.0014

> <Gold.PLP.ligand.torsion>
1.0171

> <Gold.PLP.Chemscore.Hbond>
0.0000

> <Gold.PLP.Chemscore.CHOScore>
0.0000

> <Gold.PLP.Chemscore.Metal>
0.0000

> <Gold.PLP.Chemscore.Internal.Correction>
   9.000000E+99

