#       Name:                CT1002167954
#       Creating user name   hitesit
#       Creation time:       Sun Apr 16 23:03:07 2023


#       File generated by GOLD software.
#

@<TRIPOS>MOLECULE
CT1002167954|ligand_prepared|mol2|1|dock6
    29    30     1
SMALL
NO_CHARGES


@<TRIPOS>ATOM
      1 C1         206.7988  41.6292  13.7195 C.3            1 RES1               0.0000
      2 C2         208.0752  41.9533  12.9166 C.ar           1 RES1               0.0000
      3 C3         205.8039  41.0407  12.7234 C.2            1 RES1               0.0000
      4 C4         207.2213  40.6634  14.8210 C.2            1 RES1               0.0000
      5 C5         206.1514  42.8638  14.3890 C.3            1 RES1               0.0000
      6 C6         208.9620  42.9300  13.3596 C.ar           1 RES1               0.0000
      7 C7         208.3801  41.2833  11.7348 C.ar           1 RES1               0.0000
      8 N8         205.5737  39.6976  12.7789 N.am           1 RES1               0.0000
      9 O9         205.2596  41.7380  11.8762 O.2            1 RES1               0.0000
     10 N10        206.7251  39.3867  14.7808 N.am           1 RES1               0.0000
     11 O11        207.9926  40.9916  15.7141 O.2            1 RES1               0.0000
     12 C12        204.7482  42.6098  14.9169 C.3            1 RES1               0.0000
     13 C13        210.1136  43.2243  12.6485 C.ar           1 RES1               0.0000
     14 C14        209.5321  41.5794  11.0250 C.ar           1 RES1               0.0000
     15 C15        205.9448  38.8512  13.7926 C.2            1 RES1               0.0000
     16 C16        210.3996  42.5490  11.4811 C.ar           1 RES1               0.0000
     17 O17        205.5829  37.6781  13.7989 O.2            1 RES1               0.0000
     18 H18        206.7883  43.1888  15.2209 H              1 RES1               0.0000
     19 H19        206.1111  43.6811  13.6584 H              1 RES1               0.0000
     20 H20        208.7524  43.4736  14.2748 H              1 RES1               0.0000
     21 H21        207.7116  40.5174  11.3564 H              1 RES1               0.0000
     22 H22        205.0800  39.2844  11.9942 H              1 RES1               0.0000
     23 H23        206.9590  38.7794  15.5597 H              1 RES1               0.0000
     24 H24        204.3406  43.5077  15.3765 H              1 RES1               0.0000
     25 H25        204.0816  42.3088  14.1114 H              1 RES1               0.0000
     26 H26        204.7547  41.8194  15.6647 H              1 RES1               0.0000
     27 H27        210.7923  43.9892  13.0110 H              1 RES1               0.0000
     28 H28        209.7529  41.0458  10.1065 H              1 RES1               0.0000
     29 H29        211.3019  42.7795  10.9244 H              1 RES1               0.0000
@<TRIPOS>BOND
    1    1    2 1     
    2    1    3 1     
    3    1    4 1     
    4    1    5 1     
    5    2    6 ar    
    6    2    7 ar    
    7    3    8 1     
    8    3    9 2     
    9    4   10 1     
   10    4   11 2     
   11    5   12 1     
   12    5   18 1     
   13    5   19 1     
   14    6   13 ar    
   15    6   20 1     
   16    7   14 ar    
   17    7   21 1     
   18    8   15 1     
   19    8   22 1     
   20   10   15 1     
   21   10   23 1     
   22   12   24 1     
   23   12   25 1     
   24   12   26 1     
   25   13   16 ar    
   26   13   27 1     
   27   14   16 ar    
   28   14   28 1     
   29   15   17 2     
   30   16   29 1     
@<TRIPOS>SUBSTRUCTURE
      1 RES1           1
@<TRIPOS>SET
DONOR_HYDROGENS      STATIC     ATOMS    <user>   **** ""
2 22 23
ATOM$RED        STATIC     ATOMS    COLORGROUP SYSTEM
2 22 23
@<TRIPOS>COMMENT
> <Gold.Version>
2022.3.0

> <Gold.Id.Protein>
unknown|4v3u_clean|pdb

> <Gold.Protein.RotatedTorsions>
[ 8319 8303 8304 8305 ] final   85.59 input  100.38 | X-H torsion
[ 8355 8345 8346 8347 ] final -113.89 input   76.03 | X-H torsion
[ 8419 8397 8398 8399 ] final -177.17 input  108.00 | X-H torsion
[ 8503 8487 8488 8489 ] final  -12.44 input   86.22 | X-H torsion
[ 9071 9050 9049 9047 ] final -134.40 input   59.99 | X-H torsion
[ 8251 8229 8230 8231 ] final  -43.94 input   84.12 | X-H torsion
[ 8543 8531 8532 8533 ] final  168.25 input  114.02 | X-H torsion
[ 10323 10307 10308 10309 ] final  -11.24 input   62.28 | X-H torsion
[ 27205 8306 8305 8304 ] final  128.60 input   -0.00 | X-H torsion
[ 27220 8348 8347 8346 ] final   74.06 input    0.00 | X-H torsion
[ 27222 8400 8399 8398 ] final  -12.24 input    0.00 | X-H torsion
[ 27224 8160 8159 8158 ] final -128.39 input    0.00 | X-H torsion
[ 27226 8232 8231 8230 ] final -130.09 input    0.00 | X-H torsion
[ 27230 10310 10309 10308 ] final  -12.78 input   -0.00 | X-H torsion

> <Gold.Protein.ActiveResidues>
 ASP403  LEU406  ILE407  GLN430  VAL431  PHE432  ASP433  ALA434  ARG435  ASP436 
 CYS437  TYR446  ASN449  THR465  ILE466 

> <Gold.Protein.RotatedAtoms>
  219.1967   39.6365   11.6659 H   0  0  0  0  0  0  0  0  0  0  0  0  # atno 8251 bound_to 8229
  216.3171   41.0662   10.1729 H   0  0  0  0  0  0  0  0  0  0  0  0  # atno 8319 bound_to 8303
  213.8148   39.2156   10.1446 H   0  0  0  0  0  0  0  0  0  0  0  0  # atno 8355 bound_to 8345
  211.5836   37.9891   11.3397 H   0  0  0  0  0  0  0  0  0  0  0  0  # atno 8419 bound_to 8397
  208.7289   38.0737    9.4753 H   0  0  0  0  0  0  0  0  0  0  0  0  # atno 8503 bound_to 8487
  208.6658   37.7950    7.6241 H   0  0  0  0  0  0  0  0  0  0  0  0  # atno 8543 bound_to 8531
  210.9595   39.3915    6.7211 H   0  0  0  0  0  0  0  0  0  0  0  0  # atno 9071 bound_to 9050
  215.7877   35.4087   10.6560 H   0  0  0  0  0  0  0  0  0  0  0  0  # atno 10323 bound_to 10307
  216.7711   39.4560   10.6928 LP  0  0  0  0  0  0  0  0  0  0  0  0  # atno 27204 bound_to 8303
  213.2903   40.1268    8.4382 LP  0  0  0  0  0  0  0  0  0  0  0  0  # atno 27205 bound_to 8306
  212.8527   41.1954    9.7293 LP  0  0  0  0  0  0  0  0  0  0  0  0  # atno 27206 bound_to 8306
  213.7638   37.7138   11.0315 LP  0  0  0  0  0  0  0  0  0  0  0  0  # atno 27211 bound_to 8345
  210.7670   38.6495    9.9455 LP  0  0  0  0  0  0  0  0  0  0  0  0  # atno 27212 bound_to 8397
  208.7136   39.6903   10.1388 LP  0  0  0  0  0  0  0  0  0  0  0  0  # atno 27213 bound_to 8487
  211.4813   40.2209    5.4225 LP  0  0  0  0  0  0  0  0  0  0  0  0  # atno 27218 bound_to 9050
  212.3480   40.2350    6.8064 LP  0  0  0  0  0  0  0  0  0  0  0  0  # atno 27219 bound_to 9050
  210.6678   35.5949    9.6179 LP  0  0  0  0  0  0  0  0  0  0  0  0  # atno 27220 bound_to 8348
  209.6559   36.7645    8.8382 LP  0  0  0  0  0  0  0  0  0  0  0  0  # atno 27221 bound_to 8348
  206.9833   37.3530   11.8485 LP  0  0  0  0  0  0  0  0  0  0  0  0  # atno 27222 bound_to 8400
  206.2255   38.3720   10.6707 LP  0  0  0  0  0  0  0  0  0  0  0  0  # atno 27223 bound_to 8400
  218.4407   41.7233   11.2936 LP  0  0  0  0  0  0  0  0  0  0  0  0  # atno 27224 bound_to 8160
  220.0942   42.2208   11.1576 LP  0  0  0  0  0  0  0  0  0  0  0  0  # atno 27225 bound_to 8160
  215.7935   37.5953   10.4983 LP  0  0  0  0  0  0  0  0  0  0  0  0  # atno 27226 bound_to 8232
  217.3258   37.4949   11.2994 LP  0  0  0  0  0  0  0  0  0  0  0  0  # atno 27227 bound_to 8232
  220.1509   38.8660   10.4222 LP  0  0  0  0  0  0  0  0  0  0  0  0  # atno 27228 bound_to 8229
  207.0068   37.5165    8.1183 LP  0  0  0  0  0  0  0  0  0  0  0  0  # atno 27229 bound_to 8531
  213.6576   36.8771   12.1622 LP  0  0  0  0  0  0  0  0  0  0  0  0  # atno 27230 bound_to 10310
  212.3477   36.0716   11.3651 LP  0  0  0  0  0  0  0  0  0  0  0  0  # atno 27231 bound_to 10310

> <Gold.Score>
     Fitness  S(hb_ext) S(vdw_ext)  S(hb_int)    S(int)      intcor
     32.26       0.00      24.12       0.00      -0.91      -0.76

> <Gold.Goldscore.Fitness>
32.2613

> <Gold.Goldscore.Internal.Vdw>
-1.0463

> <Gold.Goldscore.Internal.Torsion>
-0.6246

> <Gold.Goldscore.External.Vdw>
24.1216

> <Gold.Goldscore.Internal.HBond>
0.0000

> <Gold.Goldscore.External.HBond>
0.0000

> <Gold.Goldscore.Internal.Correction>
-0.7650

> <Gold.Goldscore.Internal.Vdw.Weighted>
-1.0463

> <Gold.Goldscore.Internal.Torsion.Weighted>
-0.6246

> <Gold.Goldscore.External.Vdw.Weighted>
33.1673

> <Gold.Goldscore.Internal.HBond.Weighted>
0.0000

> <Gold.Goldscore.External.HBond.Weighted>
0.0000

> <Gold.Goldscore.Internal.Correction.Weighted>
-0.7650

> <Gold.Rescore>
     Score     S(PLP)   S(hbond)     S(cho)   S(metal)  DE(clash)   DE(tors)     intcor
     26.46     -26.53       0.51       0.00       0.00       0.02       0.79       ----

> <Gold.PLP.Fitness>
26.4647

> <Gold.PLP.PLP>
-26.5304

> <Gold.PLP.part.hbond>
-2.8659

> <Gold.PLP.part.metal>
0.0000

> <Gold.PLP.part.buried>
-4.0802

> <Gold.PLP.part.nonpolar>
-20.5006

> <Gold.PLP.part.repulsive>
0.5754

> <Gold.PLP.ligand.clash>
0.0202

> <Gold.PLP.ligand.torsion>
0.7907

> <Gold.PLP.Chemscore.Hbond>
0.5120

> <Gold.PLP.Chemscore.CHOScore>
0.0000

> <Gold.PLP.Chemscore.Metal>
0.0000

> <Gold.PLP.Chemscore.Internal.Correction>
   9.000000E+99

