#       Name:                CT1002167954
#       Creating user name   hitesit
#       Creation time:       Sun Apr 16 23:03:05 2023


#       File generated by GOLD software.
#

@<TRIPOS>MOLECULE
CT1002167954|ligand_prepared|mol2|1|dock3
    29    30     1
SMALL
NO_CHARGES


@<TRIPOS>ATOM
      1 C1         212.8960  44.0816   8.6327 C.3            1 RES1               0.0000
      2 C2         211.8746  43.1439   9.3080 C.ar           1 RES1               0.0000
      3 C3         214.2300  43.8367   9.3318 C.2            1 RES1               0.0000
      4 C4         212.8940  43.7189   7.1517 C.2            1 RES1               0.0000
      5 C5         212.5443  45.5823   8.7575 C.3            1 RES1               0.0000
      6 C6         211.2073  43.5378  10.4640 C.ar           1 RES1               0.0000
      7 C7         211.5875  41.8853   8.7862 C.ar           1 RES1               0.0000
      8 N8         215.1809  43.1354   8.6507 N.am           1 RES1               0.0000
      9 O9         214.4303  44.2188  10.4781 O.2            1 RES1               0.0000
     10 N10        214.0353  43.1763   6.6220 N.am           1 RES1               0.0000
     11 O11        211.9087  43.8827   6.4426 O.2            1 RES1               0.0000
     12 C12        213.3292  46.4768   7.8109 C.3            1 RES1               0.0000
     13 C13        210.2844  42.7050  11.0747 C.ar           1 RES1               0.0000
     14 C14        210.6643  41.0540   9.3986 C.ar           1 RES1               0.0000
     15 C15        215.1684  42.8397   7.3113 C.2            1 RES1               0.0000
     16 C16        210.0119  41.4629  10.5423 C.ar           1 RES1               0.0000
     17 O17        216.1341  42.3046   6.7745 O.2            1 RES1               0.0000
     18 H18        211.4732  45.7117   8.5588 H              1 RES1               0.0000
     19 H19        212.7355  45.9053   9.7883 H              1 RES1               0.0000
     20 H20        211.4105  44.5107  10.8989 H              1 RES1               0.0000
     21 H21        212.0895  41.5423   7.8879 H              1 RES1               0.0000
     22 H22        215.9748  42.7998   9.1869 H              1 RES1               0.0000
     23 H23        214.0408  43.0078   5.6210 H              1 RES1               0.0000
     24 H24        213.0440  47.5189   7.9396 H              1 RES1               0.0000
     25 H25        214.3977  46.3924   7.9975 H              1 RES1               0.0000
     26 H26        213.1430  46.1999   6.7753 H              1 RES1               0.0000
     27 H27        209.7747  43.0309  11.9754 H              1 RES1               0.0000
     28 H28        210.4535  40.0770   8.9764 H              1 RES1               0.0000
     29 H29        209.2886  40.8108  11.0206 H              1 RES1               0.0000
@<TRIPOS>BOND
    1    1    2 1     
    2    1    3 1     
    3    1    4 1     
    4    1    5 1     
    5    2    6 ar    
    6    2    7 ar    
    7    3    8 1     
    8    3    9 2     
    9    4   10 1     
   10    4   11 2     
   11    5   12 1     
   12    5   18 1     
   13    5   19 1     
   14    6   13 ar    
   15    6   20 1     
   16    7   14 ar    
   17    7   21 1     
   18    8   15 1     
   19    8   22 1     
   20   10   15 1     
   21   10   23 1     
   22   12   24 1     
   23   12   25 1     
   24   12   26 1     
   25   13   16 ar    
   26   13   27 1     
   27   14   16 ar    
   28   14   28 1     
   29   15   17 2     
   30   16   29 1     
@<TRIPOS>SUBSTRUCTURE
      1 RES1           1
@<TRIPOS>SET
DONOR_HYDROGENS      STATIC     ATOMS    <user>   **** ""
2 22 23
ATOM$RED        STATIC     ATOMS    COLORGROUP SYSTEM
2 22 23
@<TRIPOS>COMMENT
> <Gold.Version>
2022.3.0

> <Gold.Id.Protein>
unknown|4v3u_clean|pdb

> <Gold.Protein.RotatedTorsions>
[ 8319 8303 8304 8305 ] final  -37.40 input  100.38 | X-H torsion
[ 8355 8345 8346 8347 ] final  -86.43 input   76.03 | X-H torsion
[ 8419 8397 8398 8399 ] final -154.67 input  108.00 | X-H torsion
[ 8503 8487 8488 8489 ] final  -97.80 input   86.22 | X-H torsion
[ 9071 9050 9049 9047 ] final   49.25 input   59.99 | X-H torsion
[ 8251 8229 8230 8231 ] final  150.65 input   84.12 | X-H torsion
[ 8543 8531 8532 8533 ] final  -89.76 input  114.02 | X-H torsion
[ 10323 10307 10308 10309 ] final -163.45 input   62.28 | X-H torsion
[ 27205 8306 8305 8304 ] final   12.28 input   -0.00 | X-H torsion
[ 27220 8348 8347 8346 ] final   45.08 input    0.00 | X-H torsion
[ 27222 8400 8399 8398 ] final  -74.78 input    0.00 | X-H torsion
[ 27224 8160 8159 8158 ] final -172.38 input    0.00 | X-H torsion
[ 27226 8232 8231 8230 ] final   83.81 input    0.00 | X-H torsion
[ 27230 10310 10309 10308 ] final   26.90 input   -0.00 | X-H torsion

> <Gold.Protein.ActiveResidues>
 ASP403  LEU406  ILE407  GLN430  VAL431  PHE432  ASP433  ALA434  ARG435  ASP436 
 CYS437  TYR446  ASN449  THR465  ILE466 

> <Gold.Protein.RotatedAtoms>
  220.2312   39.0677   10.3731 H   0  0  0  0  0  0  0  0  0  0  0  0  # atno 8251 bound_to 8229
  216.3817   39.5137    9.9542 H   0  0  0  0  0  0  0  0  0  0  0  0  # atno 8319 bound_to 8303
  213.5022   39.2711   10.4154 H   0  0  0  0  0  0  0  0  0  0  0  0  # atno 8355 bound_to 8345
  211.5405   37.7076   11.1477 H   0  0  0  0  0  0  0  0  0  0  0  0  # atno 8419 bound_to 8397
  208.1659   38.5613   10.4148 H   0  0  0  0  0  0  0  0  0  0  0  0  # atno 8503 bound_to 8487
  207.3635   38.1535    7.2899 H   0  0  0  0  0  0  0  0  0  0  0  0  # atno 8543 bound_to 8531
  212.1984   40.4998    5.8637 H   0  0  0  0  0  0  0  0  0  0  0  0  # atno 9071 bound_to 9050
  217.0838   35.0467   11.7162 H   0  0  0  0  0  0  0  0  0  0  0  0  # atno 10323 bound_to 10307
  216.7090   40.9495   10.9032 LP  0  0  0  0  0  0  0  0  0  0  0  0  # atno 27204 bound_to 8303
  213.6565   41.2619    9.3000 LP  0  0  0  0  0  0  0  0  0  0  0  0  # atno 27205 bound_to 8306
  212.4864   40.0603    8.8675 LP  0  0  0  0  0  0  0  0  0  0  0  0  # atno 27206 bound_to 8306
  214.0716   37.6592   10.7649 LP  0  0  0  0  0  0  0  0  0  0  0  0  # atno 27211 bound_to 8345
  210.8094   38.9263   10.1344 LP  0  0  0  0  0  0  0  0  0  0  0  0  # atno 27212 bound_to 8397
  209.2631   39.2145    9.2217 LP  0  0  0  0  0  0  0  0  0  0  0  0  # atno 27213 bound_to 8487
  211.7582   39.7074    7.2146 LP  0  0  0  0  0  0  0  0  0  0  0  0  # atno 27218 bound_to 9050
  210.8226   39.6317    5.8784 LP  0  0  0  0  0  0  0  0  0  0  0  0  # atno 27219 bound_to 9050
  210.8485   35.6519    9.2280 LP  0  0  0  0  0  0  0  0  0  0  0  0  # atno 27220 bound_to 8348
  209.4753   36.7076    9.2281 LP  0  0  0  0  0  0  0  0  0  0  0  0  # atno 27221 bound_to 8348
  206.7725   37.0443   11.0310 LP  0  0  0  0  0  0  0  0  0  0  0  0  # atno 27222 bound_to 8400
  206.4363   38.6807   11.4882 LP  0  0  0  0  0  0  0  0  0  0  0  0  # atno 27223 bound_to 8400
  218.6485   41.7109   10.6791 LP  0  0  0  0  0  0  0  0  0  0  0  0  # atno 27224 bound_to 8160
  219.8865   42.2331   11.7721 LP  0  0  0  0  0  0  0  0  0  0  0  0  # atno 27225 bound_to 8160
  216.9933   37.6661   11.6387 LP  0  0  0  0  0  0  0  0  0  0  0  0  # atno 27226 bound_to 8232
  216.1260   37.4241   10.1591 LP  0  0  0  0  0  0  0  0  0  0  0  0  # atno 27227 bound_to 8232
  219.1378   39.4230   11.6882 LP  0  0  0  0  0  0  0  0  0  0  0  0  # atno 27228 bound_to 8229
  208.2542   37.1730    8.4385 LP  0  0  0  0  0  0  0  0  0  0  0  0  # atno 27229 bound_to 8531
  213.7865   36.8010   11.5938 LP  0  0  0  0  0  0  0  0  0  0  0  0  # atno 27230 bound_to 10310
  212.2188   36.1478   11.9336 LP  0  0  0  0  0  0  0  0  0  0  0  0  # atno 27231 bound_to 10310

> <Gold.Score>
     Fitness  S(hb_ext) S(vdw_ext)  S(hb_int)    S(int)      intcor
     25.65       0.00      19.23       0.00      -0.78      -0.77

> <Gold.Goldscore.Fitness>
25.6532

> <Gold.Goldscore.Internal.Vdw>
-0.8487

> <Gold.Goldscore.Internal.Torsion>
-0.6983

> <Gold.Goldscore.External.Vdw>
19.2254

> <Gold.Goldscore.Internal.HBond>
0.0000

> <Gold.Goldscore.External.HBond>
0.0000

> <Gold.Goldscore.Internal.Correction>
-0.7653

> <Gold.Goldscore.Internal.Vdw.Weighted>
-0.8487

> <Gold.Goldscore.Internal.Torsion.Weighted>
-0.6983

> <Gold.Goldscore.External.Vdw.Weighted>
26.4349

> <Gold.Goldscore.Internal.HBond.Weighted>
0.0000

> <Gold.Goldscore.External.HBond.Weighted>
0.0000

> <Gold.Goldscore.Internal.Correction.Weighted>
-0.7653

> <Gold.Rescore>
     Score     S(PLP)   S(hbond)     S(cho)   S(metal)  DE(clash)   DE(tors)     intcor
     20.38     -22.14       0.27       0.00       0.00       0.00       1.29       ----

> <Gold.PLP.Fitness>
20.3770

> <Gold.PLP.PLP>
-22.1448

> <Gold.PLP.part.hbond>
-4.2580

> <Gold.PLP.part.metal>
0.0000

> <Gold.PLP.part.buried>
2.7438

> <Gold.PLP.part.nonpolar>
-22.4333

> <Gold.PLP.part.repulsive>
0.7168

> <Gold.PLP.ligand.clash>
0.0000

> <Gold.PLP.ligand.torsion>
1.2864

> <Gold.PLP.Chemscore.Hbond>
0.2683

> <Gold.PLP.Chemscore.CHOScore>
0.0000

> <Gold.PLP.Chemscore.Metal>
0.0000

> <Gold.PLP.Chemscore.Internal.Correction>
   9.000000E+99

