#       Name:                CT1002167954
#       Creating user name   hitesit
#       Creation time:       Sun Apr 16 23:04:42 2023


#       File generated by GOLD software.
#

@<TRIPOS>MOLECULE
CT1002167954|ligand_prepared|mol2|1|dock9
    29    30     1
SMALL
NO_CHARGES


@<TRIPOS>ATOM
      1 C1         207.8197  50.8155  16.0603 C.3            1 RES1               0.0000
      2 C2         208.1487  49.9849  14.8030 C.ar           1 RES1               0.0000
      3 C3         209.1278  51.4688  16.4966 C.2            1 RES1               0.0000
      4 C4         206.7374  51.8062  15.6459 C.2            1 RES1               0.0000
      5 C5         207.2731  49.9759  17.2383 C.3            1 RES1               0.0000
      6 C6         209.1573  50.3867  13.9323 C.ar           1 RES1               0.0000
      7 C7         207.4554  48.8155  14.5025 C.ar           1 RES1               0.0000
      8 N8         209.2738  52.8052  16.2674 N.am           1 RES1               0.0000
      9 O9         210.0331  50.8137  16.9981 O.2            1 RES1               0.0000
     10 N10        207.0509  53.1402  15.6539 N.am           1 RES1               0.0000
     11 O11        205.6211  51.4427  15.2966 O.2            1 RES1               0.0000
     12 C12        207.2130  50.7336  18.5553 C.3            1 RES1               0.0000
     13 C13        209.4637  49.6447  12.8036 C.ar           1 RES1               0.0000
     14 C14        207.7633  48.0750  13.3732 C.ar           1 RES1               0.0000
     15 C15        208.2794  53.6825  15.9163 C.2            1 RES1               0.0000
     16 C16        208.7674  48.4883  12.5236 C.ar           1 RES1               0.0000
     17 O17        208.4971  54.8889  15.8502 O.2            1 RES1               0.0000
     18 H18        206.2643  49.6271  16.9852 H              1 RES1               0.0000
     19 H19        207.9106  49.0925  17.3681 H              1 RES1               0.0000
     20 H20        209.7144  51.2953  14.1350 H              1 RES1               0.0000
     21 H21        206.6609  48.4718  15.1561 H              1 RES1               0.0000
     22 H22        210.2088  53.1877  16.3660 H              1 RES1               0.0000
     23 H23        206.2987  53.7890  15.4450 H              1 RES1               0.0000
     24 H24        206.8226  50.0988  19.3480 H              1 RES1               0.0000
     25 H25        208.2035  51.0736  18.8503 H              1 RES1               0.0000
     26 H26        206.5671  51.6050  18.4698 H              1 RES1               0.0000
     27 H27        210.2539  49.9749  12.1374 H              1 RES1               0.0000
     28 H28        207.2123  47.1659  13.1563 H              1 RES1               0.0000
     29 H29        209.0079  47.9069  11.6396 H              1 RES1               0.0000
@<TRIPOS>BOND
    1    1    2 1     
    2    1    3 1     
    3    1    4 1     
    4    1    5 1     
    5    2    6 ar    
    6    2    7 ar    
    7    3    8 1     
    8    3    9 2     
    9    4   10 1     
   10    4   11 2     
   11    5   12 1     
   12    5   18 1     
   13    5   19 1     
   14    6   13 ar    
   15    6   20 1     
   16    7   14 ar    
   17    7   21 1     
   18    8   15 1     
   19    8   22 1     
   20   10   15 1     
   21   10   23 1     
   22   12   24 1     
   23   12   25 1     
   24   12   26 1     
   25   13   16 ar    
   26   13   27 1     
   27   14   16 ar    
   28   14   28 1     
   29   15   17 2     
   30   16   29 1     
@<TRIPOS>SUBSTRUCTURE
      1 RES1           1
@<TRIPOS>SET
DONOR_HYDROGENS      STATIC     ATOMS    <user>   **** ""
2 22 23
ATOM$RED        STATIC     ATOMS    COLORGROUP SYSTEM
2 22 23
@<TRIPOS>COMMENT
> <Gold.Version>
2022.3.0

> <Gold.Id.Protein>
unknown|4d1n_clean|pdb

> <Gold.Protein.RotatedTorsions>
[ 8321 8305 8306 8307 ] final  167.63 input   94.69 | X-H torsion
[ 8357 8347 8348 8349 ] final   88.77 input   68.57 | X-H torsion
[ 8421 8399 8400 8401 ] final   40.72 input  113.07 | X-H torsion
[ 8505 8489 8490 8491 ] final -131.33 input   89.94 | X-H torsion
[ 8545 8533 8534 8535 ] final  -74.80 input  110.24 | X-H torsion
[ 9073 9052 9051 9049 ] final  -82.99 input   60.00 | X-H torsion
[ 8253 8231 8232 8233 ] final  -91.87 input   84.65 | X-H torsion
[ 10325 10309 10310 10311 ] final   -8.61 input   62.15 | X-H torsion
[ 27198 8308 8307 8306 ] final  -20.33 input   -0.00 | X-H torsion
[ 27205 8350 8349 8348 ] final  -71.27 input    0.00 | X-H torsion
[ 27208 8402 8401 8400 ] final -169.56 input    0.00 | X-H torsion
[ 27211 8492 8491 8490 ] final -134.38 input   -0.00 | X-H torsion
[ 27220 8234 8233 8232 ] final   70.60 input    0.00 | X-H torsion
[ 27222 8162 8161 8160 ] final  -13.82 input    0.00 | X-H torsion
[ 27225 10312 10311 10310 ] final  117.04 input    0.00 | X-H torsion

> <Gold.Protein.ActiveResidues>
 ASP403  LEU406  ILE407  VAL431  PHE432  ASP433  ALA434  ARG435  ASP436  CYS437 
 TYR446  ASN449  THR465  ILE466 

> <Gold.Protein.RotatedAtoms>
  219.0951   46.1394   11.0886 H   0  0  0  0  0  0  0  0  0  0  0  0  # atno 8253 bound_to 8231
  216.3233   46.7688   10.8223 H   0  0  0  0  0  0  0  0  0  0  0  0  # atno 8321 bound_to 8305
  213.4602   43.8188   10.6668 H   0  0  0  0  0  0  0  0  0  0  0  0  # atno 8357 bound_to 8347
  210.3759   45.0903   10.2594 H   0  0  0  0  0  0  0  0  0  0  0  0  # atno 8421 bound_to 8399
  207.7766   45.1672   10.5373 H   0  0  0  0  0  0  0  0  0  0  0  0  # atno 8505 bound_to 8489
  206.7122   44.1075    7.5448 H   0  0  0  0  0  0  0  0  0  0  0  0  # atno 8545 bound_to 8533
  211.0368   45.7898    7.0916 H   0  0  0  0  0  0  0  0  0  0  0  0  # atno 9073 bound_to 9052
  215.2367   41.4844   10.4714 H   0  0  0  0  0  0  0  0  0  0  0  0  # atno 10325 bound_to 10309
  215.6863   45.9163    9.4328 LP  0  0  0  0  0  0  0  0  0  0  0  0  # atno 27197 bound_to 8305
  212.9228   47.4604    9.3141 LP  0  0  0  0  0  0  0  0  0  0  0  0  # atno 27198 bound_to 8308
  212.4356   46.1234    8.3267 LP  0  0  0  0  0  0  0  0  0  0  0  0  # atno 27199 bound_to 8308
  212.9337   45.4225   10.2108 LP  0  0  0  0  0  0  0  0  0  0  0  0  # atno 27204 bound_to 8347
  209.4688   42.7655    8.3935 LP  0  0  0  0  0  0  0  0  0  0  0  0  # atno 27205 bound_to 8350
  209.7856   41.7906    9.7897 LP  0  0  0  0  0  0  0  0  0  0  0  0  # atno 27206 bound_to 8350
  210.9908   43.5846   10.9005 LP  0  0  0  0  0  0  0  0  0  0  0  0  # atno 27207 bound_to 8399
  205.7968   44.1562   10.4720 LP  0  0  0  0  0  0  0  0  0  0  0  0  # atno 27208 bound_to 8402
  206.4873   43.6863   11.9894 LP  0  0  0  0  0  0  0  0  0  0  0  0  # atno 27209 bound_to 8402
  208.7418   44.7693    9.1348 LP  0  0  0  0  0  0  0  0  0  0  0  0  # atno 27210 bound_to 8489
  204.9727   43.6735    6.6479 LP  0  0  0  0  0  0  0  0  0  0  0  0  # atno 27211 bound_to 8492
  205.4339   45.3147    6.3418 LP  0  0  0  0  0  0  0  0  0  0  0  0  # atno 27212 bound_to 8492
  207.9304   43.2074    8.4195 LP  0  0  0  0  0  0  0  0  0  0  0  0  # atno 27217 bound_to 8533
  210.2445   45.8559    5.6717 LP  0  0  0  0  0  0  0  0  0  0  0  0  # atno 27218 bound_to 9052
  211.6706   46.6309    5.8511 LP  0  0  0  0  0  0  0  0  0  0  0  0  # atno 27219 bound_to 9052
  216.6212   43.7438   11.3659 LP  0  0  0  0  0  0  0  0  0  0  0  0  # atno 27220 bound_to 8234
  215.4650   43.5562   10.0899 LP  0  0  0  0  0  0  0  0  0  0  0  0  # atno 27221 bound_to 8234
  219.0762   48.2428   11.7580 LP  0  0  0  0  0  0  0  0  0  0  0  0  # atno 27222 bound_to 8162
  218.3207   47.7996   10.2638 LP  0  0  0  0  0  0  0  0  0  0  0  0  # atno 27223 bound_to 8162
  219.2020   44.4766   10.5721 LP  0  0  0  0  0  0  0  0  0  0  0  0  # atno 27224 bound_to 8231
  212.3947   42.3829   10.8260 LP  0  0  0  0  0  0  0  0  0  0  0  0  # atno 27225 bound_to 10312
  212.5612   42.7849   12.5025 LP  0  0  0  0  0  0  0  0  0  0  0  0  # atno 27226 bound_to 10312

> <Gold.Score>
     Fitness  S(hb_ext) S(vdw_ext)  S(hb_int)    S(int)      intcor
     32.41       2.21      22.37       0.00      -0.55      -0.76

> <Gold.Goldscore.Fitness>
32.4080

> <Gold.Goldscore.Internal.Vdw>
-0.7277

> <Gold.Goldscore.Internal.Torsion>
-0.5828

> <Gold.Goldscore.External.Vdw>
22.3652

> <Gold.Goldscore.Internal.HBond>
0.0000

> <Gold.Goldscore.External.HBond>
2.2091

> <Gold.Goldscore.Internal.Correction>
-0.7573

> <Gold.Goldscore.Hbonds>
donor molecule, donor type, donor heavy atom, donor atom, acceptor molecule, acceptor atom, score
      P1  H  8409  8432       L1     9  0.37

> <Gold.Goldscore.Internal.Vdw.Weighted>
-0.7277

> <Gold.Goldscore.Internal.Torsion.Weighted>
-0.5828

> <Gold.Goldscore.External.Vdw.Weighted>
30.7521

> <Gold.Goldscore.Internal.HBond.Weighted>
0.0000

> <Gold.Goldscore.External.HBond.Weighted>
2.2091

> <Gold.Goldscore.Internal.Correction.Weighted>
-0.7573

> <Gold.Rescore>
     Score     S(PLP)   S(hbond)     S(cho)   S(metal)  DE(clash)   DE(tors)     intcor
     17.68     -18.37       0.52       0.00       0.00       0.00       1.13       ----

> <Gold.PLP.Fitness>
17.6850

> <Gold.PLP.PLP>
-18.3703

> <Gold.PLP.part.hbond>
-1.0000

> <Gold.PLP.part.metal>
0.0000

> <Gold.PLP.part.buried>
-5.5914

> <Gold.PLP.part.nonpolar>
-14.7026

> <Gold.PLP.part.repulsive>
3.1211

> <Gold.PLP.ligand.clash>
0.0000

> <Gold.PLP.ligand.torsion>
1.1277

> <Gold.PLP.Chemscore.Hbond>
0.5234

> <Gold.PLP.Chemscore.CHOScore>
0.0000

> <Gold.PLP.Chemscore.Metal>
0.0000

> <Gold.Chemscore.Hbonds>
donor molecule, donor type, donor heavy atom, donor atom, acceptor molecule, acceptor atom, score
      P1  H  8409  8432       L1     9  1.00

> <Gold.PLP.Chemscore.Internal.Correction>
   9.000000E+99

#       Name:                CT1002167954
#       Creating user name   hitesit
#       Creation time:       Sun Apr 16 23:04:41 2023


#       File generated by GOLD software.
#

@<TRIPOS>MOLECULE
CT1002167954|ligand_prepared|mol2|1|dock7
    29    30     1
SMALL
NO_CHARGES


@<TRIPOS>ATOM
      1 C1         208.3861  49.2166  11.7583 C.3            1 RES1               0.0000
      2 C2         208.0514  49.0737  13.2571 C.ar           1 RES1               0.0000
      3 C3         207.0580  49.4458  11.0427 C.2            1 RES1               0.0000
      4 C4         209.3615  50.3832  11.6482 C.2            1 RES1               0.0000
      5 C5         209.0639  47.9679  11.1476 C.3            1 RES1               0.0000
      6 C6         208.0868  50.1807  14.0996 C.ar           1 RES1               0.0000
      7 C7         207.7037  47.8442  13.8101 C.ar           1 RES1               0.0000
      8 N8         206.7945  50.7041  10.5876 N.am           1 RES1               0.0000
      9 O9         206.2374  48.5456  10.9147 O.2            1 RES1               0.0000
     10 N10        208.9452  51.5080  10.9854 N.am           1 RES1               0.0000
     11 O11        210.4809  50.3449  12.1439 O.2            1 RES1               0.0000
     12 C12        209.6776  48.2115   9.7779 C.3            1 RES1               0.0000
     13 C13        207.7826  50.0635  15.4458 C.ar           1 RES1               0.0000
     14 C14        207.4001  47.7291  15.1566 C.ar           1 RES1               0.0000
     15 C15        207.6950  51.7329  10.4767 C.2            1 RES1               0.0000
     16 C16        207.4387  48.8379  15.9751 C.ar           1 RES1               0.0000
     17 O17        207.3797  52.7921   9.9421 O.2            1 RES1               0.0000
     18 H18        209.8501  47.6233  11.8306 H              1 RES1               0.0000
     19 H19        208.3186  47.1673  11.0631 H              1 RES1               0.0000
     20 H20        208.3576  51.1530  13.7016 H              1 RES1               0.0000
     21 H21        207.6679  46.9581  13.1854 H              1 RES1               0.0000
     22 H22        205.8395  50.8981  10.3035 H              1 RES1               0.0000
     23 H23        209.6307  52.2458  10.8594 H              1 RES1               0.0000
     24 H24        210.1396  47.3039   9.3953 H              1 RES1               0.0000
     25 H25        208.9190  48.5314   9.0666 H              1 RES1               0.0000
     26 H26        210.4414  48.9847   9.8295 H              1 RES1               0.0000
     27 H27        207.8158  50.9389  16.0859 H              1 RES1               0.0000
     28 H28        207.1306  46.7624  15.5690 H              1 RES1               0.0000
     29 H29        207.2001  48.7464  17.0295 H              1 RES1               0.0000
@<TRIPOS>BOND
    1    1    2 1     
    2    1    3 1     
    3    1    4 1     
    4    1    5 1     
    5    2    6 ar    
    6    2    7 ar    
    7    3    8 1     
    8    3    9 2     
    9    4   10 1     
   10    4   11 2     
   11    5   12 1     
   12    5   18 1     
   13    5   19 1     
   14    6   13 ar    
   15    6   20 1     
   16    7   14 ar    
   17    7   21 1     
   18    8   15 1     
   19    8   22 1     
   20   10   15 1     
   21   10   23 1     
   22   12   24 1     
   23   12   25 1     
   24   12   26 1     
   25   13   16 ar    
   26   13   27 1     
   27   14   16 ar    
   28   14   28 1     
   29   15   17 2     
   30   16   29 1     
@<TRIPOS>SUBSTRUCTURE
      1 RES1           1
@<TRIPOS>SET
DONOR_HYDROGENS      STATIC     ATOMS    <user>   **** ""
2 22 23
ATOM$RED        STATIC     ATOMS    COLORGROUP SYSTEM
2 22 23
@<TRIPOS>COMMENT
> <Gold.Version>
2022.3.0

> <Gold.Id.Protein>
unknown|4d1n_clean|pdb

> <Gold.Protein.RotatedTorsions>
[ 8321 8305 8306 8307 ] final   88.33 input   94.69 | X-H torsion
[ 8357 8347 8348 8349 ] final  -14.70 input   68.57 | X-H torsion
[ 8421 8399 8400 8401 ] final   42.49 input  113.07 | X-H torsion
[ 8505 8489 8490 8491 ] final  -87.36 input   89.94 | X-H torsion
[ 8545 8533 8534 8535 ] final  140.67 input  110.24 | X-H torsion
[ 9073 9052 9051 9049 ] final  162.03 input   60.00 | X-H torsion
[ 8253 8231 8232 8233 ] final  -96.74 input   84.65 | X-H torsion
[ 10325 10309 10310 10311 ] final  -68.93 input   62.15 | X-H torsion
[ 27198 8308 8307 8306 ] final   59.37 input   -0.00 | X-H torsion
[ 27205 8350 8349 8348 ] final  124.12 input    0.00 | X-H torsion
[ 27208 8402 8401 8400 ] final  -58.70 input    0.00 | X-H torsion
[ 27211 8492 8491 8490 ] final  156.22 input   -0.00 | X-H torsion
[ 27220 8234 8233 8232 ] final  -99.72 input    0.00 | X-H torsion
[ 27222 8162 8161 8160 ] final   47.47 input    0.00 | X-H torsion
[ 27225 10312 10311 10310 ] final  -42.93 input    0.00 | X-H torsion

> <Gold.Protein.ActiveResidues>
 ASP403  LEU406  ILE407  VAL431  PHE432  ASP433  ALA434  ARG435  ASP436  CYS437 
 TYR446  ASN449  THR465  ILE466 

> <Gold.Protein.RotatedAtoms>
  219.1464   46.1555   11.0368 H   0  0  0  0  0  0  0  0  0  0  0  0  # atno 8253 bound_to 8231
  215.7880   47.1738    9.9071 H   0  0  0  0  0  0  0  0  0  0  0  0  # atno 8321 bound_to 8305
  212.5091   44.7852   10.9766 H   0  0  0  0  0  0  0  0  0  0  0  0  # atno 8357 bound_to 8347
  210.3854   45.1032   10.2816 H   0  0  0  0  0  0  0  0  0  0  0  0  # atno 8421 bound_to 8399
  207.7111   44.5304   10.3633 H   0  0  0  0  0  0  0  0  0  0  0  0  # atno 8505 bound_to 8489
  208.2000   43.4946    8.0597 H   0  0  0  0  0  0  0  0  0  0  0  0  # atno 8545 bound_to 8533
  210.2220   45.8138    5.7389 H   0  0  0  0  0  0  0  0  0  0  0  0  # atno 9073 bound_to 9052
  215.7031   40.7346   10.6121 H   0  0  0  0  0  0  0  0  0  0  0  0  # atno 10325 bound_to 10309
  216.2045   45.5244   10.3186 LP  0  0  0  0  0  0  0  0  0  0  0  0  # atno 27197 bound_to 8305
  213.4862   46.9127    8.5303 LP  0  0  0  0  0  0  0  0  0  0  0  0  # atno 27198 bound_to 8308
  211.8722   46.6711    9.1104 LP  0  0  0  0  0  0  0  0  0  0  0  0  # atno 27199 bound_to 8308
  213.8601   44.4812    9.9091 LP  0  0  0  0  0  0  0  0  0  0  0  0  # atno 27204 bound_to 8347
  209.5955   41.8972    9.8687 LP  0  0  0  0  0  0  0  0  0  0  0  0  # atno 27205 bound_to 8350
  209.6589   42.6589    8.3144 LP  0  0  0  0  0  0  0  0  0  0  0  0  # atno 27206 bound_to 8350
  210.9815   43.5721   10.8789 LP  0  0  0  0  0  0  0  0  0  0  0  0  # atno 27207 bound_to 8399
  206.3902   43.0918   11.2128 LP  0  0  0  0  0  0  0  0  0  0  0  0  # atno 27208 bound_to 8402
  205.8939   44.7508   11.2487 LP  0  0  0  0  0  0  0  0  0  0  0  0  # atno 27209 bound_to 8402
  208.8055   45.3893    9.3042 LP  0  0  0  0  0  0  0  0  0  0  0  0  # atno 27210 bound_to 8489
  205.6136   43.9564    5.9540 LP  0  0  0  0  0  0  0  0  0  0  0  0  # atno 27211 bound_to 8492
  204.7930   45.0318    7.0357 LP  0  0  0  0  0  0  0  0  0  0  0  0  # atno 27212 bound_to 8492
  206.4841   43.8032    7.9188 LP  0  0  0  0  0  0  0  0  0  0  0  0  # atno 27217 bound_to 8533
  211.6280   46.6322    5.7803 LP  0  0  0  0  0  0  0  0  0  0  0  0  # atno 27218 bound_to 9052
  211.1073   45.8305    7.1042 LP  0  0  0  0  0  0  0  0  0  0  0  0  # atno 27219 bound_to 9052
  215.5777   43.5056   10.0119 LP  0  0  0  0  0  0  0  0  0  0  0  0  # atno 27220 bound_to 8234
  216.5084   43.7944   11.4439 LP  0  0  0  0  0  0  0  0  0  0  0  0  # atno 27221 bound_to 8234
  219.5212   48.2911   10.9970 LP  0  0  0  0  0  0  0  0  0  0  0  0  # atno 27222 bound_to 8162
  217.8756   47.7514   11.0248 LP  0  0  0  0  0  0  0  0  0  0  0  0  # atno 27223 bound_to 8162
  219.1514   44.4608   10.6233 LP  0  0  0  0  0  0  0  0  0  0  0  0  # atno 27224 bound_to 8231
  212.8222   42.8919   12.3968 LP  0  0  0  0  0  0  0  0  0  0  0  0  # atno 27225 bound_to 10312
  212.1338   42.2759   10.9317 LP  0  0  0  0  0  0  0  0  0  0  0  0  # atno 27226 bound_to 10312

> <Gold.Score>
     Fitness  S(hb_ext) S(vdw_ext)  S(hb_int)    S(int)      intcor
     28.67       0.00      21.33       0.00      -0.66      -0.76

> <Gold.Goldscore.Fitness>
28.6716

> <Gold.Goldscore.Internal.Vdw>
-0.7798

> <Gold.Goldscore.Internal.Torsion>
-0.6350

> <Gold.Goldscore.External.Vdw>
21.3302

> <Gold.Goldscore.Internal.HBond>
0.0000

> <Gold.Goldscore.External.HBond>
0.0000

> <Gold.Goldscore.Internal.Correction>
-0.7573

> <Gold.Goldscore.Internal.Vdw.Weighted>
-0.7798

> <Gold.Goldscore.Internal.Torsion.Weighted>
-0.6350

> <Gold.Goldscore.External.Vdw.Weighted>
29.3291

> <Gold.Goldscore.Internal.HBond.Weighted>
0.0000

> <Gold.Goldscore.External.HBond.Weighted>
0.0000

> <Gold.Goldscore.Internal.Correction.Weighted>
-0.7573

> <Gold.Rescore>
     Score     S(PLP)   S(hbond)     S(cho)   S(metal)  DE(clash)   DE(tors)     intcor
     22.13     -24.76       0.00       0.00       0.00       1.87       0.37       ----

> <Gold.PLP.Fitness>
22.1344

> <Gold.PLP.PLP>
-24.7559

> <Gold.PLP.part.hbond>
0.0000

> <Gold.PLP.part.metal>
0.0000

> <Gold.PLP.part.buried>
-5.5969

> <Gold.PLP.part.nonpolar>
-21.1094

> <Gold.PLP.part.repulsive>
0.5218

> <Gold.PLP.ligand.clash>
1.8734

> <Gold.PLP.ligand.torsion>
0.3741

> <Gold.PLP.Chemscore.Hbond>
0.0000

> <Gold.PLP.Chemscore.CHOScore>
0.0000

> <Gold.PLP.Chemscore.Metal>
0.0000

> <Gold.PLP.Chemscore.Internal.Correction>
   9.000000E+99

#       Name:                CT1002167954
#       Creating user name   hitesit
#       Creation time:       Sun Apr 16 23:04:38 2023


#       File generated by GOLD software.
#

@<TRIPOS>MOLECULE
CT1002167954|ligand_prepared|mol2|1|dock1
    29    30     1
SMALL
NO_CHARGES


@<TRIPOS>ATOM
      1 C1         206.7475  48.4454  13.3431 C.3            1 RES1               0.0000
      2 C2         207.9806  48.5527  12.4229 C.ar           1 RES1               0.0000
      3 C3         207.2684  48.0040  14.7077 C.2            1 RES1               0.0000
      4 C4         206.0936  49.8227  13.3425 C.2            1 RES1               0.0000
      5 C5         205.6967  47.4175  12.8625 C.3            1 RES1               0.0000
      6 C6         208.8864  49.5987  12.5710 C.ar           1 RES1               0.0000
      7 C7         208.2266  47.6134  11.4249 C.ar           1 RES1               0.0000
      8 N8         207.3023  48.9360  15.7027 N.am           1 RES1               0.0000
      9 O9         207.6801  46.8660  14.8970 O.2            1 RES1               0.0000
     10 N10        206.0850  50.5299  14.5163 N.am           1 RES1               0.0000
     11 O11        205.6006  50.3090  12.3322 O.2            1 RES1               0.0000
     12 C12        204.4044  47.4417  13.6633 C.3            1 RES1               0.0000
     13 C13        209.9995  49.7006  11.7531 C.ar           1 RES1               0.0000
     14 C14        209.3402  47.7173  10.6079 C.ar           1 RES1               0.0000
     15 C15        206.6869  50.1619  15.6887 C.2            1 RES1               0.0000
     16 C16        210.2274  48.7599  10.7714 C.ar           1 RES1               0.0000
     17 O17        206.6825  50.8767  16.6867 O.2            1 RES1               0.0000
     18 H18        205.4633  47.6173  11.8094 H              1 RES1               0.0000
     19 H19        206.1318  46.4124  12.9246 H              1 RES1               0.0000
     20 H20        208.7223  50.3498  13.3364 H              1 RES1               0.0000
     21 H21        207.5416  46.7854  11.2774 H              1 RES1               0.0000
     22 H22        207.8346  48.6998  16.5340 H              1 RES1               0.0000
     23 H23        205.5834  51.4123  14.5160 H              1 RES1               0.0000
     24 H24        203.7022  46.7018  13.2849 H              1 RES1               0.0000
     25 H25        204.5960  47.2220  14.7116 H              1 RES1               0.0000
     26 H26        203.9315  48.4197  13.6029 H              1 RES1               0.0000
     27 H27        210.6940  50.5237  11.8849 H              1 RES1               0.0000
     28 H28        209.5153  46.9750   9.8362 H              1 RES1               0.0000
     29 H29        211.0997  48.8397  10.1311 H              1 RES1               0.0000
@<TRIPOS>BOND
    1    1    2 1     
    2    1    3 1     
    3    1    4 1     
    4    1    5 1     
    5    2    6 ar    
    6    2    7 ar    
    7    3    8 1     
    8    3    9 2     
    9    4   10 1     
   10    4   11 2     
   11    5   12 1     
   12    5   18 1     
   13    5   19 1     
   14    6   13 ar    
   15    6   20 1     
   16    7   14 ar    
   17    7   21 1     
   18    8   15 1     
   19    8   22 1     
   20   10   15 1     
   21   10   23 1     
   22   12   24 1     
   23   12   25 1     
   24   12   26 1     
   25   13   16 ar    
   26   13   27 1     
   27   14   16 ar    
   28   14   28 1     
   29   15   17 2     
   30   16   29 1     
@<TRIPOS>SUBSTRUCTURE
      1 RES1           1
@<TRIPOS>SET
DONOR_HYDROGENS      STATIC     ATOMS    <user>   **** ""
2 22 23
ATOM$RED        STATIC     ATOMS    COLORGROUP SYSTEM
2 22 23
@<TRIPOS>COMMENT
> <Gold.Version>
2022.3.0

> <Gold.Id.Protein>
unknown|4d1n_clean|pdb

> <Gold.Protein.RotatedTorsions>
[ 8321 8305 8306 8307 ] final  -58.45 input   94.69 | X-H torsion
[ 8357 8347 8348 8349 ] final -117.87 input   68.57 | X-H torsion
[ 8421 8399 8400 8401 ] final   48.10 input  113.07 | X-H torsion
[ 8505 8489 8490 8491 ] final  -52.45 input   89.94 | X-H torsion
[ 8545 8533 8534 8535 ] final   72.61 input  110.24 | X-H torsion
[ 9073 9052 9051 9049 ] final  -73.85 input   60.00 | X-H torsion
[ 8253 8231 8232 8233 ] final -107.34 input   84.65 | X-H torsion
[ 10325 10309 10310 10311 ] final   99.00 input   62.15 | X-H torsion
[ 27198 8308 8307 8306 ] final    4.28 input   -0.00 | X-H torsion
[ 27205 8350 8349 8348 ] final  163.63 input    0.00 | X-H torsion
[ 27208 8402 8401 8400 ] final  101.87 input    0.00 | X-H torsion
[ 27211 8492 8491 8490 ] final  112.14 input   -0.00 | X-H torsion
[ 27220 8234 8233 8232 ] final   30.31 input    0.00 | X-H torsion
[ 27222 8162 8161 8160 ] final  166.00 input    0.00 | X-H torsion
[ 27225 10312 10311 10310 ] final   39.11 input    0.00 | X-H torsion

> <Gold.Protein.ActiveResidues>
 ASP403  LEU406  ILE407  VAL431  PHE432  ASP433  ALA434  ARG435  ASP436  CYS437 
 TYR446  ASN449  THR465  ILE466 

> <Gold.Protein.RotatedAtoms>
  219.2575   46.1690   10.9195 H   0  0  0  0  0  0  0  0  0  0  0  0  # atno 8253 bound_to 8231
  215.9540   45.4776    9.8867 H   0  0  0  0  0  0  0  0  0  0  0  0  # atno 8321 bound_to 8305
  213.2343   45.3686    9.9468 H   0  0  0  0  0  0  0  0  0  0  0  0  # atno 8357 bound_to 8347
  210.4174   45.1389   10.3537 H   0  0  0  0  0  0  0  0  0  0  0  0  # atno 8421 bound_to 8399
  207.8833   44.1850    9.9980 H   0  0  0  0  0  0  0  0  0  0  0  0  # atno 8505 bound_to 8489
  207.5082   43.0504    8.6160 H   0  0  0  0  0  0  0  0  0  0  0  0  # atno 8545 bound_to 8533
  211.1660   45.8642    7.0967 H   0  0  0  0  0  0  0  0  0  0  0  0  # atno 9073 bound_to 9052
  215.9602   42.2913   11.4142 H   0  0  0  0  0  0  0  0  0  0  0  0  # atno 10325 bound_to 10309
  216.0438   47.1662   10.3383 LP  0  0  0  0  0  0  0  0  0  0  0  0  # atno 27197 bound_to 8305
  213.2238   47.4002    9.1092 LP  0  0  0  0  0  0  0  0  0  0  0  0  # atno 27198 bound_to 8308
  212.1347   46.1835    8.5316 LP  0  0  0  0  0  0  0  0  0  0  0  0  # atno 27199 bound_to 8308
  213.1537   43.9130   10.9120 LP  0  0  0  0  0  0  0  0  0  0  0  0  # atno 27204 bound_to 8347
  209.1495   42.2726    9.8139 LP  0  0  0  0  0  0  0  0  0  0  0  0  # atno 27205 bound_to 8350
  210.1049   42.2835    8.3692 LP  0  0  0  0  0  0  0  0  0  0  0  0  # atno 27206 bound_to 8350
  210.9504   43.5373   10.8086 LP  0  0  0  0  0  0  0  0  0  0  0  0  # atno 27207 bound_to 8399
  205.9995   44.7250   11.5199 LP  0  0  0  0  0  0  0  0  0  0  0  0  # atno 27208 bound_to 8402
  206.2846   43.1175   10.9415 LP  0  0  0  0  0  0  0  0  0  0  0  0  # atno 27209 bound_to 8402
  208.6379   45.7256    9.6598 LP  0  0  0  0  0  0  0  0  0  0  0  0  # atno 27210 bound_to 8489
  205.7767   44.5772    5.8512 LP  0  0  0  0  0  0  0  0  0  0  0  0  # atno 27211 bound_to 8492
  204.6299   44.4110    7.1385 LP  0  0  0  0  0  0  0  0  0  0  0  0  # atno 27212 bound_to 8492
  207.1565   44.2350    7.3781 LP  0  0  0  0  0  0  0  0  0  0  0  0  # atno 27217 bound_to 8533
  210.1957   45.7818    5.7929 LP  0  0  0  0  0  0  0  0  0  0  0  0  # atno 27218 bound_to 9052
  211.5894   46.6301    5.7247 LP  0  0  0  0  0  0  0  0  0  0  0  0  # atno 27219 bound_to 9052
  216.8860   43.5219   10.8796 LP  0  0  0  0  0  0  0  0  0  0  0  0  # atno 27220 bound_to 8234
  215.2001   43.7781   10.5761 LP  0  0  0  0  0  0  0  0  0  0  0  0  # atno 27221 bound_to 8234
  218.3229   47.8002   10.2625 LP  0  0  0  0  0  0  0  0  0  0  0  0  # atno 27222 bound_to 8162
  219.0739   48.2422   11.7593 LP  0  0  0  0  0  0  0  0  0  0  0  0  # atno 27223 bound_to 8162
  219.0417   44.4474   10.7390 LP  0  0  0  0  0  0  0  0  0  0  0  0  # atno 27224 bound_to 8231
  213.2200   42.8822   11.3320 LP  0  0  0  0  0  0  0  0  0  0  0  0  # atno 27225 bound_to 10312
  211.7360   42.2855   11.9966 LP  0  0  0  0  0  0  0  0  0  0  0  0  # atno 27226 bound_to 10312

> <Gold.Score>
     Fitness  S(hb_ext) S(vdw_ext)  S(hb_int)    S(int)      intcor
     28.15       0.00      20.48       0.00      -0.00      -0.76

> <Gold.Goldscore.Fitness>
28.1520

> <Gold.Goldscore.Internal.Vdw>
-0.3053

> <Gold.Goldscore.Internal.Torsion>
-0.4570

> <Gold.Goldscore.External.Vdw>
20.4778

> <Gold.Goldscore.Internal.HBond>
0.0000

> <Gold.Goldscore.External.HBond>
0.0000

> <Gold.Goldscore.Internal.Correction>
-0.7573

> <Gold.Goldscore.Internal.Vdw.Weighted>
-0.3053

> <Gold.Goldscore.Internal.Torsion.Weighted>
-0.4570

> <Gold.Goldscore.External.Vdw.Weighted>
28.1569

> <Gold.Goldscore.Internal.HBond.Weighted>
0.0000

> <Gold.Goldscore.External.HBond.Weighted>
0.0000

> <Gold.Goldscore.Internal.Correction.Weighted>
-0.7573

> <Gold.Rescore>
     Score     S(PLP)   S(hbond)     S(cho)   S(metal)  DE(clash)   DE(tors)     intcor
     20.95     -21.15       0.00       0.00       0.00       0.00       0.10       ----

> <Gold.PLP.Fitness>
20.9506

> <Gold.PLP.PLP>
-21.1548

> <Gold.PLP.part.hbond>
-1.6475

> <Gold.PLP.part.metal>
0.0000

> <Gold.PLP.part.buried>
-2.9604

> <Gold.PLP.part.nonpolar>
-17.9022

> <Gold.PLP.part.repulsive>
1.4829

> <Gold.PLP.ligand.clash>
0.0000

> <Gold.PLP.ligand.torsion>
0.1021

> <Gold.PLP.Chemscore.Hbond>
0.0000

> <Gold.PLP.Chemscore.CHOScore>
0.0000

> <Gold.PLP.Chemscore.Metal>
0.0000

> <Gold.PLP.Chemscore.Internal.Correction>
   9.000000E+99

#       Name:                CT1002167954
#       Creating user name   hitesit
#       Creation time:       Sun Apr 16 23:04:40 2023


#       File generated by GOLD software.
#

@<TRIPOS>MOLECULE
CT1002167954|ligand_prepared|mol2|1|dock5
    29    30     1
SMALL
NO_CHARGES


@<TRIPOS>ATOM
      1 C1         207.3021  48.9529  12.0652 C.3            1 RES1               0.0000
      2 C2         208.5252  48.8620  11.1301 C.ar           1 RES1               0.0000
      3 C3         206.1747  48.1945  11.3710 C.2            1 RES1               0.0000
      4 C4         207.7351  48.3442  13.3944 C.2            1 RES1               0.0000
      5 C5         206.8276  50.4000  12.3345 C.3            1 RES1               0.0000
      6 C6         209.1281  50.0157  10.6378 C.ar           1 RES1               0.0000
      7 C7         209.0626  47.6340  10.7537 C.ar           1 RES1               0.0000
      8 N8         205.8337  46.9724  11.8711 N.am           1 RES1               0.0000
      9 O9         205.6201  48.6443  10.3758 O.2            1 RES1               0.0000
     10 N10        207.1275  47.1840  13.7976 N.am           1 RES1               0.0000
     11 O11        208.6088  48.8498  14.0882 O.2            1 RES1               0.0000
     12 C12        205.6305  50.4890  13.2678 C.3            1 RES1               0.0000
     13 C13        210.2302  49.9444   9.8019 C.ar           1 RES1               0.0000
     14 C14        210.1647  47.5649   9.9174 C.ar           1 RES1               0.0000
     15 C15        206.2182  46.4541  13.0816 C.2            1 RES1               0.0000
     16 C16        210.7494  48.7192   9.4416 C.ar           1 RES1               0.0000
     17 O17        205.7570  45.3913  13.4876 O.2            1 RES1               0.0000
     18 H18        207.6583  50.9686  12.7704 H              1 RES1               0.0000
     19 H19        206.5654  50.8693  11.3782 H              1 RES1               0.0000
     20 H20        208.7320  50.9887  10.9086 H              1 RES1               0.0000
     21 H21        208.6183  46.7128  11.1151 H              1 RES1               0.0000
     22 H22        205.2377  46.3900  11.2915 H              1 RES1               0.0000
     23 H23        207.3759  46.8321  14.7167 H              1 RES1               0.0000
     24 H24        205.3387  51.5256  13.4230 H              1 RES1               0.0000
     25 H25        204.7778  49.9553  12.8535 H              1 RES1               0.0000
     26 H26        205.8642  50.0540  14.2374 H              1 RES1               0.0000
     27 H27        210.6859  50.8557   9.4290 H              1 RES1               0.0000
     28 H28        210.5696  46.5985   9.6359 H              1 RES1               0.0000
     29 H29        211.6130  48.6637   8.7870 H              1 RES1               0.0000
@<TRIPOS>BOND
    1    1    2 1     
    2    1    3 1     
    3    1    4 1     
    4    1    5 1     
    5    2    6 ar    
    6    2    7 ar    
    7    3    8 1     
    8    3    9 2     
    9    4   10 1     
   10    4   11 2     
   11    5   12 1     
   12    5   18 1     
   13    5   19 1     
   14    6   13 ar    
   15    6   20 1     
   16    7   14 ar    
   17    7   21 1     
   18    8   15 1     
   19    8   22 1     
   20   10   15 1     
   21   10   23 1     
   22   12   24 1     
   23   12   25 1     
   24   12   26 1     
   25   13   16 ar    
   26   13   27 1     
   27   14   16 ar    
   28   14   28 1     
   29   15   17 2     
   30   16   29 1     
@<TRIPOS>SUBSTRUCTURE
      1 RES1           1
@<TRIPOS>SET
DONOR_HYDROGENS      STATIC     ATOMS    <user>   **** ""
2 22 23
ATOM$RED        STATIC     ATOMS    COLORGROUP SYSTEM
2 22 23
@<TRIPOS>COMMENT
> <Gold.Version>
2022.3.0

> <Gold.Id.Protein>
unknown|4d1n_clean|pdb

> <Gold.Protein.RotatedTorsions>
[ 8321 8305 8306 8307 ] final -142.42 input   94.69 | X-H torsion
[ 8357 8347 8348 8349 ] final   29.89 input   68.57 | X-H torsion
[ 8421 8399 8400 8401 ] final  -15.58 input  113.07 | X-H torsion
[ 8505 8489 8490 8491 ] final -102.31 input   89.94 | X-H torsion
[ 8545 8533 8534 8535 ] final  129.03 input  110.24 | X-H torsion
[ 9073 9052 9051 9049 ] final  -99.36 input   60.00 | X-H torsion
[ 8253 8231 8232 8233 ] final   37.41 input   84.65 | X-H torsion
[ 10325 10309 10310 10311 ] final   29.19 input   62.15 | X-H torsion
[ 27198 8308 8307 8306 ] final  106.97 input   -0.00 | X-H torsion
[ 27205 8350 8349 8348 ] final  -42.50 input    0.00 | X-H torsion
[ 27208 8402 8401 8400 ] final   55.33 input    0.00 | X-H torsion
[ 27211 8492 8491 8490 ] final  -72.89 input   -0.00 | X-H torsion
[ 27220 8234 8233 8232 ] final  101.33 input    0.00 | X-H torsion
[ 27222 8162 8161 8160 ] final  -78.24 input    0.00 | X-H torsion
[ 27225 10312 10311 10310 ] final   89.17 input    0.00 | X-H torsion

> <Gold.Protein.ActiveResidues>
 ASP403  LEU406  ILE407  VAL431  PHE432  ASP433  ALA434  ARG435  ASP436  CYS437 
 TYR446  ASN449  THR465  ILE466 

> <Gold.Protein.RotatedAtoms>
  218.7232   44.5975   11.1332 H   0  0  0  0  0  0  0  0  0  0  0  0  # atno 8253 bound_to 8231
  216.4108   46.0232   10.8402 H   0  0  0  0  0  0  0  0  0  0  0  0  # atno 8321 bound_to 8305
  212.7854   44.1815   11.0806 H   0  0  0  0  0  0  0  0  0  0  0  0  # atno 8357 bound_to 8347
  210.2604   44.3947    9.8113 H   0  0  0  0  0  0  0  0  0  0  0  0  # atno 8421 bound_to 8399
  207.6968   44.7363   10.4659 H   0  0  0  0  0  0  0  0  0  0  0  0  # atno 8505 bound_to 8489
  208.1502   43.3804    8.1895 H   0  0  0  0  0  0  0  0  0  0  0  0  # atno 8545 bound_to 8533
  210.8041   45.6767    7.0266 H   0  0  0  0  0  0  0  0  0  0  0  0  # atno 9073 bound_to 9052
  215.2843   42.0086   10.7067 H   0  0  0  0  0  0  0  0  0  0  0  0  # atno 10325 bound_to 10309
  215.6016   46.6381    9.4154 LP  0  0  0  0  0  0  0  0  0  0  0  0  # atno 27197 bound_to 8305
  213.1489   46.3878    8.2153 LP  0  0  0  0  0  0  0  0  0  0  0  0  # atno 27198 bound_to 8308
  212.2095   47.1959    9.4255 LP  0  0  0  0  0  0  0  0  0  0  0  0  # atno 27199 bound_to 8308
  213.5909   45.0692    9.8077 LP  0  0  0  0  0  0  0  0  0  0  0  0  # atno 27204 bound_to 8347
  209.8229   42.5436    8.2909 LP  0  0  0  0  0  0  0  0  0  0  0  0  # atno 27205 bound_to 8350
  209.4314   42.0125    9.8923 LP  0  0  0  0  0  0  0  0  0  0  0  0  # atno 27206 bound_to 8350
  211.1034   44.2625   11.3372 LP  0  0  0  0  0  0  0  0  0  0  0  0  # atno 27207 bound_to 8399
  206.2921   44.3181   11.9857 LP  0  0  0  0  0  0  0  0  0  0  0  0  # atno 27208 bound_to 8402
  205.9920   43.5245   10.4757 LP  0  0  0  0  0  0  0  0  0  0  0  0  # atno 27209 bound_to 8402
  208.8195   45.1888    9.2043 LP  0  0  0  0  0  0  0  0  0  0  0  0  # atno 27210 bound_to 8489
  204.6319   44.3361    7.1262 LP  0  0  0  0  0  0  0  0  0  0  0  0  # atno 27211 bound_to 8492
  205.7747   44.6521    5.8636 LP  0  0  0  0  0  0  0  0  0  0  0  0  # atno 27212 bound_to 8492
  206.5324   43.9142    7.7928 LP  0  0  0  0  0  0  0  0  0  0  0  0  # atno 27217 bound_to 8533
  210.3779   46.0023    5.4903 LP  0  0  0  0  0  0  0  0  0  0  0  0  # atno 27218 bound_to 9052
  211.7715   46.5984    6.0978 LP  0  0  0  0  0  0  0  0  0  0  0  0  # atno 27219 bound_to 9052
  216.2222   43.8885   11.5409 LP  0  0  0  0  0  0  0  0  0  0  0  0  # atno 27220 bound_to 8234
  215.8639   43.4115    9.9149 LP  0  0  0  0  0  0  0  0  0  0  0  0  # atno 27221 bound_to 8234
  218.2020   47.9488   11.7168 LP  0  0  0  0  0  0  0  0  0  0  0  0  # atno 27222 bound_to 8162
  219.1949   48.0936   10.3050 LP  0  0  0  0  0  0  0  0  0  0  0  0  # atno 27223 bound_to 8162
  219.5689   45.9982   10.5282 LP  0  0  0  0  0  0  0  0  0  0  0  0  # atno 27224 bound_to 8231
  212.7673   42.5689   10.8482 LP  0  0  0  0  0  0  0  0  0  0  0  0  # atno 27225 bound_to 10312
  212.1886   42.5989   12.4804 LP  0  0  0  0  0  0  0  0  0  0  0  0  # atno 27226 bound_to 10312

> <Gold.Score>
     Fitness  S(hb_ext) S(vdw_ext)  S(hb_int)    S(int)      intcor
     28.15       0.00      21.10       0.00      -0.86      -0.76

> <Gold.Goldscore.Fitness>
28.1511

> <Gold.Goldscore.Internal.Vdw>
-1.2495

> <Gold.Goldscore.Internal.Torsion>
-0.3676

> <Gold.Goldscore.External.Vdw>
21.0988

> <Gold.Goldscore.Internal.HBond>
0.0000

> <Gold.Goldscore.External.HBond>
0.0000

> <Gold.Goldscore.Internal.Correction>
-0.7573

> <Gold.Goldscore.Internal.Vdw.Weighted>
-1.2495

> <Gold.Goldscore.Internal.Torsion.Weighted>
-0.3676

> <Gold.Goldscore.External.Vdw.Weighted>
29.0108

> <Gold.Goldscore.Internal.HBond.Weighted>
0.0000

> <Gold.Goldscore.External.HBond.Weighted>
0.0000

> <Gold.Goldscore.Internal.Correction.Weighted>
-0.7573

> <Gold.Rescore>
     Score     S(PLP)   S(hbond)     S(cho)   S(metal)  DE(clash)   DE(tors)     intcor
     25.67     -25.70       0.00       0.00       0.00       0.00       0.01       ----

> <Gold.PLP.Fitness>
25.6714

> <Gold.PLP.PLP>
-25.6962

> <Gold.PLP.part.hbond>
-1.0000

> <Gold.PLP.part.metal>
0.0000

> <Gold.PLP.part.buried>
-5.4452

> <Gold.PLP.part.nonpolar>
-20.3203

> <Gold.PLP.part.repulsive>
0.4966

> <Gold.PLP.ligand.clash>
0.0000

> <Gold.PLP.ligand.torsion>
0.0124

> <Gold.PLP.Chemscore.Hbond>
0.0000

> <Gold.PLP.Chemscore.CHOScore>
0.0000

> <Gold.PLP.Chemscore.Metal>
0.0000

> <Gold.PLP.Chemscore.Internal.Correction>
   9.000000E+99

#       Name:                CT1002167954
#       Creating user name   hitesit
#       Creation time:       Sun Apr 16 23:04:39 2023


#       File generated by GOLD software.
#

@<TRIPOS>MOLECULE
CT1002167954|ligand_prepared|mol2|1|dock3
    29    30     1
SMALL
NO_CHARGES


@<TRIPOS>ATOM
      1 C1         212.3843  49.9833   8.3590 C.3            1 RES1               0.0000
      2 C2         211.3393  49.1109   9.0840 C.ar           1 RES1               0.0000
      3 C3         213.6908  49.8158   9.1291 C.2            1 RES1               0.0000
      4 C4         212.4398  49.4768   6.9220 C.2            1 RES1               0.0000
      5 C5         212.0253  51.4871   8.3219 C.3            1 RES1               0.0000
      6 C6         210.9675  47.8736   8.5667 C.ar           1 RES1               0.0000
      7 C7         210.7415  49.5279  10.2703 C.ar           1 RES1               0.0000
      8 N8         214.6685  49.0562   8.5571 N.am           1 RES1               0.0000
      9 O9         213.8462  50.3098  10.2391 O.2            1 RES1               0.0000
     10 N10        213.6016  48.8910   6.4920 N.am           1 RES1               0.0000
     11 O11        211.4822  49.5646   6.1632 O.2            1 RES1               0.0000
     12 C12        212.9136  52.3069   7.3996 C.3            1 RES1               0.0000
     13 C13        210.0340  47.0806   9.2134 C.ar           1 RES1               0.0000
     14 C14        209.8081  48.7334  10.9153 C.ar           1 RES1               0.0000
     15 C15        214.7079  48.6302   7.2538 C.2            1 RES1               0.0000
     16 C16        209.4541  47.5097  10.3882 C.ar           1 RES1               0.0000
     17 O17        215.6946  48.0502   6.8095 O.2            1 RES1               0.0000
     18 H18        210.9835  51.5934   7.9953 H              1 RES1               0.0000
     19 H19        212.1012  51.8933   9.3381 H              1 RES1               0.0000
     20 H20        211.4114  47.5203   7.6419 H              1 RES1               0.0000
     21 H21        211.0038  50.4875  10.7028 H              1 RES1               0.0000
     22 H22        215.4417  48.7794   9.1535 H              1 RES1               0.0000
     23 H23        213.6459  48.6250   5.5135 H              1 RES1               0.0000
     24 H24        212.6191  53.3542   7.4109 H              1 RES1               0.0000
     25 H25        213.9544  52.2443   7.7103 H              1 RES1               0.0000
     26 H26        212.8434  51.9462   6.3755 H              1 RES1               0.0000
     27 H27        209.7579  46.1189   8.7937 H              1 RES1               0.0000
     28 H28        209.3537  49.0754  11.8393 H              1 RES1               0.0000
     29 H29        208.7232  46.8881  10.8948 H              1 RES1               0.0000
@<TRIPOS>BOND
    1    1    2 1     
    2    1    3 1     
    3    1    4 1     
    4    1    5 1     
    5    2    6 ar    
    6    2    7 ar    
    7    3    8 1     
    8    3    9 2     
    9    4   10 1     
   10    4   11 2     
   11    5   12 1     
   12    5   18 1     
   13    5   19 1     
   14    6   13 ar    
   15    6   20 1     
   16    7   14 ar    
   17    7   21 1     
   18    8   15 1     
   19    8   22 1     
   20   10   15 1     
   21   10   23 1     
   22   12   24 1     
   23   12   25 1     
   24   12   26 1     
   25   13   16 ar    
   26   13   27 1     
   27   14   16 ar    
   28   14   28 1     
   29   15   17 2     
   30   16   29 1     
@<TRIPOS>SUBSTRUCTURE
      1 RES1           1
@<TRIPOS>SET
DONOR_HYDROGENS      STATIC     ATOMS    <user>   **** ""
2 22 23
ATOM$RED        STATIC     ATOMS    COLORGROUP SYSTEM
2 22 23
@<TRIPOS>COMMENT
> <Gold.Version>
2022.3.0

> <Gold.Id.Protein>
unknown|4d1n_clean|pdb

> <Gold.Protein.RotatedTorsions>
[ 8321 8305 8306 8307 ] final -152.79 input   94.69 | X-H torsion
[ 8357 8347 8348 8349 ] final  -84.02 input   68.57 | X-H torsion
[ 8421 8399 8400 8401 ] final  123.26 input  113.07 | X-H torsion
[ 8505 8489 8490 8491 ] final  -41.87 input   89.94 | X-H torsion
[ 8545 8533 8534 8535 ] final  147.03 input  110.24 | X-H torsion
[ 9073 9052 9051 9049 ] final   76.55 input   60.00 | X-H torsion
[ 8253 8231 8232 8233 ] final  -80.03 input   84.65 | X-H torsion
[ 10325 10309 10310 10311 ] final   71.65 input   62.15 | X-H torsion
[ 27198 8308 8307 8306 ] final  -58.95 input   -0.00 | X-H torsion
[ 27205 8350 8349 8348 ] final   -4.57 input    0.00 | X-H torsion
[ 27208 8402 8401 8400 ] final -164.05 input    0.00 | X-H torsion
[ 27211 8492 8491 8490 ] final  130.71 input   -0.00 | X-H torsion
[ 27220 8234 8233 8232 ] final -121.88 input    0.00 | X-H torsion
[ 27222 8162 8161 8160 ] final   21.12 input    0.00 | X-H torsion
[ 27225 10312 10311 10310 ] final    5.26 input    0.00 | X-H torsion

> <Gold.Protein.ActiveResidues>
 ASP403  LEU406  ILE407  VAL431  PHE432  ASP433  ALA434  ARG435  ASP436  CYS437 
 TYR446  ASN449  THR465  ILE466 

> <Gold.Protein.RotatedAtoms>
  218.9730   46.0756   11.2060 H   0  0  0  0  0  0  0  0  0  0  0  0  # atno 8253 bound_to 8231
  216.4186   46.1775   10.8846 H   0  0  0  0  0  0  0  0  0  0  0  0  # atno 8321 bound_to 8305
  212.8428   45.4290   10.2771 H   0  0  0  0  0  0  0  0  0  0  0  0  # atno 8357 bound_to 8347
  210.9440   44.8501   11.2513 H   0  0  0  0  0  0  0  0  0  0  0  0  # atno 8421 bound_to 8399
  207.9668   44.1326    9.8677 H   0  0  0  0  0  0  0  0  0  0  0  0  # atno 8505 bound_to 8489
  208.2121   43.5599    7.9872 H   0  0  0  0  0  0  0  0  0  0  0  0  # atno 8545 bound_to 8533
  211.2225   46.5264    5.4125 H   0  0  0  0  0  0  0  0  0  0  0  0  # atno 9073 bound_to 9052
  215.6415   42.3232   11.1413 H   0  0  0  0  0  0  0  0  0  0  0  0  # atno 10325 bound_to 10309
  215.5941   46.4887    9.3725 LP  0  0  0  0  0  0  0  0  0  0  0  0  # atno 27197 bound_to 8305
  212.3852   47.3134    9.4462 LP  0  0  0  0  0  0  0  0  0  0  0  0  # atno 27198 bound_to 8308
  212.9732   46.2704    8.1946 LP  0  0  0  0  0  0  0  0  0  0  0  0  # atno 27199 bound_to 8308
  213.5350   43.8542   10.5903 LP  0  0  0  0  0  0  0  0  0  0  0  0  # atno 27204 bound_to 8347
  210.2030   42.1624    8.4551 LP  0  0  0  0  0  0  0  0  0  0  0  0  # atno 27205 bound_to 8350
  209.0514   42.3937    9.7281 LP  0  0  0  0  0  0  0  0  0  0  0  0  # atno 27206 bound_to 8350
  210.4371   43.8187    9.9339 LP  0  0  0  0  0  0  0  0  0  0  0  0  # atno 27207 bound_to 8399
  205.8112   44.0786   10.4460 LP  0  0  0  0  0  0  0  0  0  0  0  0  # atno 27208 bound_to 8402
  206.4728   43.7640   12.0155 LP  0  0  0  0  0  0  0  0  0  0  0  0  # atno 27209 bound_to 8402
  208.5566   45.7766    9.7867 LP  0  0  0  0  0  0  0  0  0  0  0  0  # atno 27210 bound_to 8489
  205.7461   44.2993    5.8488 LP  0  0  0  0  0  0  0  0  0  0  0  0  # atno 27211 bound_to 8492
  204.6605   44.6889    7.1410 LP  0  0  0  0  0  0  0  0  0  0  0  0  # atno 27212 bound_to 8492
  206.4722   43.7397    7.9894 LP  0  0  0  0  0  0  0  0  0  0  0  0  # atno 27217 bound_to 8533
  211.5479   46.1443    6.9605 LP  0  0  0  0  0  0  0  0  0  0  0  0  # atno 27218 bound_to 9052
  210.1803   45.6011    6.2526 LP  0  0  0  0  0  0  0  0  0  0  0  0  # atno 27219 bound_to 9052
  215.3443   43.6251   10.2169 LP  0  0  0  0  0  0  0  0  0  0  0  0  # atno 27220 bound_to 8234
  216.7418   43.6749   11.2389 LP  0  0  0  0  0  0  0  0  0  0  0  0  # atno 27221 bound_to 8234
  219.4269   48.3096   11.3799 LP  0  0  0  0  0  0  0  0  0  0  0  0  # atno 27222 bound_to 8162
  217.9699   47.7329   10.6419 LP  0  0  0  0  0  0  0  0  0  0  0  0  # atno 27223 bound_to 8162
  219.3224   44.5397   10.4563 LP  0  0  0  0  0  0  0  0  0  0  0  0  # atno 27224 bound_to 8231
  213.2300   42.9817   11.8262 LP  0  0  0  0  0  0  0  0  0  0  0  0  # atno 27225 bound_to 10312
  211.7259   42.1861   11.5023 LP  0  0  0  0  0  0  0  0  0  0  0  0  # atno 27226 bound_to 10312

> <Gold.Score>
     Fitness  S(hb_ext) S(vdw_ext)  S(hb_int)    S(int)      intcor
     27.64       0.00      21.09       0.00      -1.35      -0.76

> <Gold.Goldscore.Fitness>
27.6391

> <Gold.Goldscore.Internal.Vdw>
-1.5742

> <Gold.Goldscore.Internal.Torsion>
-0.5376

> <Gold.Goldscore.External.Vdw>
21.0862

> <Gold.Goldscore.Internal.HBond>
0.0000

> <Gold.Goldscore.External.HBond>
0.0000

> <Gold.Goldscore.Internal.Correction>
-0.7573

> <Gold.Goldscore.Internal.Vdw.Weighted>
-1.5742

> <Gold.Goldscore.Internal.Torsion.Weighted>
-0.5376

> <Gold.Goldscore.External.Vdw.Weighted>
28.9936

> <Gold.Goldscore.Internal.HBond.Weighted>
0.0000

> <Gold.Goldscore.External.HBond.Weighted>
0.0000

> <Gold.Goldscore.Internal.Correction.Weighted>
-0.7573

> <Gold.Rescore>
     Score     S(PLP)   S(hbond)     S(cho)   S(metal)  DE(clash)   DE(tors)     intcor
     21.65     -23.77       0.13       0.00       0.00       0.77       0.87       ----

> <Gold.PLP.Fitness>
21.6465

> <Gold.PLP.PLP>
-23.7689

> <Gold.PLP.part.hbond>
-3.9641

> <Gold.PLP.part.metal>
0.0000

> <Gold.PLP.part.buried>
0.4902

> <Gold.PLP.part.nonpolar>
-22.2690

> <Gold.PLP.part.repulsive>
0.7372

> <Gold.PLP.ligand.clash>
0.7684

> <Gold.PLP.ligand.torsion>
0.8704

> <Gold.PLP.Chemscore.Hbond>
0.1290

> <Gold.PLP.Chemscore.CHOScore>
0.0000

> <Gold.PLP.Chemscore.Metal>
0.0000

> <Gold.PLP.Chemscore.Internal.Correction>
   9.000000E+99

#       Name:                CT1002167954
#       Creating user name   hitesit
#       Creation time:       Sun Apr 16 23:04:41 2023


#       File generated by GOLD software.
#

@<TRIPOS>MOLECULE
CT1002167954|ligand_prepared|mol2|1|dock8
    29    30     1
SMALL
NO_CHARGES


@<TRIPOS>ATOM
      1 C1         207.8425  49.0251  12.4940 C.3            1 RES1               0.0000
      2 C2         208.8489  48.8124  11.3447 C.ar           1 RES1               0.0000
      3 C3         208.2780  50.2976  13.2147 C.2            1 RES1               0.0000
      4 C4         206.4664  49.1181  11.8443 C.2            1 RES1               0.0000
      5 C5         207.8100  47.8671  13.5184 C.3            1 RES1               0.0000
      6 C6         209.1395  47.5313  10.8854 C.ar           1 RES1               0.0000
      7 C7         209.4913  49.8857  10.7333 C.ar           1 RES1               0.0000
      8 N8         207.5278  51.4204  13.0233 N.am           1 RES1               0.0000
      9 O9         209.2867  50.3255  13.9089 O.2            1 RES1               0.0000
     10 N10        205.7990  50.3124  11.9219 N.am           1 RES1               0.0000
     11 O11        205.9611  48.1728  11.2515 O.2            1 RES1               0.0000
     12 C12        207.0643  48.2031  14.8002 C.3            1 RES1               0.0000
     13 C13        210.0376  47.3305   9.8503 C.ar           1 RES1               0.0000
     14 C14        210.3893  49.6827   9.6985 C.ar           1 RES1               0.0000
     15 C15        206.2805  51.4768  12.4553 C.2            1 RES1               0.0000
     16 C16        210.6627  48.4059   9.2559 C.ar           1 RES1               0.0000
     17 O17        205.6417  52.5250  12.4392 O.2            1 RES1               0.0000
     18 H18        207.3346  46.9958  13.0513 H              1 RES1               0.0000
     19 H19        208.8410  47.5908  13.7718 H              1 RES1               0.0000
     20 H20        208.6592  46.6727  11.3426 H              1 RES1               0.0000
     21 H21        209.2925  50.8989  11.0657 H              1 RES1               0.0000
     22 H22        207.9317  52.2993  13.3309 H              1 RES1               0.0000
     23 H23        204.8558  50.3355  11.5474 H              1 RES1               0.0000
     24 H24        207.0716  47.3568  15.4839 H              1 RES1               0.0000
     25 H25        207.5256  49.0498  15.3042 H              1 RES1               0.0000
     26 H26        206.0281  48.4584  14.5880 H              1 RES1               0.0000
     27 H27        210.2504  46.3236   9.5066 H              1 RES1               0.0000
     28 H28        210.8795  50.5320   9.2340 H              1 RES1               0.0000
     29 H29        211.3660  48.2484   8.4448 H              1 RES1               0.0000
@<TRIPOS>BOND
    1    1    2 1     
    2    1    3 1     
    3    1    4 1     
    4    1    5 1     
    5    2    6 ar    
    6    2    7 ar    
    7    3    8 1     
    8    3    9 2     
    9    4   10 1     
   10    4   11 2     
   11    5   12 1     
   12    5   18 1     
   13    5   19 1     
   14    6   13 ar    
   15    6   20 1     
   16    7   14 ar    
   17    7   21 1     
   18    8   15 1     
   19    8   22 1     
   20   10   15 1     
   21   10   23 1     
   22   12   24 1     
   23   12   25 1     
   24   12   26 1     
   25   13   16 ar    
   26   13   27 1     
   27   14   16 ar    
   28   14   28 1     
   29   15   17 2     
   30   16   29 1     
@<TRIPOS>SUBSTRUCTURE
      1 RES1           1
@<TRIPOS>SET
DONOR_HYDROGENS      STATIC     ATOMS    <user>   **** ""
2 22 23
ATOM$RED        STATIC     ATOMS    COLORGROUP SYSTEM
2 22 23
@<TRIPOS>COMMENT
> <Gold.Version>
2022.3.0

> <Gold.Id.Protein>
unknown|4d1n_clean|pdb

> <Gold.Protein.RotatedTorsions>
[ 8321 8305 8306 8307 ] final   -3.77 input   94.69 | X-H torsion
[ 8357 8347 8348 8349 ] final  -82.61 input   68.57 | X-H torsion
[ 8421 8399 8400 8401 ] final -129.03 input  113.07 | X-H torsion
[ 8505 8489 8490 8491 ] final -100.43 input   89.94 | X-H torsion
[ 8545 8533 8534 8535 ] final  126.43 input  110.24 | X-H torsion
[ 9073 9052 9051 9049 ] final  -74.33 input   60.00 | X-H torsion
[ 8253 8231 8232 8233 ] final   17.05 input   84.65 | X-H torsion
[ 10325 10309 10310 10311 ] final  -77.45 input   62.15 | X-H torsion
[ 27198 8308 8307 8306 ] final  141.34 input   -0.00 | X-H torsion
[ 27205 8350 8349 8348 ] final -121.02 input    0.00 | X-H torsion
[ 27208 8402 8401 8400 ] final  -62.25 input    0.00 | X-H torsion
[ 27211 8492 8491 8490 ] final -131.93 input   -0.00 | X-H torsion
[ 27220 8234 8233 8232 ] final  -90.26 input    0.00 | X-H torsion
[ 27222 8162 8161 8160 ] final   -6.09 input    0.00 | X-H torsion
[ 27225 10312 10311 10310 ] final  132.91 input    0.00 | X-H torsion

> <Gold.Protein.ActiveResidues>
 ASP403  LEU406  ILE407  VAL431  PHE432  ASP433  ALA434  ARG435  ASP436  CYS437 
 TYR446  ASN449  THR465  ILE466 

> <Gold.Protein.RotatedAtoms>
  218.6023   44.8176   11.3154 H   0  0  0  0  0  0  0  0  0  0  0  0  # atno 8253 bound_to 8231
  215.6217   46.0209    9.3752 H   0  0  0  0  0  0  0  0  0  0  0  0  # atno 8321 bound_to 8305
  212.8283   45.4254   10.2929 H   0  0  0  0  0  0  0  0  0  0  0  0  # atno 8357 bound_to 8347
  210.9316   43.4998   10.7810 H   0  0  0  0  0  0  0  0  0  0  0  0  # atno 8421 bound_to 8399
  207.6965   44.7093   10.4553 H   0  0  0  0  0  0  0  0  0  0  0  0  # atno 8505 bound_to 8489
  208.1344   43.3563    8.2175 H   0  0  0  0  0  0  0  0  0  0  0  0  # atno 8545 bound_to 8533
  211.1592   45.8601    7.0970 H   0  0  0  0  0  0  0  0  0  0  0  0  # atno 9073 bound_to 9052
  215.8019   40.6787   10.6798 H   0  0  0  0  0  0  0  0  0  0  0  0  # atno 10325 bound_to 10309
  216.3654   46.6403   10.8334 LP  0  0  0  0  0  0  0  0  0  0  0  0  # atno 27197 bound_to 8305
  212.6921   46.1577    8.2307 LP  0  0  0  0  0  0  0  0  0  0  0  0  # atno 27198 bound_to 8308
  212.6663   47.4260    9.4100 LP  0  0  0  0  0  0  0  0  0  0  0  0  # atno 27199 bound_to 8308
  213.5492   43.8577   10.5749 LP  0  0  0  0  0  0  0  0  0  0  0  0  # atno 27204 bound_to 8347
  208.9942   42.8494    8.9400 LP  0  0  0  0  0  0  0  0  0  0  0  0  # atno 27205 bound_to 8350
  210.2601   41.7067    9.2431 LP  0  0  0  0  0  0  0  0  0  0  0  0  # atno 27206 bound_to 8350
  210.4493   45.1346   10.3922 LP  0  0  0  0  0  0  0  0  0  0  0  0  # atno 27207 bound_to 8399
  206.3727   43.0894   11.1622 LP  0  0  0  0  0  0  0  0  0  0  0  0  # atno 27208 bound_to 8402
  205.9114   44.7532   11.2993 LP  0  0  0  0  0  0  0  0  0  0  0  0  # atno 27209 bound_to 8402
  208.8198   45.2151    9.2146 LP  0  0  0  0  0  0  0  0  0  0  0  0  # atno 27210 bound_to 8489
  204.9505   43.6856    6.6749 LP  0  0  0  0  0  0  0  0  0  0  0  0  # atno 27211 bound_to 8492
  205.4561   45.3026    6.3148 LP  0  0  0  0  0  0  0  0  0  0  0  0  # atno 27212 bound_to 8492
  206.5478   43.9377    7.7655 LP  0  0  0  0  0  0  0  0  0  0  0  0  # atno 27217 bound_to 8533
  210.1978   45.7856    5.7861 LP  0  0  0  0  0  0  0  0  0  0  0  0  # atno 27218 bound_to 9052
  211.5941   46.6305    5.7312 LP  0  0  0  0  0  0  0  0  0  0  0  0  # atno 27219 bound_to 9052
  215.7007   43.4601    9.9554 LP  0  0  0  0  0  0  0  0  0  0  0  0  # atno 27220 bound_to 8234
  216.3854   43.8399   11.5004 LP  0  0  0  0  0  0  0  0  0  0  0  0  # atno 27221 bound_to 8234
  219.1711   48.2659   11.6941 LP  0  0  0  0  0  0  0  0  0  0  0  0  # atno 27222 bound_to 8162
  218.2257   47.7766   10.3277 LP  0  0  0  0  0  0  0  0  0  0  0  0  # atno 27223 bound_to 8162
  219.6883   45.7811   10.3483 LP  0  0  0  0  0  0  0  0  0  0  0  0  # atno 27224 bound_to 8231
  212.1854   42.2954   10.9019 LP  0  0  0  0  0  0  0  0  0  0  0  0  # atno 27225 bound_to 10312
  212.7705   42.8724   12.4266 LP  0  0  0  0  0  0  0  0  0  0  0  0  # atno 27226 bound_to 10312

> <Gold.Score>
     Fitness  S(hb_ext) S(vdw_ext)  S(hb_int)    S(int)      intcor
     27.62       0.00      20.65       0.00      -0.78      -0.76

> <Gold.Goldscore.Fitness>
27.6161

> <Gold.Goldscore.Internal.Vdw>
-0.9008

> <Gold.Goldscore.Internal.Torsion>
-0.6353

> <Gold.Goldscore.External.Vdw>
20.6508

> <Gold.Goldscore.Internal.HBond>
0.0000

> <Gold.Goldscore.External.HBond>
0.0000

> <Gold.Goldscore.Internal.Correction>
-0.7573

> <Gold.Goldscore.Internal.Vdw.Weighted>
-0.9008

> <Gold.Goldscore.Internal.Torsion.Weighted>
-0.6353

> <Gold.Goldscore.External.Vdw.Weighted>
28.3948

> <Gold.Goldscore.Internal.HBond.Weighted>
0.0000

> <Gold.Goldscore.External.HBond.Weighted>
0.0000

> <Gold.Goldscore.Internal.Correction.Weighted>
-0.7573

> <Gold.Rescore>
     Score     S(PLP)   S(hbond)     S(cho)   S(metal)  DE(clash)   DE(tors)     intcor
     26.66     -26.73       0.00       0.00       0.00       0.00       0.04       ----

> <Gold.PLP.Fitness>
26.6558

> <Gold.PLP.PLP>
-26.7306

> <Gold.PLP.part.hbond>
-1.0000

> <Gold.PLP.part.metal>
0.0000

> <Gold.PLP.part.buried>
-5.1122

> <Gold.PLP.part.nonpolar>
-21.3883

> <Gold.PLP.part.repulsive>
0.2049

> <Gold.PLP.ligand.clash>
0.0000

> <Gold.PLP.ligand.torsion>
0.0374

> <Gold.PLP.Chemscore.Hbond>
0.0000

> <Gold.PLP.Chemscore.CHOScore>
0.0000

> <Gold.PLP.Chemscore.Metal>
0.0000

> <Gold.PLP.Chemscore.Internal.Correction>
   9.000000E+99

#       Name:                CT1002167954
#       Creating user name   hitesit
#       Creation time:       Sun Apr 16 23:04:39 2023


#       File generated by GOLD software.
#

@<TRIPOS>MOLECULE
CT1002167954|ligand_prepared|mol2|1|dock4
    29    30     1
SMALL
NO_CHARGES


@<TRIPOS>ATOM
      1 C1         207.7845  49.1814  12.4025 C.3            1 RES1               0.0000
      2 C2         208.8571  48.8625  11.3411 C.ar           1 RES1               0.0000
      3 C3         206.6109  49.8040  11.6520 C.2            1 RES1               0.0000
      4 C4         207.4547  47.8593  13.0864 C.2            1 RES1               0.0000
      5 C5         208.2565  50.1763  13.4883 C.3            1 RES1               0.0000
      6 C6         209.7403  49.8470  10.9080 C.ar           1 RES1               0.0000
      7 C7         208.9772  47.5900  10.7887 C.ar           1 RES1               0.0000
      8 N8         205.4937  49.0407  11.4813 N.am           1 RES1               0.0000
      9 O9         206.6793  50.9333  11.1826 O.2            1 RES1               0.0000
     10 N10        206.1939  47.3483  12.9220 N.am           1 RES1               0.0000
     11 O11        208.2803  47.2470  13.7525 O.2            1 RES1               0.0000
     12 C12        207.3185  50.2723  14.6813 C.3            1 RES1               0.0000
     13 C13        210.7103  49.5688   9.9594 C.ar           1 RES1               0.0000
     14 C14        209.9479  47.3141   9.8400 C.ar           1 RES1               0.0000
     15 C15        205.2080  47.8637  12.1253 C.2            1 RES1               0.0000
     16 C16        210.8151  48.3023   9.4251 C.ar           1 RES1               0.0000
     17 O17        204.1176  47.3171  11.9858 O.2            1 RES1               0.0000
     18 H18        209.2479  49.8682  13.8426 H              1 RES1               0.0000
     19 H19        208.3560  51.1710  13.0366 H              1 RES1               0.0000
     20 H20        209.6714  50.8501  11.3154 H              1 RES1               0.0000
     21 H21        208.3051  46.7973  11.0994 H              1 RES1               0.0000
     22 H22        204.8071  49.3760  10.8131 H              1 RES1               0.0000
     23 H23        205.9694  46.5058  13.4417 H              1 RES1               0.0000
     24 H24        207.6963  50.9835  15.4128 H              1 RES1               0.0000
     25 H25        206.3294  50.6007  14.3689 H              1 RES1               0.0000
     26 H26        207.2160  49.3056  15.1701 H              1 RES1               0.0000
     27 H27        211.3895  50.3504   9.6352 H              1 RES1               0.0000
     28 H28        210.0263  46.3160   9.4217 H              1 RES1               0.0000
     29 H29        211.5753  48.0845   8.6822 H              1 RES1               0.0000
@<TRIPOS>BOND
    1    1    2 1     
    2    1    3 1     
    3    1    4 1     
    4    1    5 1     
    5    2    6 ar    
    6    2    7 ar    
    7    3    8 1     
    8    3    9 2     
    9    4   10 1     
   10    4   11 2     
   11    5   12 1     
   12    5   18 1     
   13    5   19 1     
   14    6   13 ar    
   15    6   20 1     
   16    7   14 ar    
   17    7   21 1     
   18    8   15 1     
   19    8   22 1     
   20   10   15 1     
   21   10   23 1     
   22   12   24 1     
   23   12   25 1     
   24   12   26 1     
   25   13   16 ar    
   26   13   27 1     
   27   14   16 ar    
   28   14   28 1     
   29   15   17 2     
   30   16   29 1     
@<TRIPOS>SUBSTRUCTURE
      1 RES1           1
@<TRIPOS>SET
DONOR_HYDROGENS      STATIC     ATOMS    <user>   **** ""
2 22 23
ATOM$RED        STATIC     ATOMS    COLORGROUP SYSTEM
2 22 23
@<TRIPOS>COMMENT
> <Gold.Version>
2022.3.0

> <Gold.Id.Protein>
unknown|4d1n_clean|pdb

> <Gold.Protein.RotatedTorsions>
[ 8321 8305 8306 8307 ] final  -88.48 input   94.69 | X-H torsion
[ 8357 8347 8348 8349 ] final -153.73 input   68.57 | X-H torsion
[ 8421 8399 8400 8401 ] final  154.39 input  113.07 | X-H torsion
[ 8505 8489 8490 8491 ] final  -81.32 input   89.94 | X-H torsion
[ 8545 8533 8534 8535 ] final  109.37 input  110.24 | X-H torsion
[ 9073 9052 9051 9049 ] final   42.99 input   60.00 | X-H torsion
[ 8253 8231 8232 8233 ] final  -50.50 input   84.65 | X-H torsion
[ 10325 10309 10310 10311 ] final   93.80 input   62.15 | X-H torsion
[ 27198 8308 8307 8306 ] final  147.60 input   -0.00 | X-H torsion
[ 27205 8350 8349 8348 ] final   -2.89 input    0.00 | X-H torsion
[ 27208 8402 8401 8400 ] final -127.38 input    0.00 | X-H torsion
[ 27211 8492 8491 8490 ] final  171.41 input   -0.00 | X-H torsion
[ 27220 8234 8233 8232 ] final   65.71 input    0.00 | X-H torsion
[ 27222 8162 8161 8160 ] final  -15.61 input    0.00 | X-H torsion
[ 27225 10312 10311 10310 ] final  -32.38 input    0.00 | X-H torsion

> <Gold.Protein.ActiveResidues>
 ASP403  LEU406  ILE407  VAL431  PHE432  ASP433  ALA434  ARG435  ASP436  CYS437 
 TYR446  ASN449  THR465  ILE466 

> <Gold.Protein.RotatedAtoms>
  218.7121   45.7819   11.4205 H   0  0  0  0  0  0  0  0  0  0  0  0  # atno 8253 bound_to 8231
  216.1722   45.4812   10.2924 H   0  0  0  0  0  0  0  0  0  0  0  0  # atno 8321 bound_to 8305
  213.6297   45.0333    9.7781 H   0  0  0  0  0  0  0  0  0  0  0  0  # atno 8357 bound_to 8347
  211.0843   44.4122   11.3710 H   0  0  0  0  0  0  0  0  0  0  0  0  # atno 8421 bound_to 8399
  207.7277   44.4549   10.3110 H   0  0  0  0  0  0  0  0  0  0  0  0  # atno 8505 bound_to 8489
  207.9912   43.2146    8.3869 H   0  0  0  0  0  0  0  0  0  0  0  0  # atno 8545 bound_to 8533
  211.6164   46.6258    5.7692 H   0  0  0  0  0  0  0  0  0  0  0  0  # atno 9073 bound_to 9052
  215.8983   42.3122   11.3666 H   0  0  0  0  0  0  0  0  0  0  0  0  # atno 10325 bound_to 10309
  215.8326   47.1627    9.9456 LP  0  0  0  0  0  0  0  0  0  0  0  0  # atno 27197 bound_to 8305
  212.6033   46.1384    8.2572 LP  0  0  0  0  0  0  0  0  0  0  0  0  # atno 27198 bound_to 8308
  212.7552   47.4453    9.3836 LP  0  0  0  0  0  0  0  0  0  0  0  0  # atno 27199 bound_to 8308
  212.7686   44.2396   11.0764 LP  0  0  0  0  0  0  0  0  0  0  0  0  # atno 27204 bound_to 8347
  210.2151   42.1454    8.4696 LP  0  0  0  0  0  0  0  0  0  0  0  0  # atno 27205 bound_to 8350
  209.0393   42.4107    9.7135 LP  0  0  0  0  0  0  0  0  0  0  0  0  # atno 27206 bound_to 8350
  210.3004   44.2454    9.8173 LP  0  0  0  0  0  0  0  0  0  0  0  0  # atno 27207 bound_to 8399
  205.9761   43.5595   10.4616 LP  0  0  0  0  0  0  0  0  0  0  0  0  # atno 27208 bound_to 8402
  206.3079   44.2830   11.9999 LP  0  0  0  0  0  0  0  0  0  0  0  0  # atno 27209 bound_to 8402
  208.7894   45.4628    9.3551 LP  0  0  0  0  0  0  0  0  0  0  0  0  # atno 27210 bound_to 8489
  205.4944   43.7985    6.0690 LP  0  0  0  0  0  0  0  0  0  0  0  0  # atno 27211 bound_to 8492
  204.9122   45.1897    6.9208 LP  0  0  0  0  0  0  0  0  0  0  0  0  # atno 27212 bound_to 8492
  206.6870   44.0754    7.6009 LP  0  0  0  0  0  0  0  0  0  0  0  0  # atno 27217 bound_to 8533
  211.1212   45.8385    7.1045 LP  0  0  0  0  0  0  0  0  0  0  0  0  # atno 27218 bound_to 9052
  210.2104   45.8067    5.7495 LP  0  0  0  0  0  0  0  0  0  0  0  0  # atno 27219 bound_to 9052
  216.6720   43.7172   11.3194 LP  0  0  0  0  0  0  0  0  0  0  0  0  # atno 27220 bound_to 8234
  215.4141   43.5828   10.1364 LP  0  0  0  0  0  0  0  0  0  0  0  0  # atno 27221 bound_to 8234
  219.0532   48.2369   11.7709 LP  0  0  0  0  0  0  0  0  0  0  0  0  # atno 27222 bound_to 8162
  218.3436   47.8056   10.2509 LP  0  0  0  0  0  0  0  0  0  0  0  0  # atno 27223 bound_to 8162
  219.5799   44.8295   10.2446 LP  0  0  0  0  0  0  0  0  0  0  0  0  # atno 27224 bound_to 8231
  212.9448   42.9340   12.3042 LP  0  0  0  0  0  0  0  0  0  0  0  0  # atno 27225 bound_to 10312
  212.0112   42.2338   11.0243 LP  0  0  0  0  0  0  0  0  0  0  0  0  # atno 27226 bound_to 10312

> <Gold.Score>
     Fitness  S(hb_ext) S(vdw_ext)  S(hb_int)    S(int)      intcor
     27.45       0.00      20.55       0.00      -0.80      -0.76

> <Gold.Goldscore.Fitness>
27.4520

> <Gold.Goldscore.Internal.Vdw>
-0.9725

> <Gold.Goldscore.Internal.Torsion>
-0.5835

> <Gold.Goldscore.External.Vdw>
20.5459

> <Gold.Goldscore.Internal.HBond>
0.0000

> <Gold.Goldscore.External.HBond>
0.0000

> <Gold.Goldscore.Internal.Correction>
-0.7573

> <Gold.Goldscore.Internal.Vdw.Weighted>
-0.9725

> <Gold.Goldscore.Internal.Torsion.Weighted>
-0.5835

> <Gold.Goldscore.External.Vdw.Weighted>
28.2506

> <Gold.Goldscore.Internal.HBond.Weighted>
0.0000

> <Gold.Goldscore.External.HBond.Weighted>
0.0000

> <Gold.Goldscore.Internal.Correction.Weighted>
-0.7573

> <Gold.Rescore>
     Score     S(PLP)   S(hbond)     S(cho)   S(metal)  DE(clash)   DE(tors)     intcor
     22.62     -24.30       0.00       0.00       0.00       0.49       0.60       ----

> <Gold.PLP.Fitness>
22.6154

> <Gold.PLP.PLP>
-24.2999

> <Gold.PLP.part.hbond>
-1.0728

> <Gold.PLP.part.metal>
0.0000

> <Gold.PLP.part.buried>
-3.6720

> <Gold.PLP.part.nonpolar>
-20.0972

> <Gold.PLP.part.repulsive>
0.2007

> <Gold.PLP.ligand.clash>
0.4861

> <Gold.PLP.ligand.torsion>
0.5992

> <Gold.PLP.Chemscore.Hbond>
0.0000

> <Gold.PLP.Chemscore.CHOScore>
0.0000

> <Gold.PLP.Chemscore.Metal>
0.0000

> <Gold.PLP.Chemscore.Internal.Correction>
   9.000000E+99

#       Name:                CT1002167954
#       Creating user name   hitesit
#       Creation time:       Sun Apr 16 23:04:39 2023


#       File generated by GOLD software.
#

@<TRIPOS>MOLECULE
CT1002167954|ligand_prepared|mol2|1|dock2
    29    30     1
SMALL
NO_CHARGES


@<TRIPOS>ATOM
      1 C1         212.4773  49.8879   7.9069 C.3            1 RES1               0.0000
      2 C2         211.4964  49.1420   8.8344 C.ar           1 RES1               0.0000
      3 C3         213.8265  49.8859   8.6197 C.2            1 RES1               0.0000
      4 C4         212.4719  49.1312   6.5833 C.2            1 RES1               0.0000
      5 C5         212.0750  51.3534   7.6210 C.3            1 RES1               0.0000
      6 C6         211.0318  49.7398  10.0021 C.ar           1 RES1               0.0000
      7 C7         211.0460  47.8590   8.5349 C.ar           1 RES1               0.0000
      8 N8         214.7938  49.0534   8.1390 N.am           1 RES1               0.0000
      9 O9         214.0257  50.5751   9.6125 O.2            1 RES1               0.0000
     10 N10        213.6257  48.4986   6.2006 N.am           1 RES1               0.0000
     11 O11        211.4740  49.0631   5.8763 O.2            1 RES1               0.0000
     12 C12        212.9500  52.0382   6.5830 C.3            1 RES1               0.0000
     13 C13        210.1466  49.0801  10.8385 C.ar           1 RES1               0.0000
     14 C14        210.1610  47.2010   9.3729 C.ar           1 RES1               0.0000
     15 C15        214.7771  48.3997   6.9331 C.2            1 RES1               0.0000
     16 C16        209.7103  47.8107  10.5244 C.ar           1 RES1               0.0000
     17 O17        215.7550  47.7670   6.5452 O.2            1 RES1               0.0000
     18 H18        211.0345  51.3727   7.2739 H              1 RES1               0.0000
     19 H19        212.1266  51.9228   8.5573 H              1 RES1               0.0000
     20 H20        211.3660  50.7373  10.2670 H              1 RES1               0.0000
     21 H21        211.3881  47.3594   7.6348 H              1 RES1               0.0000
     22 H22        215.6046  48.9029   8.7309 H              1 RES1               0.0000
     23 H23        213.6262  48.0610   5.2847 H              1 RES1               0.0000
     24 H24        212.6248  53.0636   6.4202 H              1 RES1               0.0000
     25 H25        213.9884  52.0594   6.9073 H              1 RES1               0.0000
     26 H26        212.9028  51.5126   5.6315 H              1 RES1               0.0000
     27 H27        209.7959  49.5638  11.7443 H              1 RES1               0.0000
     28 H28        209.8207  46.2018   9.1220 H              1 RES1               0.0000
     29 H29        209.0165  47.2943  11.1796 H              1 RES1               0.0000
@<TRIPOS>BOND
    1    1    2 1     
    2    1    3 1     
    3    1    4 1     
    4    1    5 1     
    5    2    6 ar    
    6    2    7 ar    
    7    3    8 1     
    8    3    9 2     
    9    4   10 1     
   10    4   11 2     
   11    5   12 1     
   12    5   18 1     
   13    5   19 1     
   14    6   13 ar    
   15    6   20 1     
   16    7   14 ar    
   17    7   21 1     
   18    8   15 1     
   19    8   22 1     
   20   10   15 1     
   21   10   23 1     
   22   12   24 1     
   23   12   25 1     
   24   12   26 1     
   25   13   16 ar    
   26   13   27 1     
   27   14   16 ar    
   28   14   28 1     
   29   15   17 2     
   30   16   29 1     
@<TRIPOS>SUBSTRUCTURE
      1 RES1           1
@<TRIPOS>SET
DONOR_HYDROGENS      STATIC     ATOMS    <user>   **** ""
2 22 23
ATOM$RED        STATIC     ATOMS    COLORGROUP SYSTEM
2 22 23
@<TRIPOS>COMMENT
> <Gold.Version>
2022.3.0

> <Gold.Id.Protein>
unknown|4d1n_clean|pdb

> <Gold.Protein.RotatedTorsions>
[ 8321 8305 8306 8307 ] final   71.16 input   94.69 | X-H torsion
[ 8357 8347 8348 8349 ] final -115.00 input   68.57 | X-H torsion
[ 8421 8399 8400 8401 ] final  -28.87 input  113.07 | X-H torsion
[ 8505 8489 8490 8491 ] final -139.00 input   89.94 | X-H torsion
[ 8545 8533 8534 8535 ] final   88.30 input  110.24 | X-H torsion
[ 9073 9052 9051 9049 ] final  144.11 input   60.00 | X-H torsion
[ 8253 8231 8232 8233 ] final   30.05 input   84.65 | X-H torsion
[ 10325 10309 10310 10311 ] final  105.82 input   62.15 | X-H torsion
[ 27198 8308 8307 8306 ] final -153.16 input   -0.00 | X-H torsion
[ 27205 8350 8349 8348 ] final  -77.06 input    0.00 | X-H torsion
[ 27208 8402 8401 8400 ] final  104.96 input    0.00 | X-H torsion
[ 27211 8492 8491 8490 ] final  148.08 input   -0.00 | X-H torsion
[ 27220 8234 8233 8232 ] final  -99.96 input    0.00 | X-H torsion
[ 27222 8162 8161 8160 ] final   87.93 input    0.00 | X-H torsion
[ 27225 10312 10311 10310 ] final  103.95 input    0.00 | X-H torsion

> <Gold.Protein.ActiveResidues>
 ASP403  LEU406  ILE407  VAL431  PHE432  ASP433  ALA434  ARG435  ASP436  CYS437 
 TYR446  ASN449  THR465  ILE466 

> <Gold.Protein.RotatedAtoms>
  218.6724   44.6682   11.2047 H   0  0  0  0  0  0  0  0  0  0  0  0  # atno 8253 bound_to 8231
  215.6858   47.0527    9.6940 H   0  0  0  0  0  0  0  0  0  0  0  0  # atno 8321 bound_to 8305
  213.1997   45.3844    9.9697 H   0  0  0  0  0  0  0  0  0  0  0  0  # atno 8357 bound_to 8347
  210.2918   44.1924    9.8036 H   0  0  0  0  0  0  0  0  0  0  0  0  # atno 8421 bound_to 8399
  207.8196   45.2769   10.5259 H   0  0  0  0  0  0  0  0  0  0  0  0  # atno 8505 bound_to 8489
  207.7359   43.0933    8.5457 H   0  0  0  0  0  0  0  0  0  0  0  0  # atno 8545 bound_to 8533
  210.3509   45.9686    5.5280 H   0  0  0  0  0  0  0  0  0  0  0  0  # atno 9073 bound_to 9052
  216.0405   42.2538   11.4720 H   0  0  0  0  0  0  0  0  0  0  0  0  # atno 10325 bound_to 10309
  216.3034   45.6416   10.5249 LP  0  0  0  0  0  0  0  0  0  0  0  0  # atno 27197 bound_to 8305
  211.9445   46.3365    8.7667 LP  0  0  0  0  0  0  0  0  0  0  0  0  # atno 27198 bound_to 8308
  213.4139   47.2473    8.8740 LP  0  0  0  0  0  0  0  0  0  0  0  0  # atno 27199 bound_to 8308
  213.1874   43.8976   10.8897 LP  0  0  0  0  0  0  0  0  0  0  0  0  # atno 27204 bound_to 8347
  209.3994   42.7969    8.4367 LP  0  0  0  0  0  0  0  0  0  0  0  0  # atno 27205 bound_to 8350
  209.8550   41.7592    9.7465 LP  0  0  0  0  0  0  0  0  0  0  0  0  # atno 27206 bound_to 8350
  211.0728   44.4596   11.3447 LP  0  0  0  0  0  0  0  0  0  0  0  0  # atno 27207 bound_to 8399
  205.9813   44.7354   11.4783 LP  0  0  0  0  0  0  0  0  0  0  0  0  # atno 27208 bound_to 8402
  206.3028   43.1071   10.9832 LP  0  0  0  0  0  0  0  0  0  0  0  0  # atno 27209 bound_to 8402
  208.6999   44.6624    9.1459 LP  0  0  0  0  0  0  0  0  0  0  0  0  # atno 27210 bound_to 8489
  205.6662   44.0573    5.9076 LP  0  0  0  0  0  0  0  0  0  0  0  0  # atno 27211 bound_to 8492
  204.7404   44.9309    7.0822 LP  0  0  0  0  0  0  0  0  0  0  0  0  # atno 27212 bound_to 8492
  206.9352   44.1933    7.4465 LP  0  0  0  0  0  0  0  0  0  0  0  0  # atno 27217 bound_to 8533
  211.7552   46.6089    6.0440 LP  0  0  0  0  0  0  0  0  0  0  0  0  # atno 27218 bound_to 9052
  210.8503   45.6979    7.0529 LP  0  0  0  0  0  0  0  0  0  0  0  0  # atno 27219 bound_to 9052
  215.5748   43.5068   10.0136 LP  0  0  0  0  0  0  0  0  0  0  0  0  # atno 27220 bound_to 8234
  216.5113   43.7933   11.4422 LP  0  0  0  0  0  0  0  0  0  0  0  0  # atno 27221 bound_to 8234
  219.3373   48.1585   10.4426 LP  0  0  0  0  0  0  0  0  0  0  0  0  # atno 27222 bound_to 8162
  218.0595   47.8840   11.5792 LP  0  0  0  0  0  0  0  0  0  0  0  0  # atno 27223 bound_to 8162
  219.6191   45.9285   10.4576 LP  0  0  0  0  0  0  0  0  0  0  0  0  # atno 27224 bound_to 8231
  212.5728   42.4670   10.8114 LP  0  0  0  0  0  0  0  0  0  0  0  0  # atno 27225 bound_to 10312
  212.3832   42.7008   12.5171 LP  0  0  0  0  0  0  0  0  0  0  0  0  # atno 27226 bound_to 10312

> <Gold.Score>
     Fitness  S(hb_ext) S(vdw_ext)  S(hb_int)    S(int)      intcor
     26.61       0.00      20.38       0.00      -1.42      -0.76

> <Gold.Goldscore.Fitness>
26.6133

> <Gold.Goldscore.Internal.Vdw>
-1.7376

> <Gold.Goldscore.Internal.Torsion>
-0.4350

> <Gold.Goldscore.External.Vdw>
20.3844

> <Gold.Goldscore.Internal.HBond>
0.0000

> <Gold.Goldscore.External.HBond>
0.0000

> <Gold.Goldscore.Internal.Correction>
-0.7573

> <Gold.Goldscore.Internal.Vdw.Weighted>
-1.7376

> <Gold.Goldscore.Internal.Torsion.Weighted>
-0.4350

> <Gold.Goldscore.External.Vdw.Weighted>
28.0286

> <Gold.Goldscore.Internal.HBond.Weighted>
0.0000

> <Gold.Goldscore.External.HBond.Weighted>
0.0000

> <Gold.Goldscore.Internal.Correction.Weighted>
-0.7573

> <Gold.Rescore>
     Score     S(PLP)   S(hbond)     S(cho)   S(metal)  DE(clash)   DE(tors)     intcor
     22.89     -24.19       0.12       0.00       0.00       0.00       0.82       ----

> <Gold.PLP.Fitness>
22.8945

> <Gold.PLP.PLP>
-24.1945

> <Gold.PLP.part.hbond>
-5.2130

> <Gold.PLP.part.metal>
0.0000

> <Gold.PLP.part.buried>
0.7928

> <Gold.PLP.part.nonpolar>
-22.4350

> <Gold.PLP.part.repulsive>
0.3843

> <Gold.PLP.ligand.clash>
0.0000

> <Gold.PLP.ligand.torsion>
0.8241

> <Gold.PLP.Chemscore.Hbond>
0.1161

> <Gold.PLP.Chemscore.CHOScore>
0.0000

> <Gold.PLP.Chemscore.Metal>
0.0000

> <Gold.PLP.Chemscore.Internal.Correction>
   9.000000E+99

#       Name:                CT1002167954
#       Creating user name   hitesit
#       Creation time:       Sun Apr 16 23:04:42 2023


#       File generated by GOLD software.
#

@<TRIPOS>MOLECULE
CT1002167954|ligand_prepared|mol2|1|dock10
    29    30     1
SMALL
NO_CHARGES


@<TRIPOS>ATOM
      1 C1         210.0776  49.5485  10.4324 C.3            1 RES1               0.0000
      2 C2         209.3759  49.3336  11.7889 C.ar           1 RES1               0.0000
      3 C3         209.1464  50.4275   9.6028 C.2            1 RES1               0.0000
      4 C4         211.4243  50.1910  10.7458 C.2            1 RES1               0.0000
      5 C5         210.3427  48.2400   9.6519 C.3            1 RES1               0.0000
      6 C6         208.4955  48.2713  11.9709 C.ar           1 RES1               0.0000
      7 C7         209.6005  50.1862  12.8665 C.ar           1 RES1               0.0000
      8 N8         209.5023  51.7317   9.4231 N.am           1 RES1               0.0000
      9 O9         208.0960  49.9932   9.1464 O.2            1 RES1               0.0000
     10 N10        211.6405  51.4729  10.3126 N.am           1 RES1               0.0000
     11 O11        212.2940  49.6047  11.3784 O.2            1 RES1               0.0000
     12 C12        211.2639  48.4159   8.4550 C.3            1 RES1               0.0000
     13 C13        207.8647  48.0669  13.1869 C.ar           1 RES1               0.0000
     14 C14        208.9685  49.9802  14.0817 C.ar           1 RES1               0.0000
     15 C15        210.7291  52.2833   9.6922 C.2            1 RES1               0.0000
     16 C16        208.1011  48.9208  14.2431 C.ar           1 RES1               0.0000
     17 O17        210.9805  53.4441   9.3815 O.2            1 RES1               0.0000
     18 H18        210.7872  47.5054  10.3347 H              1 RES1               0.0000
     19 H19        209.3840  47.8365   9.3032 H              1 RES1               0.0000
     20 H20        208.2952  47.5903  11.1504 H              1 RES1               0.0000
     21 H21        210.2780  51.0269  12.7621 H              1 RES1               0.0000
     22 H22        208.7905  52.3545   9.0547 H              1 RES1               0.0000
     23 H23        212.5666  51.8588  10.4667 H              1 RES1               0.0000
     24 H24        211.4165  47.4681   7.9431 H              1 RES1               0.0000
     25 H25        210.8407  49.1213   7.7429 H              1 RES1               0.0000
     26 H26        212.2356  48.7922   8.7682 H              1 RES1               0.0000
     27 H27        207.1819  47.2325  13.3085 H              1 RES1               0.0000
     28 H28        209.1569  50.6551  14.9100 H              1 RES1               0.0000
     29 H29        207.6071  48.7603  15.1957 H              1 RES1               0.0000
@<TRIPOS>BOND
    1    1    2 1     
    2    1    3 1     
    3    1    4 1     
    4    1    5 1     
    5    2    6 ar    
    6    2    7 ar    
    7    3    8 1     
    8    3    9 2     
    9    4   10 1     
   10    4   11 2     
   11    5   12 1     
   12    5   18 1     
   13    5   19 1     
   14    6   13 ar    
   15    6   20 1     
   16    7   14 ar    
   17    7   21 1     
   18    8   15 1     
   19    8   22 1     
   20   10   15 1     
   21   10   23 1     
   22   12   24 1     
   23   12   25 1     
   24   12   26 1     
   25   13   16 ar    
   26   13   27 1     
   27   14   16 ar    
   28   14   28 1     
   29   15   17 2     
   30   16   29 1     
@<TRIPOS>SUBSTRUCTURE
      1 RES1           1
@<TRIPOS>SET
DONOR_HYDROGENS      STATIC     ATOMS    <user>   **** ""
2 22 23
ATOM$RED        STATIC     ATOMS    COLORGROUP SYSTEM
2 22 23
@<TRIPOS>COMMENT
> <Gold.Version>
2022.3.0

> <Gold.Id.Protein>
unknown|4d1n_clean|pdb

> <Gold.Protein.RotatedTorsions>
[ 8321 8305 8306 8307 ] final -167.74 input   94.69 | X-H torsion
[ 8357 8347 8348 8349 ] final  103.28 input   68.57 | X-H torsion
[ 8421 8399 8400 8401 ] final  117.09 input  113.07 | X-H torsion
[ 8505 8489 8490 8491 ] final -162.12 input   89.94 | X-H torsion
[ 8545 8533 8534 8535 ] final -163.69 input  110.24 | X-H torsion
[ 9073 9052 9051 9049 ] final   27.30 input   60.00 | X-H torsion
[ 8253 8231 8232 8233 ] final  146.32 input   84.65 | X-H torsion
[ 10325 10309 10310 10311 ] final  144.41 input   62.15 | X-H torsion
[ 27198 8308 8307 8306 ] final  -76.72 input   -0.00 | X-H torsion
[ 27205 8350 8349 8348 ] final  -94.30 input    0.00 | X-H torsion
[ 27208 8402 8401 8400 ] final   -6.56 input    0.00 | X-H torsion
[ 27211 8492 8491 8490 ] final   14.12 input   -0.00 | X-H torsion
[ 27220 8234 8233 8232 ] final  -58.75 input    0.00 | X-H torsion
[ 27222 8162 8161 8160 ] final -171.26 input    0.00 | X-H torsion
[ 27225 10312 10311 10310 ] final   73.53 input    0.00 | X-H torsion

> <Gold.Protein.ActiveResidues>
 ASP403  LEU406  ILE407  VAL431  PHE432  ASP433  ALA434  ARG435  ASP436  CYS437 
 TYR446  ASN449  THR465  ILE466 

> <Gold.Protein.RotatedAtoms>
  219.6934   45.0512   10.1874 H   0  0  0  0  0  0  0  0  0  0  0  0  # atno 8253 bound_to 8231
  216.4053   46.4076   10.9044 H   0  0  0  0  0  0  0  0  0  0  0  0  # atno 8321 bound_to 8305
  213.6109   43.8530   10.5051 H   0  0  0  0  0  0  0  0  0  0  0  0  # atno 8357 bound_to 8347
  210.9055   44.9225   11.2026 H   0  0  0  0  0  0  0  0  0  0  0  0  # atno 8421 bound_to 8399
  207.9933   45.5669   10.4174 H   0  0  0  0  0  0  0  0  0  0  0  0  # atno 8505 bound_to 8489
  207.9512   44.0407    7.4895 H   0  0  0  0  0  0  0  0  0  0  0  0  # atno 8545 bound_to 8533
  211.7341   46.6108    5.9957 H   0  0  0  0  0  0  0  0  0  0  0  0  # atno 9073 bound_to 9052
  216.4268   41.8577   11.6713 H   0  0  0  0  0  0  0  0  0  0  0  0  # atno 10325 bound_to 10309
  215.6070   46.2660    9.3533 LP  0  0  0  0  0  0  0  0  0  0  0  0  # atno 27197 bound_to 8305
  212.1678   47.1608    9.4139 LP  0  0  0  0  0  0  0  0  0  0  0  0  # atno 27198 bound_to 8308
  213.1907   46.4229    8.2268 LP  0  0  0  0  0  0  0  0  0  0  0  0  # atno 27199 bound_to 8308
  212.7870   45.3891   10.3682 LP  0  0  0  0  0  0  0  0  0  0  0  0  # atno 27204 bound_to 8347
  209.2095   42.8580    8.6026 LP  0  0  0  0  0  0  0  0  0  0  0  0  # atno 27205 bound_to 8350
  210.0449   41.6980    9.5806 LP  0  0  0  0  0  0  0  0  0  0  0  0  # atno 27206 bound_to 8350
  210.4747   43.7481    9.9814 LP  0  0  0  0  0  0  0  0  0  0  0  0  # atno 27207 bound_to 8399
  206.5114   43.4632   11.8661 LP  0  0  0  0  0  0  0  0  0  0  0  0  # atno 27208 bound_to 8402
  205.7727   44.3794   10.5953 LP  0  0  0  0  0  0  0  0  0  0  0  0  # atno 27209 bound_to 8402
  208.5308   44.3801    9.2515 LP  0  0  0  0  0  0  0  0  0  0  0  0  # atno 27210 bound_to 8489
  205.1256   45.3328    6.6964 LP  0  0  0  0  0  0  0  0  0  0  0  0  # atno 27211 bound_to 8492
  205.2810   43.6554    6.2934 LP  0  0  0  0  0  0  0  0  0  0  0  0  # atno 27212 bound_to 8492
  206.7259   43.2723    8.4732 LP  0  0  0  0  0  0  0  0  0  0  0  0  # atno 27217 bound_to 8533
  210.8960   45.7191    7.0683 LP  0  0  0  0  0  0  0  0  0  0  0  0  # atno 27218 bound_to 9052
  210.3171   45.9413    5.5577 LP  0  0  0  0  0  0  0  0  0  0  0  0  # atno 27219 bound_to 9052
  216.1572   43.3517    9.9229 LP  0  0  0  0  0  0  0  0  0  0  0  0  # atno 27220 bound_to 8234
  215.9289   43.9483   11.5329 LP  0  0  0  0  0  0  0  0  0  0  0  0  # atno 27221 bound_to 8234
  218.0690   47.7451   10.4841 LP  0  0  0  0  0  0  0  0  0  0  0  0  # atno 27222 bound_to 8162
  219.3279   48.2974   11.5377 LP  0  0  0  0  0  0  0  0  0  0  0  0  # atno 27223 bound_to 8162
  218.6115   45.5505   11.4615 LP  0  0  0  0  0  0  0  0  0  0  0  0  # atno 27224 bound_to 8231
  212.9522   42.6778   10.9458 LP  0  0  0  0  0  0  0  0  0  0  0  0  # atno 27225 bound_to 10312
  212.0037   42.4900   12.3828 LP  0  0  0  0  0  0  0  0  0  0  0  0  # atno 27226 bound_to 10312

> <Gold.Score>
     Fitness  S(hb_ext) S(vdw_ext)  S(hb_int)    S(int)      intcor
     26.52       0.00      19.77       0.00      -0.67      -0.76

> <Gold.Goldscore.Fitness>
26.5164

> <Gold.Goldscore.Internal.Vdw>
-0.8701

> <Gold.Goldscore.Internal.Torsion>
-0.5581

> <Gold.Goldscore.External.Vdw>
19.7725

> <Gold.Goldscore.Internal.HBond>
0.0000

> <Gold.Goldscore.External.HBond>
0.0000

> <Gold.Goldscore.Internal.Correction>
-0.7573

> <Gold.Goldscore.Internal.Vdw.Weighted>
-0.8701

> <Gold.Goldscore.Internal.Torsion.Weighted>
-0.5581

> <Gold.Goldscore.External.Vdw.Weighted>
27.1872

> <Gold.Goldscore.Internal.HBond.Weighted>
0.0000

> <Gold.Goldscore.External.HBond.Weighted>
0.0000

> <Gold.Goldscore.Internal.Correction.Weighted>
-0.7573

> <Gold.Rescore>
     Score     S(PLP)   S(hbond)     S(cho)   S(metal)  DE(clash)   DE(tors)     intcor
     18.42     -20.80       0.00       0.00       0.00       0.00       1.19       ----

> <Gold.PLP.Fitness>
18.4194

> <Gold.PLP.PLP>
-20.8041

> <Gold.PLP.part.hbond>
0.0000

> <Gold.PLP.part.metal>
0.0000

> <Gold.PLP.part.buried>
-5.6866

> <Gold.PLP.part.nonpolar>
-16.3063

> <Gold.PLP.part.repulsive>
0.6857

> <Gold.PLP.ligand.clash>
0.0000

> <Gold.PLP.ligand.torsion>
1.1923

> <Gold.PLP.Chemscore.Hbond>
0.0000

> <Gold.PLP.Chemscore.CHOScore>
0.0000

> <Gold.PLP.Chemscore.Metal>
0.0000

> <Gold.PLP.Chemscore.Internal.Correction>
   9.000000E+99

#       Name:                CT1002167954
#       Creating user name   hitesit
#       Creation time:       Sun Apr 16 23:04:40 2023


#       File generated by GOLD software.
#

@<TRIPOS>MOLECULE
CT1002167954|ligand_prepared|mol2|1|dock6
    29    30     1
SMALL
NO_CHARGES


@<TRIPOS>ATOM
      1 C1         207.5560  49.0218  12.1577 C.3            1 RES1               0.0000
      2 C2         208.6403  48.8193  11.0797 C.ar           1 RES1               0.0000
      3 C3         207.7020  50.4596  12.6474 C.2            1 RES1               0.0000
      4 C4         206.2217  48.7275  11.4812 C.2            1 RES1               0.0000
      5 C5         207.6961  48.0731  13.3709 C.3            1 RES1               0.0000
      6 C6         209.3110  49.9105  10.5355 C.ar           1 RES1               0.0000
      7 C7         208.9821  47.5494  10.6222 C.ar           1 RES1               0.0000
      8 N8         206.7602  51.3617  12.2484 N.am           1 RES1               0.0000
      9 O9         208.6507  50.8053  13.3407 O.2            1 RES1               0.0000
     10 N10        205.3339  49.7611  11.3354 N.am           1 RES1               0.0000
     11 O11        205.9378  47.6136  11.0582 O.2            1 RES1               0.0000
     12 C12        206.7130  48.3643  14.4937 C.3            1 RES1               0.0000
     13 C13        210.2900  49.7383   9.5710 C.ar           1 RES1               0.0000
     14 C14        209.9613  47.3796   9.6575 C.ar           1 RES1               0.0000
     15 C15        205.5551  51.0716  11.6607 C.2            1 RES1               0.0000
     16 C16        210.6161  48.4729   9.1317 C.ar           1 RES1               0.0000
     17 O17        204.7281  51.9539  11.4490 O.2            1 RES1               0.0000
     18 H18        207.5480  47.0407  13.0307 H              1 RES1               0.0000
     19 H19        208.7165  48.1529  13.7656 H              1 RES1               0.0000
     20 H20        209.0661  50.9140  10.8671 H              1 RES1               0.0000
     21 H21        208.4793  46.6748  11.0209 H              1 RES1               0.0000
     22 H22        206.9715  52.3427  12.4010 H              1 RES1               0.0000
     23 H23        204.4237  49.5323  10.9486 H              1 RES1               0.0000
     24 H24        206.8541  47.6703  15.3197 H              1 RES1               0.0000
     25 H25        206.8490  49.3748  14.8732 H              1 RES1               0.0000
     26 H26        205.6875  48.2692  14.1427 H              1 RES1               0.0000
     27 H27        210.8014  50.6022   9.1594 H              1 RES1               0.0000
     28 H28        210.2142  46.3818   9.3142 H              1 RES1               0.0000
     29 H29        211.3833  48.3383   8.3764 H              1 RES1               0.0000
@<TRIPOS>BOND
    1    1    2 1     
    2    1    3 1     
    3    1    4 1     
    4    1    5 1     
    5    2    6 ar    
    6    2    7 ar    
    7    3    8 1     
    8    3    9 2     
    9    4   10 1     
   10    4   11 2     
   11    5   12 1     
   12    5   18 1     
   13    5   19 1     
   14    6   13 ar    
   15    6   20 1     
   16    7   14 ar    
   17    7   21 1     
   18    8   15 1     
   19    8   22 1     
   20   10   15 1     
   21   10   23 1     
   22   12   24 1     
   23   12   25 1     
   24   12   26 1     
   25   13   16 ar    
   26   13   27 1     
   27   14   16 ar    
   28   14   28 1     
   29   15   17 2     
   30   16   29 1     
@<TRIPOS>SUBSTRUCTURE
      1 RES1           1
@<TRIPOS>SET
DONOR_HYDROGENS      STATIC     ATOMS    <user>   **** ""
2 22 23
ATOM$RED        STATIC     ATOMS    COLORGROUP SYSTEM
2 22 23
@<TRIPOS>COMMENT
> <Gold.Version>
2022.3.0

> <Gold.Id.Protein>
unknown|4d1n_clean|pdb

> <Gold.Protein.RotatedTorsions>
[ 8321 8305 8306 8307 ] final  143.35 input   94.69 | X-H torsion
[ 8357 8347 8348 8349 ] final -145.06 input   68.57 | X-H torsion
[ 8421 8399 8400 8401 ] final  129.82 input  113.07 | X-H torsion
[ 8505 8489 8490 8491 ] final   24.49 input   89.94 | X-H torsion
[ 8545 8533 8534 8535 ] final -122.45 input  110.24 | X-H torsion
[ 9073 9052 9051 9049 ] final  -76.20 input   60.00 | X-H torsion
[ 8253 8231 8232 8233 ] final  161.94 input   84.65 | X-H torsion
[ 10325 10309 10310 10311 ] final  -53.25 input   62.15 | X-H torsion
[ 27198 8308 8307 8306 ] final  -36.62 input   -0.00 | X-H torsion
[ 27205 8350 8349 8348 ] final  138.80 input    0.00 | X-H torsion
[ 27208 8402 8401 8400 ] final   19.24 input    0.00 | X-H torsion
[ 27211 8492 8491 8490 ] final   55.07 input   -0.00 | X-H torsion
[ 27220 8234 8233 8232 ] final   -0.64 input    0.00 | X-H torsion
[ 27222 8162 8161 8160 ] final   85.00 input    0.00 | X-H torsion
[ 27225 10312 10311 10310 ] final   79.32 input    0.00 | X-H torsion

> <Gold.Protein.ActiveResidues>
 ASP403  LEU406  ILE407  VAL431  PHE432  ASP433  ALA434  ARG435  ASP436  CYS437 
 TYR446  ASN449  THR465  ILE466 

> <Gold.Protein.RotatedAtoms>
  219.7456   45.2839   10.1849 H   0  0  0  0  0  0  0  0  0  0  0  0  # atno 8253 bound_to 8231
  216.1833   47.0478   10.6163 H   0  0  0  0  0  0  0  0  0  0  0  0  # atno 8321 bound_to 8305
  213.5444   45.1347    9.7971 H   0  0  0  0  0  0  0  0  0  0  0  0  # atno 8357 bound_to 8347
  210.9816   44.7666   11.2945 H   0  0  0  0  0  0  0  0  0  0  0  0  # atno 8421 bound_to 8399
  208.5848   44.4417    9.1875 H   0  0  0  0  0  0  0  0  0  0  0  0  # atno 8505 bound_to 8489
  207.3821   44.2419    7.3288 H   0  0  0  0  0  0  0  0  0  0  0  0  # atno 8545 bound_to 8533
  211.1330   45.8444    7.0975 H   0  0  0  0  0  0  0  0  0  0  0  0  # atno 9073 bound_to 9052
  215.5342   40.8790   10.5144 H   0  0  0  0  0  0  0  0  0  0  0  0  # atno 10325 bound_to 10309
  215.8218   45.6464    9.6321 LP  0  0  0  0  0  0  0  0  0  0  0  0  # atno 27197 bound_to 8305
  212.6953   47.4332    9.4022 LP  0  0  0  0  0  0  0  0  0  0  0  0  # atno 27198 bound_to 8308
  212.6631   46.1506    8.2386 LP  0  0  0  0  0  0  0  0  0  0  0  0  # atno 27199 bound_to 8308
  212.8517   44.1408   11.0579 LP  0  0  0  0  0  0  0  0  0  0  0  0  # atno 27204 bound_to 8347
  209.4159   42.0245    9.8923 LP  0  0  0  0  0  0  0  0  0  0  0  0  # atno 27205 bound_to 8350
  209.8384   42.5316    8.2909 LP  0  0  0  0  0  0  0  0  0  0  0  0  # atno 27206 bound_to 8350
  210.4005   43.9001    9.8918 LP  0  0  0  0  0  0  0  0  0  0  0  0  # atno 27207 bound_to 8399
  206.4627   43.8112   12.0276 LP  0  0  0  0  0  0  0  0  0  0  0  0  # atno 27208 bound_to 8402
  205.8213   44.0314   10.4338 LP  0  0  0  0  0  0  0  0  0  0  0  0  # atno 27209 bound_to 8402
  207.9549   45.4756   10.4489 LP  0  0  0  0  0  0  0  0  0  0  0  0  # atno 27210 bound_to 8489
  205.5169   45.2600    6.2397 LP  0  0  0  0  0  0  0  0  0  0  0  0  # atno 27211 bound_to 8492
  204.8897   43.7283    6.7501 LP  0  0  0  0  0  0  0  0  0  0  0  0  # atno 27212 bound_to 8492
  207.2791   43.0768    8.6294 LP  0  0  0  0  0  0  0  0  0  0  0  0  # atno 27217 bound_to 8533
  210.2064   45.8002    5.7605 LP  0  0  0  0  0  0  0  0  0  0  0  0  # atno 27218 bound_to 9052
  211.6118   46.6317    5.7562 LP  0  0  0  0  0  0  0  0  0  0  0  0  # atno 27219 bound_to 9052
  216.8176   43.3878   10.4427 LP  0  0  0  0  0  0  0  0  0  0  0  0  # atno 27220 bound_to 8234
  215.2685   43.9122   11.0130 LP  0  0  0  0  0  0  0  0  0  0  0  0  # atno 27221 bound_to 8234
  219.3630   48.1713   10.4763 LP  0  0  0  0  0  0  0  0  0  0  0  0  # atno 27222 bound_to 8162
  218.0338   47.8711   11.5455 LP  0  0  0  0  0  0  0  0  0  0  0  0  # atno 27223 bound_to 8162
  218.5600   45.3209   11.4640 LP  0  0  0  0  0  0  0  0  0  0  0  0  # atno 27224 bound_to 8231
  212.8871   42.6378   10.9029 LP  0  0  0  0  0  0  0  0  0  0  0  0  # atno 27225 bound_to 10312
  212.0688   42.5300   12.4256 LP  0  0  0  0  0  0  0  0  0  0  0  0  # atno 27226 bound_to 10312

> <Gold.Score>
     Fitness  S(hb_ext) S(vdw_ext)  S(hb_int)    S(int)      intcor
     25.54       0.00      19.82       0.00      -1.70      -0.76

> <Gold.Goldscore.Fitness>
25.5444

> <Gold.Goldscore.Internal.Vdw>
-2.0373

> <Gold.Goldscore.Internal.Torsion>
-0.4216

> <Gold.Goldscore.External.Vdw>
19.8152

> <Gold.Goldscore.Internal.HBond>
0.0000

> <Gold.Goldscore.External.HBond>
0.0000

> <Gold.Goldscore.Internal.Correction>
-0.7573

> <Gold.Goldscore.Internal.Vdw.Weighted>
-2.0373

> <Gold.Goldscore.Internal.Torsion.Weighted>
-0.4216

> <Gold.Goldscore.External.Vdw.Weighted>
27.2459

> <Gold.Goldscore.Internal.HBond.Weighted>
0.0000

> <Gold.Goldscore.External.HBond.Weighted>
0.0000

> <Gold.Goldscore.Internal.Correction.Weighted>
-0.7573

> <Gold.Rescore>
     Score     S(PLP)   S(hbond)     S(cho)   S(metal)  DE(clash)   DE(tors)     intcor
     23.25     -25.52       0.00       0.00       0.00       1.54       0.37       ----

> <Gold.PLP.Fitness>
23.2512

> <Gold.PLP.PLP>
-25.5239

> <Gold.PLP.part.hbond>
0.0000

> <Gold.PLP.part.metal>
0.0000

> <Gold.PLP.part.buried>
-5.5651

> <Gold.PLP.part.nonpolar>
-21.2237

> <Gold.PLP.part.repulsive>
0.1823

> <Gold.PLP.ligand.clash>
1.5425

> <Gold.PLP.ligand.torsion>
0.3651

> <Gold.PLP.Chemscore.Hbond>
0.0000

> <Gold.PLP.Chemscore.CHOScore>
0.0000

> <Gold.PLP.Chemscore.Metal>
0.0000

> <Gold.PLP.Chemscore.Internal.Correction>
   9.000000E+99

