#       Name:                GA Fitting Points
#       Creating user name   hitesit
#       Creation time:       Sun Apr 16 23:04:35 2023


#       Fitting Points Used by GA Software.
#

@<TRIPOS>MOLECULE
GA Fitting Points
  1019    0    0
SMALL
NO_CHARGES


@<TRIPOS>ATOM
      1 ****       205.7500  47.0000  13.2500 Du        
      2 ****       205.7500  47.0000  13.5000 Du        
      3 ****       205.7500  47.2500  13.5000 Du        
      4 ****       206.0000  47.0000  13.2500 Du        
      5 ****       206.0000  47.0000  13.5000 Du        
      6 ****       206.0000  47.2500  13.0000 Du        
      7 ****       206.0000  47.2500  13.2500 Du        
      8 ****       206.0000  47.2500  13.5000 Du        
      9 ****       206.2500  47.0000  14.0000 Du        
     10 ****       206.2500  47.0000  14.2500 Du        
     11 ****       206.2500  47.0000  14.5000 Du        
     12 ****       206.2500  47.2500  13.5000 Du        
     13 ****       206.2500  47.2500  13.7500 Du        
     14 ****       206.2500  47.2500  14.0000 Du        
     15 ****       206.2500  47.2500  14.2500 Du        
     16 ****       206.2500  47.2500  14.5000 Du        
     17 ****       206.2500  47.5000  13.0000 Du        
     18 ****       206.2500  47.5000  13.2500 Du        
     19 ****       206.2500  47.5000  13.7500 Du        
     20 ****       206.2500  47.5000  14.0000 Du        
     21 ****       206.2500  47.5000  14.2500 Du        
     22 ****       206.2500  47.5000  14.5000 Du        
     23 ****       206.2500  47.7500  13.0000 Du        
     24 ****       206.2500  47.7500  13.2500 Du        
     25 ****       206.2500  47.7500  13.7500 Du        
     26 ****       206.2500  47.7500  14.0000 Du        
     27 ****       206.2500  47.7500  14.2500 Du        
     28 ****       206.2500  47.7500  14.5000 Du        
     29 ****       206.2500  48.0000  14.0000 Du        
     30 ****       206.2500  48.0000  14.2500 Du        
     31 ****       206.2500  48.0000  14.5000 Du        
     32 ****       206.5000  47.0000  14.2500 Du        
     33 ****       206.5000  47.0000  14.5000 Du        
     34 ****       206.5000  47.2500  13.5000 Du        
     35 ****       206.5000  47.2500  13.7500 Du        
     36 ****       206.5000  47.2500  14.0000 Du        
     37 ****       206.5000  47.2500  14.2500 Du        
     38 ****       206.5000  47.2500  14.5000 Du        
     39 ****       206.5000  47.5000  12.2500 Du        
     40 ****       206.5000  47.5000  12.5000 Du        
     41 ****       206.5000  47.5000  12.7500 Du        
     42 ****       206.5000  47.5000  13.0000 Du        
     43 ****       206.5000  47.5000  13.2500 Du        
     44 ****       206.5000  47.5000  13.5000 Du        
     45 ****       206.5000  47.5000  13.7500 Du        
     46 ****       206.5000  47.5000  14.0000 Du        
     47 ****       206.5000  47.5000  14.2500 Du        
     48 ****       206.5000  47.5000  14.5000 Du        
     49 ****       206.5000  47.7500  12.0000 Du        
     50 ****       206.5000  47.7500  12.2500 Du        
     51 ****       206.5000  47.7500  12.5000 Du        
     52 ****       206.5000  47.7500  12.7500 Du        
     53 ****       206.5000  47.7500  13.0000 Du        
     54 ****       206.5000  47.7500  13.2500 Du        
     55 ****       206.5000  47.7500  13.5000 Du        
     56 ****       206.5000  47.7500  13.7500 Du        
     57 ****       206.5000  47.7500  14.0000 Du        
     58 ****       206.5000  47.7500  14.2500 Du        
     59 ****       206.5000  47.7500  14.5000 Du        
     60 ****       206.5000  48.0000  12.0000 Du        
     61 ****       206.5000  48.0000  12.2500 Du        
     62 ****       206.5000  48.0000  12.5000 Du        
     63 ****       206.5000  48.0000  12.7500 Du        
     64 ****       206.5000  48.0000  13.0000 Du        
     65 ****       206.5000  48.0000  13.2500 Du        
     66 ****       206.5000  48.0000  13.5000 Du        
     67 ****       206.5000  48.0000  13.7500 Du        
     68 ****       206.5000  48.0000  14.0000 Du        
     69 ****       206.5000  48.0000  14.2500 Du        
     70 ****       206.5000  48.0000  14.5000 Du        
     71 ****       206.5000  48.2500  12.7500 Du        
     72 ****       206.5000  48.2500  13.5000 Du        
     73 ****       206.5000  48.2500  13.7500 Du        
     74 ****       206.5000  48.2500  14.0000 Du        
     75 ****       206.5000  48.2500  14.2500 Du        
     76 ****       206.5000  48.2500  14.5000 Du        
     77 ****       206.7500  47.2500  14.0000 Du        
     78 ****       206.7500  47.2500  14.2500 Du        
     79 ****       206.7500  47.2500  14.5000 Du        
     80 ****       206.7500  47.2500  14.7500 Du        
     81 ****       206.7500  47.5000  13.5000 Du        
     82 ****       206.7500  47.5000  13.7500 Du        
     83 ****       206.7500  47.5000  14.0000 Du        
     84 ****       206.7500  47.5000  14.2500 Du        
     85 ****       206.7500  47.5000  14.5000 Du        
     86 ****       206.7500  47.5000  14.7500 Du        
     87 ****       206.7500  47.5000  15.0000 Du        
     88 ****       206.7500  47.7500  12.0000 Du        
     89 ****       206.7500  47.7500  12.2500 Du        
     90 ****       206.7500  47.7500  12.5000 Du        
     91 ****       206.7500  47.7500  12.7500 Du        
     92 ****       206.7500  47.7500  13.0000 Du        
     93 ****       206.7500  47.7500  13.2500 Du        
     94 ****       206.7500  47.7500  13.5000 Du        
     95 ****       206.7500  47.7500  13.7500 Du        
     96 ****       206.7500  47.7500  14.0000 Du        
     97 ****       206.7500  47.7500  14.2500 Du        
     98 ****       206.7500  47.7500  14.5000 Du        
     99 ****       206.7500  47.7500  14.7500 Du        
    100 ****       206.7500  47.7500  15.0000 Du        
    101 ****       206.7500  48.0000  12.0000 Du        
    102 ****       206.7500  48.0000  12.2500 Du        
    103 ****       206.7500  48.0000  12.5000 Du        
    104 ****       206.7500  48.0000  12.7500 Du        
    105 ****       206.7500  48.0000  13.0000 Du        
    106 ****       206.7500  48.0000  13.2500 Du        
    107 ****       206.7500  48.0000  13.5000 Du        
    108 ****       206.7500  48.0000  13.7500 Du        
    109 ****       206.7500  48.0000  14.0000 Du        
    110 ****       206.7500  48.0000  14.2500 Du        
    111 ****       206.7500  48.0000  14.5000 Du        
    112 ****       206.7500  48.0000  14.7500 Du        
    113 ****       206.7500  48.0000  15.0000 Du        
    114 ****       206.7500  48.2500  12.0000 Du        
    115 ****       206.7500  48.2500  12.2500 Du        
    116 ****       206.7500  48.2500  12.5000 Du        
    117 ****       206.7500  48.2500  12.7500 Du        
    118 ****       206.7500  48.2500  13.0000 Du        
    119 ****       206.7500  48.2500  13.2500 Du        
    120 ****       206.7500  48.2500  13.5000 Du        
    121 ****       206.7500  48.2500  13.7500 Du        
    122 ****       206.7500  48.2500  14.0000 Du        
    123 ****       206.7500  48.2500  14.2500 Du        
    124 ****       206.7500  48.2500  14.5000 Du        
    125 ****       206.7500  48.2500  14.7500 Du        
    126 ****       206.7500  48.2500  15.0000 Du        
    127 ****       206.7500  48.5000  13.7500 Du        
    128 ****       206.7500  48.5000  14.0000 Du        
    129 ****       206.7500  48.5000  14.2500 Du        
    130 ****       206.7500  48.5000  14.5000 Du        
    131 ****       206.7500  48.5000  14.7500 Du        
    132 ****       206.7500  48.5000  15.0000 Du        
    133 ****       206.7500  48.7500  15.0000 Du        
    134 ****       207.0000  47.2500  14.7500 Du        
    135 ****       207.0000  47.5000  13.7500 Du        
    136 ****       207.0000  47.5000  14.0000 Du        
    137 ****       207.0000  47.5000  14.2500 Du        
    138 ****       207.0000  47.5000  14.5000 Du        
    139 ****       207.0000  47.5000  14.7500 Du        
    140 ****       207.0000  47.7500  12.0000 Du        
    141 ****       207.0000  47.7500  12.2500 Du        
    142 ****       207.0000  47.7500  12.7500 Du        
    143 ****       207.0000  47.7500  13.0000 Du        
    144 ****       207.0000  47.7500  13.2500 Du        
    145 ****       207.0000  47.7500  13.5000 Du        
    146 ****       207.0000  47.7500  13.7500 Du        
    147 ****       207.0000  47.7500  14.0000 Du        
    148 ****       207.0000  47.7500  14.2500 Du        
    149 ****       207.0000  47.7500  14.5000 Du        
    150 ****       207.0000  47.7500  14.7500 Du        
    151 ****       207.0000  47.7500  15.0000 Du        
    152 ****       207.0000  48.0000  11.7500 Du        
    153 ****       207.0000  48.0000  12.0000 Du        
    154 ****       207.0000  48.0000  12.2500 Du        
    155 ****       207.0000  48.0000  12.5000 Du        
    156 ****       207.0000  48.0000  12.7500 Du        
    157 ****       207.0000  48.0000  13.0000 Du        
    158 ****       207.0000  48.0000  13.2500 Du        
    159 ****       207.0000  48.0000  13.5000 Du        
    160 ****       207.0000  48.0000  13.7500 Du        
    161 ****       207.0000  48.0000  14.0000 Du        
    162 ****       207.0000  48.0000  14.2500 Du        
    163 ****       207.0000  48.0000  14.5000 Du        
    164 ****       207.0000  48.0000  14.7500 Du        
    165 ****       207.0000  48.0000  15.0000 Du        
    166 ****       207.0000  48.2500  11.7500 Du        
    167 ****       207.0000  48.2500  12.0000 Du        
    168 ****       207.0000  48.2500  12.2500 Du        
    169 ****       207.0000  48.2500  12.5000 Du        
    170 ****       207.0000  48.2500  12.7500 Du        
    171 ****       207.0000  48.2500  13.0000 Du        
    172 ****       207.0000  48.2500  13.2500 Du        
    173 ****       207.0000  48.2500  13.5000 Du        
    174 ****       207.0000  48.2500  13.7500 Du        
    175 ****       207.0000  48.2500  14.0000 Du        
    176 ****       207.0000  48.2500  14.2500 Du        
    177 ****       207.0000  48.2500  14.5000 Du        
    178 ****       207.0000  48.2500  14.7500 Du        
    179 ****       207.0000  48.2500  15.0000 Du        
    180 ****       207.0000  48.5000  12.5000 Du        
    181 ****       207.0000  48.5000  12.7500 Du        
    182 ****       207.0000  48.5000  13.0000 Du        
    183 ****       207.0000  48.5000  13.2500 Du        
    184 ****       207.0000  48.5000  13.5000 Du        
    185 ****       207.0000  48.5000  13.7500 Du        
    186 ****       207.0000  48.5000  14.0000 Du        
    187 ****       207.0000  48.5000  14.2500 Du        
    188 ****       207.0000  48.5000  14.5000 Du        
    189 ****       207.0000  48.5000  14.7500 Du        
    190 ****       207.0000  48.5000  15.0000 Du        
    191 ****       207.0000  48.7500  13.7500 Du        
    192 ****       207.0000  48.7500  14.0000 Du        
    193 ****       207.0000  48.7500  14.2500 Du        
    194 ****       207.0000  48.7500  14.7500 Du        
    195 ****       207.0000  48.7500  15.0000 Du        
    196 ****       207.0000  49.0000  14.7500 Du        
    197 ****       207.0000  49.0000  15.0000 Du        
    198 ****       207.0000  49.2500  15.0000 Du        
    199 ****       207.2500  47.7500  13.5000 Du        
    200 ****       207.2500  47.7500  13.7500 Du        
    201 ****       207.2500  47.7500  14.0000 Du        
    202 ****       207.2500  47.7500  14.2500 Du        
    203 ****       207.2500  48.0000  11.7500 Du        
    204 ****       207.2500  48.0000  12.0000 Du        
    205 ****       207.2500  48.0000  12.2500 Du        
    206 ****       207.2500  48.0000  12.5000 Du        
    207 ****       207.2500  48.0000  12.7500 Du        
    208 ****       207.2500  48.0000  13.0000 Du        
    209 ****       207.2500  48.0000  13.2500 Du        
    210 ****       207.2500  48.0000  13.5000 Du        
    211 ****       207.2500  48.0000  13.7500 Du        
    212 ****       207.2500  48.0000  14.0000 Du        
    213 ****       207.2500  48.0000  14.2500 Du        
    214 ****       207.2500  48.0000  14.5000 Du        
    215 ****       207.2500  48.0000  14.7500 Du        
    216 ****       207.2500  48.2500  11.7500 Du        
    217 ****       207.2500  48.2500  12.0000 Du        
    218 ****       207.2500  48.2500  12.2500 Du        
    219 ****       207.2500  48.2500  12.5000 Du        
    220 ****       207.2500  48.2500  12.7500 Du        
    221 ****       207.2500  48.2500  13.0000 Du        
    222 ****       207.2500  48.2500  13.2500 Du        
    223 ****       207.2500  48.2500  13.5000 Du        
    224 ****       207.2500  48.2500  13.7500 Du        
    225 ****       207.2500  48.2500  14.0000 Du        
    226 ****       207.2500  48.2500  14.2500 Du        
    227 ****       207.2500  48.2500  14.5000 Du        
    228 ****       207.2500  48.2500  14.7500 Du        
    229 ****       207.2500  48.5000  12.0000 Du        
    230 ****       207.2500  48.5000  12.2500 Du        
    231 ****       207.2500  48.5000  12.5000 Du        
    232 ****       207.2500  48.5000  12.7500 Du        
    233 ****       207.2500  48.5000  13.0000 Du        
    234 ****       207.2500  48.5000  13.2500 Du        
    235 ****       207.2500  48.5000  13.5000 Du        
    236 ****       207.2500  48.5000  13.7500 Du        
    237 ****       207.2500  48.5000  14.0000 Du        
    238 ****       207.2500  48.5000  14.2500 Du        
    239 ****       207.2500  48.5000  14.7500 Du        
    240 ****       207.2500  48.7500  12.0000 Du        
    241 ****       207.2500  48.7500  12.2500 Du        
    242 ****       207.2500  48.7500  12.5000 Du        
    243 ****       207.2500  48.7500  12.7500 Du        
    244 ****       207.2500  48.7500  13.0000 Du        
    245 ****       207.2500  48.7500  13.2500 Du        
    246 ****       207.2500  48.7500  13.5000 Du        
    247 ****       207.2500  48.7500  13.7500 Du        
    248 ****       207.2500  48.7500  14.0000 Du        
    249 ****       207.2500  48.7500  14.2500 Du        
    250 ****       207.2500  48.7500  14.7500 Du        
    251 ****       207.2500  48.7500  15.0000 Du        
    252 ****       207.2500  49.0000  14.7500 Du        
    253 ****       207.2500  49.0000  15.0000 Du        
    254 ****       207.2500  49.0000  15.2500 Du        
    255 ****       207.2500  49.2500  15.0000 Du        
    256 ****       207.2500  49.2500  15.2500 Du        
    257 ****       207.2500  49.2500  15.5000 Du        
    258 ****       207.2500  49.5000  15.5000 Du        
    259 ****       207.2500  49.7500  15.5000 Du        
    260 ****       207.5000  48.0000  11.7500 Du        
    261 ****       207.5000  48.0000  12.0000 Du        
    262 ****       207.5000  48.0000  12.2500 Du        
    263 ****       207.5000  48.0000  13.5000 Du        
    264 ****       207.5000  48.0000  13.7500 Du        
    265 ****       207.5000  48.0000  14.0000 Du        
    266 ****       207.5000  48.2500  11.7500 Du        
    267 ****       207.5000  48.2500  12.0000 Du        
    268 ****       207.5000  48.2500  12.2500 Du        
    269 ****       207.5000  48.2500  12.5000 Du        
    270 ****       207.5000  48.2500  12.7500 Du        
    271 ****       207.5000  48.2500  13.0000 Du        
    272 ****       207.5000  48.2500  13.2500 Du        
    273 ****       207.5000  48.2500  13.5000 Du        
    274 ****       207.5000  48.2500  13.7500 Du        
    275 ****       207.5000  48.2500  14.0000 Du        
    276 ****       207.5000  48.5000  11.7500 Du        
    277 ****       207.5000  48.5000  12.0000 Du        
    278 ****       207.5000  48.5000  12.2500 Du        
    279 ****       207.5000  48.5000  12.5000 Du        
    280 ****       207.5000  48.5000  12.7500 Du        
    281 ****       207.5000  48.5000  13.0000 Du        
    282 ****       207.5000  48.5000  13.2500 Du        
    283 ****       207.5000  48.5000  13.5000 Du        
    284 ****       207.5000  48.5000  13.7500 Du        
    285 ****       207.5000  48.5000  14.0000 Du        
    286 ****       207.5000  48.7500  11.7500 Du        
    287 ****       207.5000  48.7500  12.0000 Du        
    288 ****       207.5000  48.7500  12.2500 Du        
    289 ****       207.5000  48.7500  12.5000 Du        
    290 ****       207.5000  48.7500  12.7500 Du        
    291 ****       207.5000  48.7500  13.0000 Du        
    292 ****       207.5000  48.7500  13.2500 Du        
    293 ****       207.5000  48.7500  13.5000 Du        
    294 ****       207.5000  48.7500  13.7500 Du        
    295 ****       207.5000  48.7500  14.0000 Du        
    296 ****       207.5000  49.0000  12.0000 Du        
    297 ****       207.5000  49.0000  12.2500 Du        
    298 ****       207.5000  49.0000  12.7500 Du        
    299 ****       207.5000  49.0000  13.0000 Du        
    300 ****       207.5000  49.0000  13.2500 Du        
    301 ****       207.5000  49.0000  13.7500 Du        
    302 ****       207.5000  49.2500  15.2500 Du        
    303 ****       207.5000  49.5000  15.5000 Du        
    304 ****       207.5000  49.7500  15.5000 Du        
    305 ****       207.7500  48.0000  11.7500 Du        
    306 ****       207.7500  48.2500  11.5000 Du        
    307 ****       207.7500  48.2500  11.7500 Du        
    308 ****       207.7500  48.2500  12.0000 Du        
    309 ****       207.7500  48.2500  12.2500 Du        
    310 ****       207.7500  48.2500  12.5000 Du        
    311 ****       207.7500  48.2500  12.7500 Du        
    312 ****       207.7500  48.2500  13.0000 Du        
    313 ****       207.7500  48.2500  13.2500 Du        
    314 ****       207.7500  48.2500  13.5000 Du        
    315 ****       207.7500  48.5000  11.5000 Du        
    316 ****       207.7500  48.5000  11.7500 Du        
    317 ****       207.7500  48.5000  12.0000 Du        
    318 ****       207.7500  48.5000  12.2500 Du        
    319 ****       207.7500  48.5000  12.5000 Du        
    320 ****       207.7500  48.5000  12.7500 Du        
    321 ****       207.7500  48.5000  13.0000 Du        
    322 ****       207.7500  48.5000  13.2500 Du        
    323 ****       207.7500  48.5000  13.5000 Du        
    324 ****       207.7500  48.5000  13.7500 Du        
    325 ****       207.7500  48.7500  11.5000 Du        
    326 ****       207.7500  48.7500  11.7500 Du        
    327 ****       207.7500  48.7500  12.0000 Du        
    328 ****       207.7500  48.7500  12.2500 Du        
    329 ****       207.7500  48.7500  12.5000 Du        
    330 ****       207.7500  48.7500  12.7500 Du        
    331 ****       207.7500  48.7500  13.0000 Du        
    332 ****       207.7500  48.7500  13.2500 Du        
    333 ****       207.7500  48.7500  13.5000 Du        
    334 ****       207.7500  48.7500  13.7500 Du        
    335 ****       207.7500  49.0000  11.5000 Du        
    336 ****       207.7500  49.0000  11.7500 Du        
    337 ****       207.7500  49.0000  12.0000 Du        
    338 ****       207.7500  49.0000  12.2500 Du        
    339 ****       207.7500  49.0000  12.5000 Du        
    340 ****       207.7500  49.0000  12.7500 Du        
    341 ****       207.7500  49.0000  13.0000 Du        
    342 ****       207.7500  49.0000  13.2500 Du        
    343 ****       207.7500  49.0000  13.5000 Du        
    344 ****       207.7500  49.2500  12.0000 Du        
    345 ****       207.7500  49.2500  12.2500 Du        
    346 ****       207.7500  49.2500  13.0000 Du        
    347 ****       207.7500  49.2500  13.2500 Du        
    348 ****       207.7500  50.0000  15.5000 Du        
    349 ****       207.7500  50.2500  15.2500 Du        
    350 ****       207.7500  50.2500  15.5000 Du        
    351 ****       207.7500  50.5000  15.5000 Du        
    352 ****       207.7500  50.7500  15.5000 Du        
    353 ****       208.0000  48.2500  11.5000 Du        
    354 ****       208.0000  48.2500  11.7500 Du        
    355 ****       208.0000  48.2500  12.0000 Du        
    356 ****       208.0000  48.2500  12.2500 Du        
    357 ****       208.0000  48.2500  12.5000 Du        
    358 ****       208.0000  48.2500  12.7500 Du        
    359 ****       208.0000  48.5000  11.2500 Du        
    360 ****       208.0000  48.5000  11.5000 Du        
    361 ****       208.0000  48.5000  11.7500 Du        
    362 ****       208.0000  48.5000  12.0000 Du        
    363 ****       208.0000  48.5000  12.2500 Du        
    364 ****       208.0000  48.5000  12.5000 Du        
    365 ****       208.0000  48.5000  12.7500 Du        
    366 ****       208.0000  48.5000  13.0000 Du        
    367 ****       208.0000  48.5000  13.2500 Du        
    368 ****       208.0000  48.7500  11.2500 Du        
    369 ****       208.0000  48.7500  11.5000 Du        
    370 ****       208.0000  48.7500  11.7500 Du        
    371 ****       208.0000  48.7500  12.0000 Du        
    372 ****       208.0000  48.7500  12.2500 Du        
    373 ****       208.0000  48.7500  12.5000 Du        
    374 ****       208.0000  48.7500  12.7500 Du        
    375 ****       208.0000  48.7500  13.0000 Du        
    376 ****       208.0000  48.7500  13.2500 Du        
    377 ****       208.0000  49.0000  11.2500 Du        
    378 ****       208.0000  49.0000  11.5000 Du        
    379 ****       208.0000  49.0000  11.7500 Du        
    380 ****       208.0000  49.0000  12.0000 Du        
    381 ****       208.0000  49.0000  12.2500 Du        
    382 ****       208.0000  49.0000  12.5000 Du        
    383 ****       208.0000  49.0000  12.7500 Du        
    384 ****       208.0000  49.0000  13.0000 Du        
    385 ****       208.0000  49.0000  13.2500 Du        
    386 ****       208.0000  49.2500  11.5000 Du        
    387 ****       208.0000  49.2500  11.7500 Du        
    388 ****       208.0000  49.2500  12.0000 Du        
    389 ****       208.0000  49.2500  12.2500 Du        
    390 ****       208.0000  49.2500  12.5000 Du        
    391 ****       208.0000  49.2500  12.7500 Du        
    392 ****       208.0000  49.2500  13.0000 Du        
    393 ****       208.0000  49.2500  13.2500 Du        
    394 ****       208.2500  48.2500  11.2500 Du        
    395 ****       208.2500  48.2500  11.5000 Du        
    396 ****       208.2500  48.2500  11.7500 Du        
    397 ****       208.2500  48.2500  12.0000 Du        
    398 ****       208.2500  48.5000  11.2500 Du        
    399 ****       208.2500  48.5000  11.5000 Du        
    400 ****       208.2500  48.5000  11.7500 Du        
    401 ****       208.2500  48.5000  12.0000 Du        
    402 ****       208.2500  48.5000  12.2500 Du        
    403 ****       208.2500  48.5000  12.5000 Du        
    404 ****       208.2500  48.5000  12.7500 Du        
    405 ****       208.2500  48.7500  11.2500 Du        
    406 ****       208.2500  48.7500  11.5000 Du        
    407 ****       208.2500  48.7500  11.7500 Du        
    408 ****       208.2500  48.7500  12.0000 Du        
    409 ****       208.2500  48.7500  12.2500 Du        
    410 ****       208.2500  48.7500  12.5000 Du        
    411 ****       208.2500  48.7500  12.7500 Du        
    412 ****       208.2500  48.7500  13.0000 Du        
    413 ****       208.2500  48.7500  13.2500 Du        
    414 ****       208.2500  49.0000  11.0000 Du        
    415 ****       208.2500  49.0000  11.2500 Du        
    416 ****       208.2500  49.0000  11.5000 Du        
    417 ****       208.2500  49.0000  11.7500 Du        
    418 ****       208.2500  49.0000  12.0000 Du        
    419 ****       208.2500  49.0000  12.2500 Du        
    420 ****       208.2500  49.0000  12.5000 Du        
    421 ****       208.2500  49.0000  12.7500 Du        
    422 ****       208.2500  49.0000  13.0000 Du        
    423 ****       208.2500  49.0000  13.2500 Du        
    424 ****       208.2500  49.2500  11.2500 Du        
    425 ****       208.2500  49.2500  11.5000 Du        
    426 ****       208.2500  49.2500  11.7500 Du        
    427 ****       208.2500  49.2500  12.0000 Du        
    428 ****       208.2500  49.2500  12.2500 Du        
    429 ****       208.2500  49.2500  12.5000 Du        
    430 ****       208.2500  49.2500  12.7500 Du        
    431 ****       208.2500  49.2500  13.0000 Du        
    432 ****       208.2500  49.2500  13.2500 Du        
    433 ****       208.5000  48.0000  11.2500 Du        
    434 ****       208.5000  48.2500  11.0000 Du        
    435 ****       208.5000  48.2500  11.2500 Du        
    436 ****       208.5000  48.2500  11.5000 Du        
    437 ****       208.5000  48.2500  11.7500 Du        
    438 ****       208.5000  48.2500  12.0000 Du        
    439 ****       208.5000  48.5000  11.0000 Du        
    440 ****       208.5000  48.5000  11.2500 Du        
    441 ****       208.5000  48.5000  11.5000 Du        
    442 ****       208.5000  48.5000  11.7500 Du        
    443 ****       208.5000  48.5000  12.0000 Du        
    444 ****       208.5000  48.5000  12.2500 Du        
    445 ****       208.5000  48.5000  12.5000 Du        
    446 ****       208.5000  48.7500  11.0000 Du        
    447 ****       208.5000  48.7500  11.2500 Du        
    448 ****       208.5000  48.7500  11.5000 Du        
    449 ****       208.5000  48.7500  11.7500 Du        
    450 ****       208.5000  48.7500  12.0000 Du        
    451 ****       208.5000  48.7500  12.2500 Du        
    452 ****       208.5000  48.7500  12.5000 Du        
    453 ****       208.5000  48.7500  12.7500 Du        
    454 ****       208.5000  49.0000  11.0000 Du        
    455 ****       208.5000  49.0000  11.2500 Du        
    456 ****       208.5000  49.0000  11.5000 Du        
    457 ****       208.5000  49.0000  11.7500 Du        
    458 ****       208.5000  49.0000  12.0000 Du        
    459 ****       208.5000  49.0000  12.2500 Du        
    460 ****       208.5000  49.0000  12.5000 Du        
    461 ****       208.5000  49.0000  12.7500 Du        
    462 ****       208.5000  49.0000  13.0000 Du        
    463 ****       208.5000  49.2500  11.0000 Du        
    464 ****       208.5000  49.2500  11.2500 Du        
    465 ****       208.5000  49.2500  11.5000 Du        
    466 ****       208.5000  49.2500  11.7500 Du        
    467 ****       208.5000  49.2500  12.0000 Du        
    468 ****       208.5000  49.2500  12.2500 Du        
    469 ****       208.5000  49.2500  12.5000 Du        
    470 ****       208.5000  49.2500  12.7500 Du        
    471 ****       208.5000  49.2500  13.0000 Du        
    472 ****       208.5000  49.5000  11.5000 Du        
    473 ****       208.5000  49.5000  11.7500 Du        
    474 ****       208.5000  49.5000  12.0000 Du        
    475 ****       208.5000  49.5000  12.2500 Du        
    476 ****       208.7500  48.0000  11.0000 Du        
    477 ****       208.7500  48.0000  11.2500 Du        
    478 ****       208.7500  48.2500  10.7500 Du        
    479 ****       208.7500  48.2500  11.0000 Du        
    480 ****       208.7500  48.2500  11.2500 Du        
    481 ****       208.7500  48.2500  11.5000 Du        
    482 ****       208.7500  48.2500  11.7500 Du        
    483 ****       208.7500  48.5000  10.7500 Du        
    484 ****       208.7500  48.5000  11.0000 Du        
    485 ****       208.7500  48.5000  11.2500 Du        
    486 ****       208.7500  48.5000  11.5000 Du        
    487 ****       208.7500  48.5000  11.7500 Du        
    488 ****       208.7500  48.5000  12.0000 Du        
    489 ****       208.7500  48.5000  12.2500 Du        
    490 ****       208.7500  48.7500  10.7500 Du        
    491 ****       208.7500  48.7500  11.0000 Du        
    492 ****       208.7500  48.7500  11.2500 Du        
    493 ****       208.7500  48.7500  11.5000 Du        
    494 ****       208.7500  48.7500  11.7500 Du        
    495 ****       208.7500  48.7500  12.0000 Du        
    496 ****       208.7500  48.7500  12.2500 Du        
    497 ****       208.7500  48.7500  12.5000 Du        
    498 ****       208.7500  49.0000  10.5000 Du        
    499 ****       208.7500  49.0000  10.7500 Du        
    500 ****       208.7500  49.0000  11.0000 Du        
    501 ****       208.7500  49.0000  11.2500 Du        
    502 ****       208.7500  49.0000  11.5000 Du        
    503 ****       208.7500  49.0000  11.7500 Du        
    504 ****       208.7500  49.0000  12.0000 Du        
    505 ****       208.7500  49.0000  12.2500 Du        
    506 ****       208.7500  49.0000  12.5000 Du        
    507 ****       208.7500  49.0000  12.7500 Du        
    508 ****       208.7500  49.2500  10.7500 Du        
    509 ****       208.7500  49.2500  11.0000 Du        
    510 ****       208.7500  49.2500  11.2500 Du        
    511 ****       208.7500  49.2500  11.5000 Du        
    512 ****       208.7500  49.2500  11.7500 Du        
    513 ****       208.7500  49.2500  12.0000 Du        
    514 ****       208.7500  49.2500  12.2500 Du        
    515 ****       208.7500  49.2500  12.5000 Du        
    516 ****       208.7500  49.5000  11.0000 Du        
    517 ****       208.7500  49.5000  11.2500 Du        
    518 ****       208.7500  49.5000  11.5000 Du        
    519 ****       208.7500  49.5000  11.7500 Du        
    520 ****       208.7500  49.5000  12.0000 Du        
    521 ****       208.7500  49.5000  12.2500 Du        
    522 ****       208.7500  49.7500  11.5000 Du        
    523 ****       208.7500  49.7500  11.7500 Du        
    524 ****       208.7500  49.7500  12.0000 Du        
    525 ****       209.0000  48.0000  10.7500 Du        
    526 ****       209.0000  48.0000  11.0000 Du        
    527 ****       209.0000  48.0000  11.2500 Du        
    528 ****       209.0000  48.2500  10.7500 Du        
    529 ****       209.0000  48.2500  11.0000 Du        
    530 ****       209.0000  48.2500  11.2500 Du        
    531 ****       209.0000  48.2500  11.5000 Du        
    532 ****       209.0000  48.2500  11.7500 Du        
    533 ****       209.0000  48.5000  10.5000 Du        
    534 ****       209.0000  48.5000  10.7500 Du        
    535 ****       209.0000  48.5000  11.0000 Du        
    536 ****       209.0000  48.5000  11.2500 Du        
    537 ****       209.0000  48.5000  11.5000 Du        
    538 ****       209.0000  48.5000  11.7500 Du        
    539 ****       209.0000  48.5000  12.0000 Du        
    540 ****       209.0000  48.7500  10.5000 Du        
    541 ****       209.0000  48.7500  10.7500 Du        
    542 ****       209.0000  48.7500  11.0000 Du        
    543 ****       209.0000  48.7500  11.2500 Du        
    544 ****       209.0000  48.7500  11.5000 Du        
    545 ****       209.0000  48.7500  11.7500 Du        
    546 ****       209.0000  48.7500  12.0000 Du        
    547 ****       209.0000  48.7500  12.2500 Du        
    548 ****       209.0000  49.0000  10.2500 Du        
    549 ****       209.0000  49.0000  10.5000 Du        
    550 ****       209.0000  49.0000  10.7500 Du        
    551 ****       209.0000  49.0000  11.0000 Du        
    552 ****       209.0000  49.0000  11.2500 Du        
    553 ****       209.0000  49.0000  11.5000 Du        
    554 ****       209.0000  49.0000  11.7500 Du        
    555 ****       209.0000  49.0000  12.0000 Du        
    556 ****       209.0000  49.0000  12.2500 Du        
    557 ****       209.0000  49.2500  10.2500 Du        
    558 ****       209.0000  49.2500  10.5000 Du        
    559 ****       209.0000  49.2500  10.7500 Du        
    560 ****       209.0000  49.2500  11.0000 Du        
    561 ****       209.0000  49.2500  11.2500 Du        
    562 ****       209.0000  49.2500  11.5000 Du        
    563 ****       209.0000  49.2500  11.7500 Du        
    564 ****       209.0000  49.2500  12.0000 Du        
    565 ****       209.0000  49.2500  12.2500 Du        
    566 ****       209.0000  49.2500  12.5000 Du        
    567 ****       209.0000  49.5000  10.7500 Du        
    568 ****       209.0000  49.5000  11.0000 Du        
    569 ****       209.0000  49.5000  11.2500 Du        
    570 ****       209.0000  49.5000  11.5000 Du        
    571 ****       209.0000  49.5000  11.7500 Du        
    572 ****       209.0000  49.5000  12.0000 Du        
    573 ****       209.0000  49.5000  12.2500 Du        
    574 ****       209.0000  49.7500  11.5000 Du        
    575 ****       209.0000  49.7500  11.7500 Du        
    576 ****       209.0000  49.7500  12.0000 Du        
    577 ****       209.2500  48.0000  10.5000 Du        
    578 ****       209.2500  48.0000  10.7500 Du        
    579 ****       209.2500  48.0000  11.0000 Du        
    580 ****       209.2500  48.2500  10.2500 Du        
    581 ****       209.2500  48.2500  10.5000 Du        
    582 ****       209.2500  48.2500  10.7500 Du        
    583 ****       209.2500  48.2500  11.0000 Du        
    584 ****       209.2500  48.2500  11.2500 Du        
    585 ****       209.2500  48.2500  11.5000 Du        
    586 ****       209.2500  48.5000  10.2500 Du        
    587 ****       209.2500  48.5000  10.5000 Du        
    588 ****       209.2500  48.5000  10.7500 Du        
    589 ****       209.2500  48.5000  11.0000 Du        
    590 ****       209.2500  48.5000  11.2500 Du        
    591 ****       209.2500  48.5000  11.5000 Du        
    592 ****       209.2500  48.7500  10.2500 Du        
    593 ****       209.2500  48.7500  10.5000 Du        
    594 ****       209.2500  48.7500  10.7500 Du        
    595 ****       209.2500  48.7500  11.0000 Du        
    596 ****       209.2500  48.7500  11.2500 Du        
    597 ****       209.2500  48.7500  11.5000 Du        
    598 ****       209.2500  48.7500  11.7500 Du        
    599 ****       209.2500  49.0000  10.0000 Du        
    600 ****       209.2500  49.0000  10.2500 Du        
    601 ****       209.2500  49.0000  10.5000 Du        
    602 ****       209.2500  49.0000  10.7500 Du        
    603 ****       209.2500  49.0000  11.0000 Du        
    604 ****       209.2500  49.0000  11.2500 Du        
    605 ****       209.2500  49.0000  11.5000 Du        
    606 ****       209.2500  49.0000  11.7500 Du        
    607 ****       209.2500  49.0000  12.0000 Du        
    608 ****       209.2500  49.2500  10.0000 Du        
    609 ****       209.2500  49.2500  10.2500 Du        
    610 ****       209.2500  49.2500  10.5000 Du        
    611 ****       209.2500  49.2500  10.7500 Du        
    612 ****       209.2500  49.2500  11.0000 Du        
    613 ****       209.2500  49.2500  11.2500 Du        
    614 ****       209.2500  49.2500  11.5000 Du        
    615 ****       209.2500  49.2500  11.7500 Du        
    616 ****       209.2500  49.2500  12.0000 Du        
    617 ****       209.2500  49.5000  10.5000 Du        
    618 ****       209.2500  49.5000  10.7500 Du        
    619 ****       209.2500  49.5000  11.0000 Du        
    620 ****       209.2500  49.5000  11.2500 Du        
    621 ****       209.2500  49.5000  11.5000 Du        
    622 ****       209.2500  49.5000  11.7500 Du        
    623 ****       209.2500  49.7500  11.5000 Du        
    624 ****       209.2500  49.7500  11.7500 Du        
    625 ****       209.2500  49.7500  12.0000 Du        
    626 ****       209.5000  48.0000  10.2500 Du        
    627 ****       209.5000  48.0000  10.5000 Du        
    628 ****       209.5000  48.0000  10.7500 Du        
    629 ****       209.5000  48.0000  11.0000 Du        
    630 ****       209.5000  48.2500  10.0000 Du        
    631 ****       209.5000  48.2500  10.2500 Du        
    632 ****       209.5000  48.2500  10.5000 Du        
    633 ****       209.5000  48.2500  10.7500 Du        
    634 ****       209.5000  48.2500  11.0000 Du        
    635 ****       209.5000  48.2500  11.2500 Du        
    636 ****       209.5000  48.5000  10.0000 Du        
    637 ****       209.5000  48.5000  10.2500 Du        
    638 ****       209.5000  48.5000  10.5000 Du        
    639 ****       209.5000  48.5000  10.7500 Du        
    640 ****       209.5000  48.5000  11.0000 Du        
    641 ****       209.5000  48.5000  11.2500 Du        
    642 ****       209.5000  48.7500   9.7500 Du        
    643 ****       209.5000  48.7500  10.0000 Du        
    644 ****       209.5000  48.7500  10.2500 Du        
    645 ****       209.5000  48.7500  10.5000 Du        
    646 ****       209.5000  48.7500  10.7500 Du        
    647 ****       209.5000  48.7500  11.0000 Du        
    648 ****       209.5000  48.7500  11.2500 Du        
    649 ****       209.5000  49.0000   9.7500 Du        
    650 ****       209.5000  49.0000  10.0000 Du        
    651 ****       209.5000  49.0000  10.2500 Du        
    652 ****       209.5000  49.0000  10.5000 Du        
    653 ****       209.5000  49.0000  10.7500 Du        
    654 ****       209.5000  49.0000  11.0000 Du        
    655 ****       209.5000  49.0000  11.2500 Du        
    656 ****       209.5000  49.0000  11.5000 Du        
    657 ****       209.5000  49.2500   9.7500 Du        
    658 ****       209.5000  49.2500  10.0000 Du        
    659 ****       209.5000  49.2500  10.2500 Du        
    660 ****       209.5000  49.2500  10.5000 Du        
    661 ****       209.5000  49.2500  10.7500 Du        
    662 ****       209.5000  49.2500  11.0000 Du        
    663 ****       209.5000  49.2500  11.2500 Du        
    664 ****       209.5000  49.2500  11.5000 Du        
    665 ****       209.5000  49.5000  10.0000 Du        
    666 ****       209.5000  49.5000  10.2500 Du        
    667 ****       209.5000  49.5000  10.5000 Du        
    668 ****       209.5000  49.5000  10.7500 Du        
    669 ****       209.5000  49.5000  11.0000 Du        
    670 ****       209.7500  48.0000   9.7500 Du        
    671 ****       209.7500  48.0000  10.0000 Du        
    672 ****       209.7500  48.0000  10.2500 Du        
    673 ****       209.7500  48.0000  10.5000 Du        
    674 ****       209.7500  48.0000  10.7500 Du        
    675 ****       209.7500  48.2500   9.5000 Du        
    676 ****       209.7500  48.2500   9.7500 Du        
    677 ****       209.7500  48.2500  10.0000 Du        
    678 ****       209.7500  48.2500  10.2500 Du        
    679 ****       209.7500  48.2500  10.5000 Du        
    680 ****       209.7500  48.2500  10.7500 Du        
    681 ****       209.7500  48.5000   9.5000 Du        
    682 ****       209.7500  48.5000   9.7500 Du        
    683 ****       209.7500  48.5000  10.0000 Du        
    684 ****       209.7500  48.5000  10.2500 Du        
    685 ****       209.7500  48.5000  10.5000 Du        
    686 ****       209.7500  48.5000  10.7500 Du        
    687 ****       209.7500  48.7500   9.5000 Du        
    688 ****       209.7500  48.7500   9.7500 Du        
    689 ****       209.7500  48.7500  10.0000 Du        
    690 ****       209.7500  48.7500  10.2500 Du        
    691 ****       209.7500  48.7500  10.5000 Du        
    692 ****       209.7500  48.7500  10.7500 Du        
    693 ****       209.7500  48.7500  11.0000 Du        
    694 ****       209.7500  49.0000   9.5000 Du        
    695 ****       209.7500  49.0000   9.7500 Du        
    696 ****       209.7500  49.0000  10.0000 Du        
    697 ****       209.7500  49.0000  10.2500 Du        
    698 ****       209.7500  49.0000  10.5000 Du        
    699 ****       209.7500  49.0000  10.7500 Du        
    700 ****       209.7500  49.0000  11.0000 Du        
    701 ****       209.7500  49.2500   9.5000 Du        
    702 ****       209.7500  49.2500   9.7500 Du        
    703 ****       209.7500  49.2500  10.0000 Du        
    704 ****       209.7500  49.2500  10.2500 Du        
    705 ****       209.7500  49.2500  10.5000 Du        
    706 ****       209.7500  49.2500  10.7500 Du        
    707 ****       209.7500  49.2500  11.0000 Du        
    708 ****       209.7500  49.5000   9.7500 Du        
    709 ****       209.7500  49.5000  10.0000 Du        
    710 ****       209.7500  49.5000  10.2500 Du        
    711 ****       209.7500  49.5000  10.5000 Du        
    712 ****       209.7500  49.7500  10.0000 Du        
    713 ****       209.7500  49.7500  10.2500 Du        
    714 ****       210.0000  47.7500   9.7500 Du        
    715 ****       210.0000  47.7500  10.0000 Du        
    716 ****       210.0000  48.0000   9.5000 Du        
    717 ****       210.0000  48.0000   9.7500 Du        
    718 ****       210.0000  48.0000  10.0000 Du        
    719 ****       210.0000  48.0000  10.2500 Du        
    720 ****       210.0000  48.2500   9.2500 Du        
    721 ****       210.0000  48.2500   9.5000 Du        
    722 ****       210.0000  48.2500   9.7500 Du        
    723 ****       210.0000  48.2500  10.0000 Du        
    724 ****       210.0000  48.2500  10.2500 Du        
    725 ****       210.0000  48.2500  10.5000 Du        
    726 ****       210.0000  48.5000   9.2500 Du        
    727 ****       210.0000  48.5000   9.5000 Du        
    728 ****       210.0000  48.5000   9.7500 Du        
    729 ****       210.0000  48.5000  10.0000 Du        
    730 ****       210.0000  48.5000  10.2500 Du        
    731 ****       210.0000  48.5000  10.5000 Du        
    732 ****       210.0000  48.7500   9.2500 Du        
    733 ****       210.0000  48.7500   9.5000 Du        
    734 ****       210.0000  48.7500   9.7500 Du        
    735 ****       210.0000  48.7500  10.0000 Du        
    736 ****       210.0000  48.7500  10.2500 Du        
    737 ****       210.0000  48.7500  10.5000 Du        
    738 ****       210.0000  49.0000   9.0000 Du        
    739 ****       210.0000  49.0000   9.2500 Du        
    740 ****       210.0000  49.0000   9.5000 Du        
    741 ****       210.0000  49.0000   9.7500 Du        
    742 ****       210.0000  49.0000  10.0000 Du        
    743 ****       210.0000  49.0000  10.2500 Du        
    744 ****       210.0000  49.0000  10.5000 Du        
    745 ****       210.0000  49.0000  10.7500 Du        
    746 ****       210.0000  49.2500   9.0000 Du        
    747 ****       210.0000  49.2500   9.2500 Du        
    748 ****       210.0000  49.2500   9.5000 Du        
    749 ****       210.0000  49.2500   9.7500 Du        
    750 ****       210.0000  49.2500  10.0000 Du        
    751 ****       210.0000  49.2500  10.2500 Du        
    752 ****       210.0000  49.2500  10.5000 Du        
    753 ****       210.0000  49.2500  10.7500 Du        
    754 ****       210.0000  49.5000   9.7500 Du        
    755 ****       210.0000  49.5000  10.0000 Du        
    756 ****       210.0000  49.5000  10.2500 Du        
    757 ****       210.0000  49.7500  10.0000 Du        
    758 ****       210.0000  49.7500  10.2500 Du        
    759 ****       210.2500  47.7500   9.5000 Du        
    760 ****       210.2500  47.7500   9.7500 Du        
    761 ****       210.2500  48.0000   9.0000 Du        
    762 ****       210.2500  48.0000   9.2500 Du        
    763 ****       210.2500  48.0000   9.5000 Du        
    764 ****       210.2500  48.0000   9.7500 Du        
    765 ****       210.2500  48.0000  10.0000 Du        
    766 ****       210.2500  48.2500   9.0000 Du        
    767 ****       210.2500  48.2500   9.2500 Du        
    768 ****       210.2500  48.2500   9.5000 Du        
    769 ****       210.2500  48.2500   9.7500 Du        
    770 ****       210.2500  48.2500  10.0000 Du        
    771 ****       210.2500  48.2500  10.2500 Du        
    772 ****       210.2500  48.5000   9.0000 Du        
    773 ****       210.2500  48.5000   9.2500 Du        
    774 ****       210.2500  48.5000   9.5000 Du        
    775 ****       210.2500  48.5000   9.7500 Du        
    776 ****       210.2500  48.5000  10.0000 Du        
    777 ****       210.2500  48.5000  10.2500 Du        
    778 ****       210.2500  48.7500   9.0000 Du        
    779 ****       210.2500  48.7500   9.2500 Du        
    780 ****       210.2500  48.7500   9.5000 Du        
    781 ****       210.2500  48.7500   9.7500 Du        
    782 ****       210.2500  48.7500  10.0000 Du        
    783 ****       210.2500  48.7500  10.2500 Du        
    784 ****       210.2500  49.0000   8.7500 Du        
    785 ****       210.2500  49.0000   9.0000 Du        
    786 ****       210.2500  49.0000   9.2500 Du        
    787 ****       210.2500  49.0000   9.5000 Du        
    788 ****       210.2500  49.0000   9.7500 Du        
    789 ****       210.2500  49.0000  10.0000 Du        
    790 ****       210.2500  49.0000  10.2500 Du        
    791 ****       210.2500  49.0000  10.5000 Du        
    792 ****       210.2500  49.2500   8.7500 Du        
    793 ****       210.2500  49.2500   9.0000 Du        
    794 ****       210.2500  49.2500   9.2500 Du        
    795 ****       210.2500  49.2500   9.5000 Du        
    796 ****       210.2500  49.2500   9.7500 Du        
    797 ****       210.2500  49.2500  10.0000 Du        
    798 ****       210.2500  49.2500  10.2500 Du        
    799 ****       210.2500  49.2500  10.5000 Du        
    800 ****       210.2500  49.5000   9.5000 Du        
    801 ****       210.2500  49.5000   9.7500 Du        
    802 ****       210.2500  49.5000  10.0000 Du        
    803 ****       210.2500  49.7500  10.0000 Du        
    804 ****       210.5000  48.0000   9.0000 Du        
    805 ****       210.5000  48.0000   9.2500 Du        
    806 ****       210.5000  48.0000   9.5000 Du        
    807 ****       210.5000  48.0000   9.7500 Du        
    808 ****       210.5000  48.2500   8.7500 Du        
    809 ****       210.5000  48.2500   9.0000 Du        
    810 ****       210.5000  48.2500   9.2500 Du        
    811 ****       210.5000  48.2500   9.5000 Du        
    812 ****       210.5000  48.2500   9.7500 Du        
    813 ****       210.5000  48.2500  10.0000 Du        
    814 ****       210.5000  48.5000   8.7500 Du        
    815 ****       210.5000  48.5000   9.0000 Du        
    816 ****       210.5000  48.5000   9.2500 Du        
    817 ****       210.5000  48.5000   9.5000 Du        
    818 ****       210.5000  48.5000   9.7500 Du        
    819 ****       210.5000  48.5000  10.0000 Du        
    820 ****       210.5000  48.7500   8.7500 Du        
    821 ****       210.5000  48.7500   9.0000 Du        
    822 ****       210.5000  48.7500   9.2500 Du        
    823 ****       210.5000  48.7500   9.5000 Du        
    824 ****       210.5000  48.7500   9.7500 Du        
    825 ****       210.5000  48.7500  10.0000 Du        
    826 ****       210.5000  49.0000   8.7500 Du        
    827 ****       210.5000  49.0000   9.0000 Du        
    828 ****       210.5000  49.0000   9.2500 Du        
    829 ****       210.5000  49.0000   9.5000 Du        
    830 ****       210.5000  49.0000   9.7500 Du        
    831 ****       210.5000  49.0000  10.0000 Du        
    832 ****       210.5000  49.0000  10.2500 Du        
    833 ****       210.5000  49.2500   8.7500 Du        
    834 ****       210.5000  49.2500   9.0000 Du        
    835 ****       210.5000  49.2500   9.2500 Du        
    836 ****       210.5000  49.2500   9.5000 Du        
    837 ****       210.5000  49.2500   9.7500 Du        
    838 ****       210.5000  49.2500  10.0000 Du        
    839 ****       210.5000  49.2500  10.2500 Du        
    840 ****       210.5000  49.5000   9.5000 Du        
    841 ****       210.5000  49.5000   9.7500 Du        
    842 ****       210.5000  49.5000  10.0000 Du        
    843 ****       210.7500  48.2500   9.2500 Du        
    844 ****       210.7500  48.5000   8.7500 Du        
    845 ****       210.7500  48.5000   9.0000 Du        
    846 ****       210.7500  48.5000   9.2500 Du        
    847 ****       210.7500  48.5000   9.5000 Du        
    848 ****       210.7500  48.7500   8.5000 Du        
    849 ****       210.7500  48.7500   8.7500 Du        
    850 ****       210.7500  48.7500   9.0000 Du        
    851 ****       210.7500  48.7500   9.2500 Du        
    852 ****       210.7500  48.7500   9.5000 Du        
    853 ****       210.7500  48.7500   9.7500 Du        
    854 ****       210.7500  49.0000   8.5000 Du        
    855 ****       210.7500  49.0000   8.7500 Du        
    856 ****       210.7500  49.0000   9.0000 Du        
    857 ****       210.7500  49.0000   9.2500 Du        
    858 ****       210.7500  49.0000   9.5000 Du        
    859 ****       210.7500  49.0000   9.7500 Du        
    860 ****       210.7500  49.0000  10.0000 Du        
    861 ****       210.7500  49.2500   8.5000 Du        
    862 ****       210.7500  49.2500   8.7500 Du        
    863 ****       210.7500  49.2500   9.0000 Du        
    864 ****       210.7500  49.2500   9.2500 Du        
    865 ****       210.7500  49.2500   9.5000 Du        
    866 ****       210.7500  49.2500   9.7500 Du        
    867 ****       210.7500  49.2500  10.0000 Du        
    868 ****       210.7500  49.5000   9.2500 Du        
    869 ****       210.7500  49.5000   9.5000 Du        
    870 ****       210.7500  49.5000   9.7500 Du        
    871 ****       211.0000  48.7500   8.5000 Du        
    872 ****       211.0000  48.7500   8.7500 Du        
    873 ****       211.0000  48.7500   9.0000 Du        
    874 ****       211.0000  48.7500   9.2500 Du        
    875 ****       211.0000  49.0000   8.2500 Du        
    876 ****       211.0000  49.0000   8.5000 Du        
    877 ****       211.0000  49.0000   8.7500 Du        
    878 ****       211.0000  49.0000   9.0000 Du        
    879 ****       211.0000  49.0000   9.2500 Du        
    880 ****       211.0000  49.0000   9.5000 Du        
    881 ****       211.0000  49.0000   9.7500 Du        
    882 ****       211.0000  49.2500   8.5000 Du        
    883 ****       211.0000  49.2500   8.7500 Du        
    884 ****       211.0000  49.2500   9.0000 Du        
    885 ****       211.0000  49.2500   9.2500 Du        
    886 ****       211.0000  49.2500   9.5000 Du        
    887 ****       211.0000  49.2500   9.7500 Du        
    888 ****       211.0000  49.5000   9.2500 Du        
    889 ****       211.0000  49.5000   9.5000 Du        
    890 ****       211.2500  49.0000   8.2500 Du        
    891 ****       211.2500  49.0000   8.5000 Du        
    892 ****       211.2500  49.0000   8.7500 Du        
    893 ****       211.2500  49.0000   9.0000 Du        
    894 ****       211.2500  49.2500   8.5000 Du        
    895 ****       211.2500  49.2500   8.7500 Du        
    896 ****       211.2500  49.2500   9.0000 Du        
    897 ****       211.2500  49.2500   9.2500 Du        
    898 ****       211.2500  49.2500   9.5000 Du        
    899 ****       215.2500  51.0000  12.2500 Du        
    900 ****       215.5000  50.7500  12.0000 Du        
    901 ****       215.5000  50.7500  12.2500 Du        
    902 ****       215.5000  51.0000  11.7500 Du        
    903 ****       215.5000  51.0000  12.0000 Du        
    904 ****       215.5000  51.0000  12.2500 Du        
    905 ****       215.7500  50.2500  12.7500 Du        
    906 ****       215.7500  50.2500  13.0000 Du        
    907 ****       215.7500  50.5000  12.2500 Du        
    908 ****       215.7500  50.7500  11.7500 Du        
    909 ****       215.7500  50.7500  12.0000 Du        
    910 ****       215.7500  50.7500  12.2500 Du        
    911 ****       215.7500  50.7500  12.5000 Du        
    912 ****       215.7500  51.0000  11.7500 Du        
    913 ****       215.7500  51.0000  12.0000 Du        
    914 ****       215.7500  51.0000  12.2500 Du        
    915 ****       216.0000  50.0000  12.7500 Du        
    916 ****       216.0000  50.0000  13.0000 Du        
    917 ****       216.0000  50.2500  12.0000 Du        
    918 ****       216.0000  50.2500  12.2500 Du        
    919 ****       216.0000  50.2500  12.5000 Du        
    920 ****       216.0000  50.2500  12.7500 Du        
    921 ****       216.0000  50.2500  13.0000 Du        
    922 ****       216.0000  50.5000  11.7500 Du        
    923 ****       216.0000  50.5000  12.0000 Du        
    924 ****       216.0000  50.5000  12.2500 Du        
    925 ****       216.0000  50.5000  12.5000 Du        
    926 ****       216.0000  50.7500  11.7500 Du        
    927 ****       216.0000  50.7500  12.0000 Du        
    928 ****       216.0000  50.7500  12.2500 Du        
    929 ****       216.0000  50.7500  12.5000 Du        
    930 ****       216.0000  51.0000  11.7500 Du        
    931 ****       216.0000  51.0000  12.0000 Du        
    932 ****       216.0000  51.0000  12.2500 Du        
    933 ****       216.2500  50.0000  12.0000 Du        
    934 ****       216.2500  50.0000  12.2500 Du        
    935 ****       216.2500  50.0000  12.5000 Du        
    936 ****       216.2500  50.0000  12.7500 Du        
    937 ****       216.2500  50.2500  11.5000 Du        
    938 ****       216.2500  50.2500  11.7500 Du        
    939 ****       216.2500  50.2500  12.0000 Du        
    940 ****       216.2500  50.2500  12.2500 Du        
    941 ****       216.2500  50.2500  12.5000 Du        
    942 ****       216.2500  50.2500  12.7500 Du        
    943 ****       216.2500  50.5000  11.5000 Du        
    944 ****       216.2500  50.5000  11.7500 Du        
    945 ****       216.2500  50.5000  12.0000 Du        
    946 ****       216.2500  50.5000  12.2500 Du        
    947 ****       216.2500  50.7500  11.7500 Du        
    948 ****       216.2500  50.7500  12.0000 Du        
    949 ****       216.2500  50.7500  12.2500 Du        
    950 ****       216.2500  51.0000  11.7500 Du        
    951 ****       216.5000  49.7500  12.2500 Du        
    952 ****       216.5000  49.7500  12.5000 Du        
    953 ****       216.5000  49.7500  12.7500 Du        
    954 ****       216.5000  50.0000  11.5000 Du        
    955 ****       216.5000  50.0000  11.7500 Du        
    956 ****       216.5000  50.0000  12.0000 Du        
    957 ****       216.5000  50.0000  12.2500 Du        
    958 ****       216.5000  50.0000  12.5000 Du        
    959 ****       216.5000  50.0000  12.7500 Du        
    960 ****       216.5000  50.2500  11.0000 Du        
    961 ****       216.5000  50.2500  11.2500 Du        
    962 ****       216.5000  50.2500  11.5000 Du        
    963 ****       216.5000  50.2500  11.7500 Du        
    964 ****       216.5000  50.2500  12.0000 Du        
    965 ****       216.5000  50.2500  12.2500 Du        
    966 ****       216.5000  50.2500  12.5000 Du        
    967 ****       216.5000  50.5000  11.5000 Du        
    968 ****       216.5000  50.5000  11.7500 Du        
    969 ****       216.5000  50.5000  12.0000 Du        
    970 ****       216.5000  50.5000  12.2500 Du        
    971 ****       216.5000  50.7500  11.5000 Du        
    972 ****       216.5000  50.7500  11.7500 Du        
    973 ****       216.5000  50.7500  12.0000 Du        
    974 ****       216.7500  49.2500  12.7500 Du        
    975 ****       216.7500  49.5000  12.5000 Du        
    976 ****       216.7500  49.5000  12.7500 Du        
    977 ****       216.7500  49.7500  11.7500 Du        
    978 ****       216.7500  49.7500  12.0000 Du        
    979 ****       216.7500  49.7500  12.2500 Du        
    980 ****       216.7500  49.7500  12.5000 Du        
    981 ****       216.7500  50.0000  10.7500 Du        
    982 ****       216.7500  50.0000  11.0000 Du        
    983 ****       216.7500  50.0000  11.2500 Du        
    984 ****       216.7500  50.0000  11.5000 Du        
    985 ****       216.7500  50.0000  11.7500 Du        
    986 ****       216.7500  50.0000  12.0000 Du        
    987 ****       216.7500  50.0000  12.2500 Du        
    988 ****       216.7500  50.0000  12.5000 Du        
    989 ****       216.7500  50.2500  10.7500 Du        
    990 ****       216.7500  50.2500  11.0000 Du        
    991 ****       216.7500  50.2500  11.2500 Du        
    992 ****       216.7500  50.2500  11.5000 Du        
    993 ****       216.7500  50.2500  11.7500 Du        
    994 ****       216.7500  50.2500  12.0000 Du        
    995 ****       216.7500  50.2500  12.2500 Du        
    996 ****       216.7500  50.5000  11.7500 Du        
    997 ****       216.7500  50.5000  12.0000 Du        
    998 ****       216.7500  50.7500  11.7500 Du        
    999 ****       217.0000  49.5000  12.5000 Du        
   1000 ****       217.0000  49.7500  11.7500 Du        
   1001 ****       217.0000  49.7500  12.0000 Du        
   1002 ****       217.0000  49.7500  12.2500 Du        
   1003 ****       217.0000  50.0000  11.0000 Du        
   1004 ****       217.0000  50.0000  11.2500 Du        
   1005 ****       217.0000  50.0000  11.5000 Du        
   1006 ****       217.0000  50.0000  11.7500 Du        
   1007 ****       217.0000  50.0000  12.0000 Du        
   1008 ****       217.0000  50.0000  12.2500 Du        
   1009 ****       217.0000  50.2500  10.7500 Du        
   1010 ****       217.0000  50.2500  11.0000 Du        
   1011 ****       217.0000  50.2500  11.2500 Du        
   1012 ****       217.0000  50.2500  11.5000 Du        
   1013 ****       217.0000  50.2500  11.7500 Du        
   1014 ****       217.0000  50.2500  12.0000 Du        
   1015 ****       217.2500  50.0000  11.7500 Du        
   1016 ****       217.2500  50.0000  12.0000 Du        
   1017 ****       217.2500  50.2500  11.2500 Du        
   1018 ****       217.2500  50.2500  11.5000 Du        
   1019 ****       217.2500  50.2500  11.7500 Du        
