#       Name:                CT1002167954
#       Creating user name   hitesit
#       Creation time:       Sun Apr 16 23:04:39 2023


#       File generated by GOLD software.
#

@<TRIPOS>MOLECULE
CT1002167954|ligand_prepared|mol2|1|dock4
    29    30     1
SMALL
NO_CHARGES


@<TRIPOS>ATOM
      1 C1         207.7845  49.1814  12.4025 C.3            1 RES1               0.0000
      2 C2         208.8571  48.8625  11.3411 C.ar           1 RES1               0.0000
      3 C3         206.6109  49.8040  11.6520 C.2            1 RES1               0.0000
      4 C4         207.4547  47.8593  13.0864 C.2            1 RES1               0.0000
      5 C5         208.2565  50.1763  13.4883 C.3            1 RES1               0.0000
      6 C6         209.7403  49.8470  10.9080 C.ar           1 RES1               0.0000
      7 C7         208.9772  47.5900  10.7887 C.ar           1 RES1               0.0000
      8 N8         205.4937  49.0407  11.4813 N.am           1 RES1               0.0000
      9 O9         206.6793  50.9333  11.1826 O.2            1 RES1               0.0000
     10 N10        206.1939  47.3483  12.9220 N.am           1 RES1               0.0000
     11 O11        208.2803  47.2470  13.7525 O.2            1 RES1               0.0000
     12 C12        207.3185  50.2723  14.6813 C.3            1 RES1               0.0000
     13 C13        210.7103  49.5688   9.9594 C.ar           1 RES1               0.0000
     14 C14        209.9479  47.3141   9.8400 C.ar           1 RES1               0.0000
     15 C15        205.2080  47.8637  12.1253 C.2            1 RES1               0.0000
     16 C16        210.8151  48.3023   9.4251 C.ar           1 RES1               0.0000
     17 O17        204.1176  47.3171  11.9858 O.2            1 RES1               0.0000
     18 H18        209.2479  49.8682  13.8426 H              1 RES1               0.0000
     19 H19        208.3560  51.1710  13.0366 H              1 RES1               0.0000
     20 H20        209.6714  50.8501  11.3154 H              1 RES1               0.0000
     21 H21        208.3051  46.7973  11.0994 H              1 RES1               0.0000
     22 H22        204.8071  49.3760  10.8131 H              1 RES1               0.0000
     23 H23        205.9694  46.5058  13.4417 H              1 RES1               0.0000
     24 H24        207.6963  50.9835  15.4128 H              1 RES1               0.0000
     25 H25        206.3294  50.6007  14.3689 H              1 RES1               0.0000
     26 H26        207.2160  49.3056  15.1701 H              1 RES1               0.0000
     27 H27        211.3895  50.3504   9.6352 H              1 RES1               0.0000
     28 H28        210.0263  46.3160   9.4217 H              1 RES1               0.0000
     29 H29        211.5753  48.0845   8.6822 H              1 RES1               0.0000
@<TRIPOS>BOND
    1    1    2 1     
    2    1    3 1     
    3    1    4 1     
    4    1    5 1     
    5    2    6 ar    
    6    2    7 ar    
    7    3    8 1     
    8    3    9 2     
    9    4   10 1     
   10    4   11 2     
   11    5   12 1     
   12    5   18 1     
   13    5   19 1     
   14    6   13 ar    
   15    6   20 1     
   16    7   14 ar    
   17    7   21 1     
   18    8   15 1     
   19    8   22 1     
   20   10   15 1     
   21   10   23 1     
   22   12   24 1     
   23   12   25 1     
   24   12   26 1     
   25   13   16 ar    
   26   13   27 1     
   27   14   16 ar    
   28   14   28 1     
   29   15   17 2     
   30   16   29 1     
@<TRIPOS>SUBSTRUCTURE
      1 RES1           1
@<TRIPOS>SET
DONOR_HYDROGENS      STATIC     ATOMS    <user>   **** ""
2 22 23
ATOM$RED        STATIC     ATOMS    COLORGROUP SYSTEM
2 22 23
@<TRIPOS>COMMENT
> <Gold.Version>
2022.3.0

> <Gold.Id.Protein>
unknown|4d1n_clean|pdb

> <Gold.Protein.RotatedTorsions>
[ 8321 8305 8306 8307 ] final  -88.48 input   94.69 | X-H torsion
[ 8357 8347 8348 8349 ] final -153.73 input   68.57 | X-H torsion
[ 8421 8399 8400 8401 ] final  154.39 input  113.07 | X-H torsion
[ 8505 8489 8490 8491 ] final  -81.32 input   89.94 | X-H torsion
[ 8545 8533 8534 8535 ] final  109.37 input  110.24 | X-H torsion
[ 9073 9052 9051 9049 ] final   42.99 input   60.00 | X-H torsion
[ 8253 8231 8232 8233 ] final  -50.50 input   84.65 | X-H torsion
[ 10325 10309 10310 10311 ] final   93.80 input   62.15 | X-H torsion
[ 27198 8308 8307 8306 ] final  147.60 input   -0.00 | X-H torsion
[ 27205 8350 8349 8348 ] final   -2.89 input    0.00 | X-H torsion
[ 27208 8402 8401 8400 ] final -127.38 input    0.00 | X-H torsion
[ 27211 8492 8491 8490 ] final  171.41 input   -0.00 | X-H torsion
[ 27220 8234 8233 8232 ] final   65.71 input    0.00 | X-H torsion
[ 27222 8162 8161 8160 ] final  -15.61 input    0.00 | X-H torsion
[ 27225 10312 10311 10310 ] final  -32.38 input    0.00 | X-H torsion

> <Gold.Protein.ActiveResidues>
 ASP403  LEU406  ILE407  VAL431  PHE432  ASP433  ALA434  ARG435  ASP436  CYS437 
 TYR446  ASN449  THR465  ILE466 

> <Gold.Protein.RotatedAtoms>
  218.7121   45.7819   11.4205 H   0  0  0  0  0  0  0  0  0  0  0  0  # atno 8253 bound_to 8231
  216.1722   45.4812   10.2924 H   0  0  0  0  0  0  0  0  0  0  0  0  # atno 8321 bound_to 8305
  213.6297   45.0333    9.7781 H   0  0  0  0  0  0  0  0  0  0  0  0  # atno 8357 bound_to 8347
  211.0843   44.4122   11.3710 H   0  0  0  0  0  0  0  0  0  0  0  0  # atno 8421 bound_to 8399
  207.7277   44.4549   10.3110 H   0  0  0  0  0  0  0  0  0  0  0  0  # atno 8505 bound_to 8489
  207.9912   43.2146    8.3869 H   0  0  0  0  0  0  0  0  0  0  0  0  # atno 8545 bound_to 8533
  211.6164   46.6258    5.7692 H   0  0  0  0  0  0  0  0  0  0  0  0  # atno 9073 bound_to 9052
  215.8983   42.3122   11.3666 H   0  0  0  0  0  0  0  0  0  0  0  0  # atno 10325 bound_to 10309
  215.8326   47.1627    9.9456 LP  0  0  0  0  0  0  0  0  0  0  0  0  # atno 27197 bound_to 8305
  212.6033   46.1384    8.2572 LP  0  0  0  0  0  0  0  0  0  0  0  0  # atno 27198 bound_to 8308
  212.7552   47.4453    9.3836 LP  0  0  0  0  0  0  0  0  0  0  0  0  # atno 27199 bound_to 8308
  212.7686   44.2396   11.0764 LP  0  0  0  0  0  0  0  0  0  0  0  0  # atno 27204 bound_to 8347
  210.2151   42.1454    8.4696 LP  0  0  0  0  0  0  0  0  0  0  0  0  # atno 27205 bound_to 8350
  209.0393   42.4107    9.7135 LP  0  0  0  0  0  0  0  0  0  0  0  0  # atno 27206 bound_to 8350
  210.3004   44.2454    9.8173 LP  0  0  0  0  0  0  0  0  0  0  0  0  # atno 27207 bound_to 8399
  205.9761   43.5595   10.4616 LP  0  0  0  0  0  0  0  0  0  0  0  0  # atno 27208 bound_to 8402
  206.3079   44.2830   11.9999 LP  0  0  0  0  0  0  0  0  0  0  0  0  # atno 27209 bound_to 8402
  208.7894   45.4628    9.3551 LP  0  0  0  0  0  0  0  0  0  0  0  0  # atno 27210 bound_to 8489
  205.4944   43.7985    6.0690 LP  0  0  0  0  0  0  0  0  0  0  0  0  # atno 27211 bound_to 8492
  204.9122   45.1897    6.9208 LP  0  0  0  0  0  0  0  0  0  0  0  0  # atno 27212 bound_to 8492
  206.6870   44.0754    7.6009 LP  0  0  0  0  0  0  0  0  0  0  0  0  # atno 27217 bound_to 8533
  211.1212   45.8385    7.1045 LP  0  0  0  0  0  0  0  0  0  0  0  0  # atno 27218 bound_to 9052
  210.2104   45.8067    5.7495 LP  0  0  0  0  0  0  0  0  0  0  0  0  # atno 27219 bound_to 9052
  216.6720   43.7172   11.3194 LP  0  0  0  0  0  0  0  0  0  0  0  0  # atno 27220 bound_to 8234
  215.4141   43.5828   10.1364 LP  0  0  0  0  0  0  0  0  0  0  0  0  # atno 27221 bound_to 8234
  219.0532   48.2369   11.7709 LP  0  0  0  0  0  0  0  0  0  0  0  0  # atno 27222 bound_to 8162
  218.3436   47.8056   10.2509 LP  0  0  0  0  0  0  0  0  0  0  0  0  # atno 27223 bound_to 8162
  219.5799   44.8295   10.2446 LP  0  0  0  0  0  0  0  0  0  0  0  0  # atno 27224 bound_to 8231
  212.9448   42.9340   12.3042 LP  0  0  0  0  0  0  0  0  0  0  0  0  # atno 27225 bound_to 10312
  212.0112   42.2338   11.0243 LP  0  0  0  0  0  0  0  0  0  0  0  0  # atno 27226 bound_to 10312

> <Gold.Score>
     Fitness  S(hb_ext) S(vdw_ext)  S(hb_int)    S(int)      intcor
     27.45       0.00      20.55       0.00      -0.80      -0.76

> <Gold.Goldscore.Fitness>
27.4520

> <Gold.Goldscore.Internal.Vdw>
-0.9725

> <Gold.Goldscore.Internal.Torsion>
-0.5835

> <Gold.Goldscore.External.Vdw>
20.5459

> <Gold.Goldscore.Internal.HBond>
0.0000

> <Gold.Goldscore.External.HBond>
0.0000

> <Gold.Goldscore.Internal.Correction>
-0.7573

> <Gold.Goldscore.Internal.Vdw.Weighted>
-0.9725

> <Gold.Goldscore.Internal.Torsion.Weighted>
-0.5835

> <Gold.Goldscore.External.Vdw.Weighted>
28.2506

> <Gold.Goldscore.Internal.HBond.Weighted>
0.0000

> <Gold.Goldscore.External.HBond.Weighted>
0.0000

> <Gold.Goldscore.Internal.Correction.Weighted>
-0.7573

> <Gold.Rescore>
     Score     S(PLP)   S(hbond)     S(cho)   S(metal)  DE(clash)   DE(tors)     intcor
     22.62     -24.30       0.00       0.00       0.00       0.49       0.60       ----

> <Gold.PLP.Fitness>
22.6154

> <Gold.PLP.PLP>
-24.2999

> <Gold.PLP.part.hbond>
-1.0728

> <Gold.PLP.part.metal>
0.0000

> <Gold.PLP.part.buried>
-3.6720

> <Gold.PLP.part.nonpolar>
-20.0972

> <Gold.PLP.part.repulsive>
0.2007

> <Gold.PLP.ligand.clash>
0.4861

> <Gold.PLP.ligand.torsion>
0.5992

> <Gold.PLP.Chemscore.Hbond>
0.0000

> <Gold.PLP.Chemscore.CHOScore>
0.0000

> <Gold.PLP.Chemscore.Metal>
0.0000

> <Gold.PLP.Chemscore.Internal.Correction>
   9.000000E+99

