#       Name:                CT1002167954
#       Creating user name   hitesit
#       Creation time:       Sun Apr 16 23:04:41 2023


#       File generated by GOLD software.
#

@<TRIPOS>MOLECULE
CT1002167954|ligand_prepared|mol2|1|dock8
    29    30     1
SMALL
NO_CHARGES


@<TRIPOS>ATOM
      1 C1         207.8425  49.0251  12.4940 C.3            1 RES1               0.0000
      2 C2         208.8489  48.8124  11.3447 C.ar           1 RES1               0.0000
      3 C3         208.2780  50.2976  13.2147 C.2            1 RES1               0.0000
      4 C4         206.4664  49.1181  11.8443 C.2            1 RES1               0.0000
      5 C5         207.8100  47.8671  13.5184 C.3            1 RES1               0.0000
      6 C6         209.1395  47.5313  10.8854 C.ar           1 RES1               0.0000
      7 C7         209.4913  49.8857  10.7333 C.ar           1 RES1               0.0000
      8 N8         207.5278  51.4204  13.0233 N.am           1 RES1               0.0000
      9 O9         209.2867  50.3255  13.9089 O.2            1 RES1               0.0000
     10 N10        205.7990  50.3124  11.9219 N.am           1 RES1               0.0000
     11 O11        205.9611  48.1728  11.2515 O.2            1 RES1               0.0000
     12 C12        207.0643  48.2031  14.8002 C.3            1 RES1               0.0000
     13 C13        210.0376  47.3305   9.8503 C.ar           1 RES1               0.0000
     14 C14        210.3893  49.6827   9.6985 C.ar           1 RES1               0.0000
     15 C15        206.2805  51.4768  12.4553 C.2            1 RES1               0.0000
     16 C16        210.6627  48.4059   9.2559 C.ar           1 RES1               0.0000
     17 O17        205.6417  52.5250  12.4392 O.2            1 RES1               0.0000
     18 H18        207.3346  46.9958  13.0513 H              1 RES1               0.0000
     19 H19        208.8410  47.5908  13.7718 H              1 RES1               0.0000
     20 H20        208.6592  46.6727  11.3426 H              1 RES1               0.0000
     21 H21        209.2925  50.8989  11.0657 H              1 RES1               0.0000
     22 H22        207.9317  52.2993  13.3309 H              1 RES1               0.0000
     23 H23        204.8558  50.3355  11.5474 H              1 RES1               0.0000
     24 H24        207.0716  47.3568  15.4839 H              1 RES1               0.0000
     25 H25        207.5256  49.0498  15.3042 H              1 RES1               0.0000
     26 H26        206.0281  48.4584  14.5880 H              1 RES1               0.0000
     27 H27        210.2504  46.3236   9.5066 H              1 RES1               0.0000
     28 H28        210.8795  50.5320   9.2340 H              1 RES1               0.0000
     29 H29        211.3660  48.2484   8.4448 H              1 RES1               0.0000
@<TRIPOS>BOND
    1    1    2 1     
    2    1    3 1     
    3    1    4 1     
    4    1    5 1     
    5    2    6 ar    
    6    2    7 ar    
    7    3    8 1     
    8    3    9 2     
    9    4   10 1     
   10    4   11 2     
   11    5   12 1     
   12    5   18 1     
   13    5   19 1     
   14    6   13 ar    
   15    6   20 1     
   16    7   14 ar    
   17    7   21 1     
   18    8   15 1     
   19    8   22 1     
   20   10   15 1     
   21   10   23 1     
   22   12   24 1     
   23   12   25 1     
   24   12   26 1     
   25   13   16 ar    
   26   13   27 1     
   27   14   16 ar    
   28   14   28 1     
   29   15   17 2     
   30   16   29 1     
@<TRIPOS>SUBSTRUCTURE
      1 RES1           1
@<TRIPOS>SET
DONOR_HYDROGENS      STATIC     ATOMS    <user>   **** ""
2 22 23
ATOM$RED        STATIC     ATOMS    COLORGROUP SYSTEM
2 22 23
@<TRIPOS>COMMENT
> <Gold.Version>
2022.3.0

> <Gold.Id.Protein>
unknown|4d1n_clean|pdb

> <Gold.Protein.RotatedTorsions>
[ 8321 8305 8306 8307 ] final   -3.77 input   94.69 | X-H torsion
[ 8357 8347 8348 8349 ] final  -82.61 input   68.57 | X-H torsion
[ 8421 8399 8400 8401 ] final -129.03 input  113.07 | X-H torsion
[ 8505 8489 8490 8491 ] final -100.43 input   89.94 | X-H torsion
[ 8545 8533 8534 8535 ] final  126.43 input  110.24 | X-H torsion
[ 9073 9052 9051 9049 ] final  -74.33 input   60.00 | X-H torsion
[ 8253 8231 8232 8233 ] final   17.05 input   84.65 | X-H torsion
[ 10325 10309 10310 10311 ] final  -77.45 input   62.15 | X-H torsion
[ 27198 8308 8307 8306 ] final  141.34 input   -0.00 | X-H torsion
[ 27205 8350 8349 8348 ] final -121.02 input    0.00 | X-H torsion
[ 27208 8402 8401 8400 ] final  -62.25 input    0.00 | X-H torsion
[ 27211 8492 8491 8490 ] final -131.93 input   -0.00 | X-H torsion
[ 27220 8234 8233 8232 ] final  -90.26 input    0.00 | X-H torsion
[ 27222 8162 8161 8160 ] final   -6.09 input    0.00 | X-H torsion
[ 27225 10312 10311 10310 ] final  132.91 input    0.00 | X-H torsion

> <Gold.Protein.ActiveResidues>
 ASP403  LEU406  ILE407  VAL431  PHE432  ASP433  ALA434  ARG435  ASP436  CYS437 
 TYR446  ASN449  THR465  ILE466 

> <Gold.Protein.RotatedAtoms>
  218.6023   44.8176   11.3154 H   0  0  0  0  0  0  0  0  0  0  0  0  # atno 8253 bound_to 8231
  215.6217   46.0209    9.3752 H   0  0  0  0  0  0  0  0  0  0  0  0  # atno 8321 bound_to 8305
  212.8283   45.4254   10.2929 H   0  0  0  0  0  0  0  0  0  0  0  0  # atno 8357 bound_to 8347
  210.9316   43.4998   10.7810 H   0  0  0  0  0  0  0  0  0  0  0  0  # atno 8421 bound_to 8399
  207.6965   44.7093   10.4553 H   0  0  0  0  0  0  0  0  0  0  0  0  # atno 8505 bound_to 8489
  208.1344   43.3563    8.2175 H   0  0  0  0  0  0  0  0  0  0  0  0  # atno 8545 bound_to 8533
  211.1592   45.8601    7.0970 H   0  0  0  0  0  0  0  0  0  0  0  0  # atno 9073 bound_to 9052
  215.8019   40.6787   10.6798 H   0  0  0  0  0  0  0  0  0  0  0  0  # atno 10325 bound_to 10309
  216.3654   46.6403   10.8334 LP  0  0  0  0  0  0  0  0  0  0  0  0  # atno 27197 bound_to 8305
  212.6921   46.1577    8.2307 LP  0  0  0  0  0  0  0  0  0  0  0  0  # atno 27198 bound_to 8308
  212.6663   47.4260    9.4100 LP  0  0  0  0  0  0  0  0  0  0  0  0  # atno 27199 bound_to 8308
  213.5492   43.8577   10.5749 LP  0  0  0  0  0  0  0  0  0  0  0  0  # atno 27204 bound_to 8347
  208.9942   42.8494    8.9400 LP  0  0  0  0  0  0  0  0  0  0  0  0  # atno 27205 bound_to 8350
  210.2601   41.7067    9.2431 LP  0  0  0  0  0  0  0  0  0  0  0  0  # atno 27206 bound_to 8350
  210.4493   45.1346   10.3922 LP  0  0  0  0  0  0  0  0  0  0  0  0  # atno 27207 bound_to 8399
  206.3727   43.0894   11.1622 LP  0  0  0  0  0  0  0  0  0  0  0  0  # atno 27208 bound_to 8402
  205.9114   44.7532   11.2993 LP  0  0  0  0  0  0  0  0  0  0  0  0  # atno 27209 bound_to 8402
  208.8198   45.2151    9.2146 LP  0  0  0  0  0  0  0  0  0  0  0  0  # atno 27210 bound_to 8489
  204.9505   43.6856    6.6749 LP  0  0  0  0  0  0  0  0  0  0  0  0  # atno 27211 bound_to 8492
  205.4561   45.3026    6.3148 LP  0  0  0  0  0  0  0  0  0  0  0  0  # atno 27212 bound_to 8492
  206.5478   43.9377    7.7655 LP  0  0  0  0  0  0  0  0  0  0  0  0  # atno 27217 bound_to 8533
  210.1978   45.7856    5.7861 LP  0  0  0  0  0  0  0  0  0  0  0  0  # atno 27218 bound_to 9052
  211.5941   46.6305    5.7312 LP  0  0  0  0  0  0  0  0  0  0  0  0  # atno 27219 bound_to 9052
  215.7007   43.4601    9.9554 LP  0  0  0  0  0  0  0  0  0  0  0  0  # atno 27220 bound_to 8234
  216.3854   43.8399   11.5004 LP  0  0  0  0  0  0  0  0  0  0  0  0  # atno 27221 bound_to 8234
  219.1711   48.2659   11.6941 LP  0  0  0  0  0  0  0  0  0  0  0  0  # atno 27222 bound_to 8162
  218.2257   47.7766   10.3277 LP  0  0  0  0  0  0  0  0  0  0  0  0  # atno 27223 bound_to 8162
  219.6883   45.7811   10.3483 LP  0  0  0  0  0  0  0  0  0  0  0  0  # atno 27224 bound_to 8231
  212.1854   42.2954   10.9019 LP  0  0  0  0  0  0  0  0  0  0  0  0  # atno 27225 bound_to 10312
  212.7705   42.8724   12.4266 LP  0  0  0  0  0  0  0  0  0  0  0  0  # atno 27226 bound_to 10312

> <Gold.Score>
     Fitness  S(hb_ext) S(vdw_ext)  S(hb_int)    S(int)      intcor
     27.62       0.00      20.65       0.00      -0.78      -0.76

> <Gold.Goldscore.Fitness>
27.6161

> <Gold.Goldscore.Internal.Vdw>
-0.9008

> <Gold.Goldscore.Internal.Torsion>
-0.6353

> <Gold.Goldscore.External.Vdw>
20.6508

> <Gold.Goldscore.Internal.HBond>
0.0000

> <Gold.Goldscore.External.HBond>
0.0000

> <Gold.Goldscore.Internal.Correction>
-0.7573

> <Gold.Goldscore.Internal.Vdw.Weighted>
-0.9008

> <Gold.Goldscore.Internal.Torsion.Weighted>
-0.6353

> <Gold.Goldscore.External.Vdw.Weighted>
28.3948

> <Gold.Goldscore.Internal.HBond.Weighted>
0.0000

> <Gold.Goldscore.External.HBond.Weighted>
0.0000

> <Gold.Goldscore.Internal.Correction.Weighted>
-0.7573

> <Gold.Rescore>
     Score     S(PLP)   S(hbond)     S(cho)   S(metal)  DE(clash)   DE(tors)     intcor
     26.66     -26.73       0.00       0.00       0.00       0.00       0.04       ----

> <Gold.PLP.Fitness>
26.6558

> <Gold.PLP.PLP>
-26.7306

> <Gold.PLP.part.hbond>
-1.0000

> <Gold.PLP.part.metal>
0.0000

> <Gold.PLP.part.buried>
-5.1122

> <Gold.PLP.part.nonpolar>
-21.3883

> <Gold.PLP.part.repulsive>
0.2049

> <Gold.PLP.ligand.clash>
0.0000

> <Gold.PLP.ligand.torsion>
0.0374

> <Gold.PLP.Chemscore.Hbond>
0.0000

> <Gold.PLP.Chemscore.CHOScore>
0.0000

> <Gold.PLP.Chemscore.Metal>
0.0000

> <Gold.PLP.Chemscore.Internal.Correction>
   9.000000E+99

