#       Name:                CT1002167954
#       Creating user name   hitesit
#       Creation time:       Sun Apr 16 23:04:42 2023


#       File generated by GOLD software.
#

@<TRIPOS>MOLECULE
CT1002167954|ligand_prepared|mol2|1|dock10
    29    30     1
SMALL
NO_CHARGES


@<TRIPOS>ATOM
      1 C1         210.0776  49.5485  10.4324 C.3            1 RES1               0.0000
      2 C2         209.3759  49.3336  11.7889 C.ar           1 RES1               0.0000
      3 C3         209.1464  50.4275   9.6028 C.2            1 RES1               0.0000
      4 C4         211.4243  50.1910  10.7458 C.2            1 RES1               0.0000
      5 C5         210.3427  48.2400   9.6519 C.3            1 RES1               0.0000
      6 C6         208.4955  48.2713  11.9709 C.ar           1 RES1               0.0000
      7 C7         209.6005  50.1862  12.8665 C.ar           1 RES1               0.0000
      8 N8         209.5023  51.7317   9.4231 N.am           1 RES1               0.0000
      9 O9         208.0960  49.9932   9.1464 O.2            1 RES1               0.0000
     10 N10        211.6405  51.4729  10.3126 N.am           1 RES1               0.0000
     11 O11        212.2940  49.6047  11.3784 O.2            1 RES1               0.0000
     12 C12        211.2639  48.4159   8.4550 C.3            1 RES1               0.0000
     13 C13        207.8647  48.0669  13.1869 C.ar           1 RES1               0.0000
     14 C14        208.9685  49.9802  14.0817 C.ar           1 RES1               0.0000
     15 C15        210.7291  52.2833   9.6922 C.2            1 RES1               0.0000
     16 C16        208.1011  48.9208  14.2431 C.ar           1 RES1               0.0000
     17 O17        210.9805  53.4441   9.3815 O.2            1 RES1               0.0000
     18 H18        210.7872  47.5054  10.3347 H              1 RES1               0.0000
     19 H19        209.3840  47.8365   9.3032 H              1 RES1               0.0000
     20 H20        208.2952  47.5903  11.1504 H              1 RES1               0.0000
     21 H21        210.2780  51.0269  12.7621 H              1 RES1               0.0000
     22 H22        208.7905  52.3545   9.0547 H              1 RES1               0.0000
     23 H23        212.5666  51.8588  10.4667 H              1 RES1               0.0000
     24 H24        211.4165  47.4681   7.9431 H              1 RES1               0.0000
     25 H25        210.8407  49.1213   7.7429 H              1 RES1               0.0000
     26 H26        212.2356  48.7922   8.7682 H              1 RES1               0.0000
     27 H27        207.1819  47.2325  13.3085 H              1 RES1               0.0000
     28 H28        209.1569  50.6551  14.9100 H              1 RES1               0.0000
     29 H29        207.6071  48.7603  15.1957 H              1 RES1               0.0000
@<TRIPOS>BOND
    1    1    2 1     
    2    1    3 1     
    3    1    4 1     
    4    1    5 1     
    5    2    6 ar    
    6    2    7 ar    
    7    3    8 1     
    8    3    9 2     
    9    4   10 1     
   10    4   11 2     
   11    5   12 1     
   12    5   18 1     
   13    5   19 1     
   14    6   13 ar    
   15    6   20 1     
   16    7   14 ar    
   17    7   21 1     
   18    8   15 1     
   19    8   22 1     
   20   10   15 1     
   21   10   23 1     
   22   12   24 1     
   23   12   25 1     
   24   12   26 1     
   25   13   16 ar    
   26   13   27 1     
   27   14   16 ar    
   28   14   28 1     
   29   15   17 2     
   30   16   29 1     
@<TRIPOS>SUBSTRUCTURE
      1 RES1           1
@<TRIPOS>SET
DONOR_HYDROGENS      STATIC     ATOMS    <user>   **** ""
2 22 23
ATOM$RED        STATIC     ATOMS    COLORGROUP SYSTEM
2 22 23
@<TRIPOS>COMMENT
> <Gold.Version>
2022.3.0

> <Gold.Id.Protein>
unknown|4d1n_clean|pdb

> <Gold.Protein.RotatedTorsions>
[ 8321 8305 8306 8307 ] final -167.74 input   94.69 | X-H torsion
[ 8357 8347 8348 8349 ] final  103.28 input   68.57 | X-H torsion
[ 8421 8399 8400 8401 ] final  117.09 input  113.07 | X-H torsion
[ 8505 8489 8490 8491 ] final -162.12 input   89.94 | X-H torsion
[ 8545 8533 8534 8535 ] final -163.69 input  110.24 | X-H torsion
[ 9073 9052 9051 9049 ] final   27.30 input   60.00 | X-H torsion
[ 8253 8231 8232 8233 ] final  146.32 input   84.65 | X-H torsion
[ 10325 10309 10310 10311 ] final  144.41 input   62.15 | X-H torsion
[ 27198 8308 8307 8306 ] final  -76.72 input   -0.00 | X-H torsion
[ 27205 8350 8349 8348 ] final  -94.30 input    0.00 | X-H torsion
[ 27208 8402 8401 8400 ] final   -6.56 input    0.00 | X-H torsion
[ 27211 8492 8491 8490 ] final   14.12 input   -0.00 | X-H torsion
[ 27220 8234 8233 8232 ] final  -58.75 input    0.00 | X-H torsion
[ 27222 8162 8161 8160 ] final -171.26 input    0.00 | X-H torsion
[ 27225 10312 10311 10310 ] final   73.53 input    0.00 | X-H torsion

> <Gold.Protein.ActiveResidues>
 ASP403  LEU406  ILE407  VAL431  PHE432  ASP433  ALA434  ARG435  ASP436  CYS437 
 TYR446  ASN449  THR465  ILE466 

> <Gold.Protein.RotatedAtoms>
  219.6934   45.0512   10.1874 H   0  0  0  0  0  0  0  0  0  0  0  0  # atno 8253 bound_to 8231
  216.4053   46.4076   10.9044 H   0  0  0  0  0  0  0  0  0  0  0  0  # atno 8321 bound_to 8305
  213.6109   43.8530   10.5051 H   0  0  0  0  0  0  0  0  0  0  0  0  # atno 8357 bound_to 8347
  210.9055   44.9225   11.2026 H   0  0  0  0  0  0  0  0  0  0  0  0  # atno 8421 bound_to 8399
  207.9933   45.5669   10.4174 H   0  0  0  0  0  0  0  0  0  0  0  0  # atno 8505 bound_to 8489
  207.9512   44.0407    7.4895 H   0  0  0  0  0  0  0  0  0  0  0  0  # atno 8545 bound_to 8533
  211.7341   46.6108    5.9957 H   0  0  0  0  0  0  0  0  0  0  0  0  # atno 9073 bound_to 9052
  216.4268   41.8577   11.6713 H   0  0  0  0  0  0  0  0  0  0  0  0  # atno 10325 bound_to 10309
  215.6070   46.2660    9.3533 LP  0  0  0  0  0  0  0  0  0  0  0  0  # atno 27197 bound_to 8305
  212.1678   47.1608    9.4139 LP  0  0  0  0  0  0  0  0  0  0  0  0  # atno 27198 bound_to 8308
  213.1907   46.4229    8.2268 LP  0  0  0  0  0  0  0  0  0  0  0  0  # atno 27199 bound_to 8308
  212.7870   45.3891   10.3682 LP  0  0  0  0  0  0  0  0  0  0  0  0  # atno 27204 bound_to 8347
  209.2095   42.8580    8.6026 LP  0  0  0  0  0  0  0  0  0  0  0  0  # atno 27205 bound_to 8350
  210.0449   41.6980    9.5806 LP  0  0  0  0  0  0  0  0  0  0  0  0  # atno 27206 bound_to 8350
  210.4747   43.7481    9.9814 LP  0  0  0  0  0  0  0  0  0  0  0  0  # atno 27207 bound_to 8399
  206.5114   43.4632   11.8661 LP  0  0  0  0  0  0  0  0  0  0  0  0  # atno 27208 bound_to 8402
  205.7727   44.3794   10.5953 LP  0  0  0  0  0  0  0  0  0  0  0  0  # atno 27209 bound_to 8402
  208.5308   44.3801    9.2515 LP  0  0  0  0  0  0  0  0  0  0  0  0  # atno 27210 bound_to 8489
  205.1256   45.3328    6.6964 LP  0  0  0  0  0  0  0  0  0  0  0  0  # atno 27211 bound_to 8492
  205.2810   43.6554    6.2934 LP  0  0  0  0  0  0  0  0  0  0  0  0  # atno 27212 bound_to 8492
  206.7259   43.2723    8.4732 LP  0  0  0  0  0  0  0  0  0  0  0  0  # atno 27217 bound_to 8533
  210.8960   45.7191    7.0683 LP  0  0  0  0  0  0  0  0  0  0  0  0  # atno 27218 bound_to 9052
  210.3171   45.9413    5.5577 LP  0  0  0  0  0  0  0  0  0  0  0  0  # atno 27219 bound_to 9052
  216.1572   43.3517    9.9229 LP  0  0  0  0  0  0  0  0  0  0  0  0  # atno 27220 bound_to 8234
  215.9289   43.9483   11.5329 LP  0  0  0  0  0  0  0  0  0  0  0  0  # atno 27221 bound_to 8234
  218.0690   47.7451   10.4841 LP  0  0  0  0  0  0  0  0  0  0  0  0  # atno 27222 bound_to 8162
  219.3279   48.2974   11.5377 LP  0  0  0  0  0  0  0  0  0  0  0  0  # atno 27223 bound_to 8162
  218.6115   45.5505   11.4615 LP  0  0  0  0  0  0  0  0  0  0  0  0  # atno 27224 bound_to 8231
  212.9522   42.6778   10.9458 LP  0  0  0  0  0  0  0  0  0  0  0  0  # atno 27225 bound_to 10312
  212.0037   42.4900   12.3828 LP  0  0  0  0  0  0  0  0  0  0  0  0  # atno 27226 bound_to 10312

> <Gold.Score>
     Fitness  S(hb_ext) S(vdw_ext)  S(hb_int)    S(int)      intcor
     26.52       0.00      19.77       0.00      -0.67      -0.76

> <Gold.Goldscore.Fitness>
26.5164

> <Gold.Goldscore.Internal.Vdw>
-0.8701

> <Gold.Goldscore.Internal.Torsion>
-0.5581

> <Gold.Goldscore.External.Vdw>
19.7725

> <Gold.Goldscore.Internal.HBond>
0.0000

> <Gold.Goldscore.External.HBond>
0.0000

> <Gold.Goldscore.Internal.Correction>
-0.7573

> <Gold.Goldscore.Internal.Vdw.Weighted>
-0.8701

> <Gold.Goldscore.Internal.Torsion.Weighted>
-0.5581

> <Gold.Goldscore.External.Vdw.Weighted>
27.1872

> <Gold.Goldscore.Internal.HBond.Weighted>
0.0000

> <Gold.Goldscore.External.HBond.Weighted>
0.0000

> <Gold.Goldscore.Internal.Correction.Weighted>
-0.7573

> <Gold.Rescore>
     Score     S(PLP)   S(hbond)     S(cho)   S(metal)  DE(clash)   DE(tors)     intcor
     18.42     -20.80       0.00       0.00       0.00       0.00       1.19       ----

> <Gold.PLP.Fitness>
18.4194

> <Gold.PLP.PLP>
-20.8041

> <Gold.PLP.part.hbond>
0.0000

> <Gold.PLP.part.metal>
0.0000

> <Gold.PLP.part.buried>
-5.6866

> <Gold.PLP.part.nonpolar>
-16.3063

> <Gold.PLP.part.repulsive>
0.6857

> <Gold.PLP.ligand.clash>
0.0000

> <Gold.PLP.ligand.torsion>
1.1923

> <Gold.PLP.Chemscore.Hbond>
0.0000

> <Gold.PLP.Chemscore.CHOScore>
0.0000

> <Gold.PLP.Chemscore.Metal>
0.0000

> <Gold.PLP.Chemscore.Internal.Correction>
   9.000000E+99

