#       Name:                CT1002167954
#       Creating user name   hitesit
#       Creation time:       Sun Apr 16 23:04:38 2023


#       File generated by GOLD software.
#

@<TRIPOS>MOLECULE
CT1002167954|ligand_prepared|mol2|1|dock1
    29    30     1
SMALL
NO_CHARGES


@<TRIPOS>ATOM
      1 C1         206.7475  48.4454  13.3431 C.3            1 RES1               0.0000
      2 C2         207.9806  48.5527  12.4229 C.ar           1 RES1               0.0000
      3 C3         207.2684  48.0040  14.7077 C.2            1 RES1               0.0000
      4 C4         206.0936  49.8227  13.3425 C.2            1 RES1               0.0000
      5 C5         205.6967  47.4175  12.8625 C.3            1 RES1               0.0000
      6 C6         208.8864  49.5987  12.5710 C.ar           1 RES1               0.0000
      7 C7         208.2266  47.6134  11.4249 C.ar           1 RES1               0.0000
      8 N8         207.3023  48.9360  15.7027 N.am           1 RES1               0.0000
      9 O9         207.6801  46.8660  14.8970 O.2            1 RES1               0.0000
     10 N10        206.0850  50.5299  14.5163 N.am           1 RES1               0.0000
     11 O11        205.6006  50.3090  12.3322 O.2            1 RES1               0.0000
     12 C12        204.4044  47.4417  13.6633 C.3            1 RES1               0.0000
     13 C13        209.9995  49.7006  11.7531 C.ar           1 RES1               0.0000
     14 C14        209.3402  47.7173  10.6079 C.ar           1 RES1               0.0000
     15 C15        206.6869  50.1619  15.6887 C.2            1 RES1               0.0000
     16 C16        210.2274  48.7599  10.7714 C.ar           1 RES1               0.0000
     17 O17        206.6825  50.8767  16.6867 O.2            1 RES1               0.0000
     18 H18        205.4633  47.6173  11.8094 H              1 RES1               0.0000
     19 H19        206.1318  46.4124  12.9246 H              1 RES1               0.0000
     20 H20        208.7223  50.3498  13.3364 H              1 RES1               0.0000
     21 H21        207.5416  46.7854  11.2774 H              1 RES1               0.0000
     22 H22        207.8346  48.6998  16.5340 H              1 RES1               0.0000
     23 H23        205.5834  51.4123  14.5160 H              1 RES1               0.0000
     24 H24        203.7022  46.7018  13.2849 H              1 RES1               0.0000
     25 H25        204.5960  47.2220  14.7116 H              1 RES1               0.0000
     26 H26        203.9315  48.4197  13.6029 H              1 RES1               0.0000
     27 H27        210.6940  50.5237  11.8849 H              1 RES1               0.0000
     28 H28        209.5153  46.9750   9.8362 H              1 RES1               0.0000
     29 H29        211.0997  48.8397  10.1311 H              1 RES1               0.0000
@<TRIPOS>BOND
    1    1    2 1     
    2    1    3 1     
    3    1    4 1     
    4    1    5 1     
    5    2    6 ar    
    6    2    7 ar    
    7    3    8 1     
    8    3    9 2     
    9    4   10 1     
   10    4   11 2     
   11    5   12 1     
   12    5   18 1     
   13    5   19 1     
   14    6   13 ar    
   15    6   20 1     
   16    7   14 ar    
   17    7   21 1     
   18    8   15 1     
   19    8   22 1     
   20   10   15 1     
   21   10   23 1     
   22   12   24 1     
   23   12   25 1     
   24   12   26 1     
   25   13   16 ar    
   26   13   27 1     
   27   14   16 ar    
   28   14   28 1     
   29   15   17 2     
   30   16   29 1     
@<TRIPOS>SUBSTRUCTURE
      1 RES1           1
@<TRIPOS>SET
DONOR_HYDROGENS      STATIC     ATOMS    <user>   **** ""
2 22 23
ATOM$RED        STATIC     ATOMS    COLORGROUP SYSTEM
2 22 23
@<TRIPOS>COMMENT
> <Gold.Version>
2022.3.0

> <Gold.Id.Protein>
unknown|4d1n_clean|pdb

> <Gold.Protein.RotatedTorsions>
[ 8321 8305 8306 8307 ] final  -58.45 input   94.69 | X-H torsion
[ 8357 8347 8348 8349 ] final -117.87 input   68.57 | X-H torsion
[ 8421 8399 8400 8401 ] final   48.10 input  113.07 | X-H torsion
[ 8505 8489 8490 8491 ] final  -52.45 input   89.94 | X-H torsion
[ 8545 8533 8534 8535 ] final   72.61 input  110.24 | X-H torsion
[ 9073 9052 9051 9049 ] final  -73.85 input   60.00 | X-H torsion
[ 8253 8231 8232 8233 ] final -107.34 input   84.65 | X-H torsion
[ 10325 10309 10310 10311 ] final   99.00 input   62.15 | X-H torsion
[ 27198 8308 8307 8306 ] final    4.28 input   -0.00 | X-H torsion
[ 27205 8350 8349 8348 ] final  163.63 input    0.00 | X-H torsion
[ 27208 8402 8401 8400 ] final  101.87 input    0.00 | X-H torsion
[ 27211 8492 8491 8490 ] final  112.14 input   -0.00 | X-H torsion
[ 27220 8234 8233 8232 ] final   30.31 input    0.00 | X-H torsion
[ 27222 8162 8161 8160 ] final  166.00 input    0.00 | X-H torsion
[ 27225 10312 10311 10310 ] final   39.11 input    0.00 | X-H torsion

> <Gold.Protein.ActiveResidues>
 ASP403  LEU406  ILE407  VAL431  PHE432  ASP433  ALA434  ARG435  ASP436  CYS437 
 TYR446  ASN449  THR465  ILE466 

> <Gold.Protein.RotatedAtoms>
  219.2575   46.1690   10.9195 H   0  0  0  0  0  0  0  0  0  0  0  0  # atno 8253 bound_to 8231
  215.9540   45.4776    9.8867 H   0  0  0  0  0  0  0  0  0  0  0  0  # atno 8321 bound_to 8305
  213.2343   45.3686    9.9468 H   0  0  0  0  0  0  0  0  0  0  0  0  # atno 8357 bound_to 8347
  210.4174   45.1389   10.3537 H   0  0  0  0  0  0  0  0  0  0  0  0  # atno 8421 bound_to 8399
  207.8833   44.1850    9.9980 H   0  0  0  0  0  0  0  0  0  0  0  0  # atno 8505 bound_to 8489
  207.5082   43.0504    8.6160 H   0  0  0  0  0  0  0  0  0  0  0  0  # atno 8545 bound_to 8533
  211.1660   45.8642    7.0967 H   0  0  0  0  0  0  0  0  0  0  0  0  # atno 9073 bound_to 9052
  215.9602   42.2913   11.4142 H   0  0  0  0  0  0  0  0  0  0  0  0  # atno 10325 bound_to 10309
  216.0438   47.1662   10.3383 LP  0  0  0  0  0  0  0  0  0  0  0  0  # atno 27197 bound_to 8305
  213.2238   47.4002    9.1092 LP  0  0  0  0  0  0  0  0  0  0  0  0  # atno 27198 bound_to 8308
  212.1347   46.1835    8.5316 LP  0  0  0  0  0  0  0  0  0  0  0  0  # atno 27199 bound_to 8308
  213.1537   43.9130   10.9120 LP  0  0  0  0  0  0  0  0  0  0  0  0  # atno 27204 bound_to 8347
  209.1495   42.2726    9.8139 LP  0  0  0  0  0  0  0  0  0  0  0  0  # atno 27205 bound_to 8350
  210.1049   42.2835    8.3692 LP  0  0  0  0  0  0  0  0  0  0  0  0  # atno 27206 bound_to 8350
  210.9504   43.5373   10.8086 LP  0  0  0  0  0  0  0  0  0  0  0  0  # atno 27207 bound_to 8399
  205.9995   44.7250   11.5199 LP  0  0  0  0  0  0  0  0  0  0  0  0  # atno 27208 bound_to 8402
  206.2846   43.1175   10.9415 LP  0  0  0  0  0  0  0  0  0  0  0  0  # atno 27209 bound_to 8402
  208.6379   45.7256    9.6598 LP  0  0  0  0  0  0  0  0  0  0  0  0  # atno 27210 bound_to 8489
  205.7767   44.5772    5.8512 LP  0  0  0  0  0  0  0  0  0  0  0  0  # atno 27211 bound_to 8492
  204.6299   44.4110    7.1385 LP  0  0  0  0  0  0  0  0  0  0  0  0  # atno 27212 bound_to 8492
  207.1565   44.2350    7.3781 LP  0  0  0  0  0  0  0  0  0  0  0  0  # atno 27217 bound_to 8533
  210.1957   45.7818    5.7929 LP  0  0  0  0  0  0  0  0  0  0  0  0  # atno 27218 bound_to 9052
  211.5894   46.6301    5.7247 LP  0  0  0  0  0  0  0  0  0  0  0  0  # atno 27219 bound_to 9052
  216.8860   43.5219   10.8796 LP  0  0  0  0  0  0  0  0  0  0  0  0  # atno 27220 bound_to 8234
  215.2001   43.7781   10.5761 LP  0  0  0  0  0  0  0  0  0  0  0  0  # atno 27221 bound_to 8234
  218.3229   47.8002   10.2625 LP  0  0  0  0  0  0  0  0  0  0  0  0  # atno 27222 bound_to 8162
  219.0739   48.2422   11.7593 LP  0  0  0  0  0  0  0  0  0  0  0  0  # atno 27223 bound_to 8162
  219.0417   44.4474   10.7390 LP  0  0  0  0  0  0  0  0  0  0  0  0  # atno 27224 bound_to 8231
  213.2200   42.8822   11.3320 LP  0  0  0  0  0  0  0  0  0  0  0  0  # atno 27225 bound_to 10312
  211.7360   42.2855   11.9966 LP  0  0  0  0  0  0  0  0  0  0  0  0  # atno 27226 bound_to 10312

> <Gold.Score>
     Fitness  S(hb_ext) S(vdw_ext)  S(hb_int)    S(int)      intcor
     28.15       0.00      20.48       0.00      -0.00      -0.76

> <Gold.Goldscore.Fitness>
28.1520

> <Gold.Goldscore.Internal.Vdw>
-0.3053

> <Gold.Goldscore.Internal.Torsion>
-0.4570

> <Gold.Goldscore.External.Vdw>
20.4778

> <Gold.Goldscore.Internal.HBond>
0.0000

> <Gold.Goldscore.External.HBond>
0.0000

> <Gold.Goldscore.Internal.Correction>
-0.7573

> <Gold.Goldscore.Internal.Vdw.Weighted>
-0.3053

> <Gold.Goldscore.Internal.Torsion.Weighted>
-0.4570

> <Gold.Goldscore.External.Vdw.Weighted>
28.1569

> <Gold.Goldscore.Internal.HBond.Weighted>
0.0000

> <Gold.Goldscore.External.HBond.Weighted>
0.0000

> <Gold.Goldscore.Internal.Correction.Weighted>
-0.7573

> <Gold.Rescore>
     Score     S(PLP)   S(hbond)     S(cho)   S(metal)  DE(clash)   DE(tors)     intcor
     20.95     -21.15       0.00       0.00       0.00       0.00       0.10       ----

> <Gold.PLP.Fitness>
20.9506

> <Gold.PLP.PLP>
-21.1548

> <Gold.PLP.part.hbond>
-1.6475

> <Gold.PLP.part.metal>
0.0000

> <Gold.PLP.part.buried>
-2.9604

> <Gold.PLP.part.nonpolar>
-17.9022

> <Gold.PLP.part.repulsive>
1.4829

> <Gold.PLP.ligand.clash>
0.0000

> <Gold.PLP.ligand.torsion>
0.1021

> <Gold.PLP.Chemscore.Hbond>
0.0000

> <Gold.PLP.Chemscore.CHOScore>
0.0000

> <Gold.PLP.Chemscore.Metal>
0.0000

> <Gold.PLP.Chemscore.Internal.Correction>
   9.000000E+99

