#       Name:                CT1002167954
#       Creating user name   hitesit
#       Creation time:       Sun Apr 16 23:04:41 2023


#       File generated by GOLD software.
#

@<TRIPOS>MOLECULE
CT1002167954|ligand_prepared|mol2|1|dock7
    29    30     1
SMALL
NO_CHARGES


@<TRIPOS>ATOM
      1 C1         208.3861  49.2166  11.7583 C.3            1 RES1               0.0000
      2 C2         208.0514  49.0737  13.2571 C.ar           1 RES1               0.0000
      3 C3         207.0580  49.4458  11.0427 C.2            1 RES1               0.0000
      4 C4         209.3615  50.3832  11.6482 C.2            1 RES1               0.0000
      5 C5         209.0639  47.9679  11.1476 C.3            1 RES1               0.0000
      6 C6         208.0868  50.1807  14.0996 C.ar           1 RES1               0.0000
      7 C7         207.7037  47.8442  13.8101 C.ar           1 RES1               0.0000
      8 N8         206.7945  50.7041  10.5876 N.am           1 RES1               0.0000
      9 O9         206.2374  48.5456  10.9147 O.2            1 RES1               0.0000
     10 N10        208.9452  51.5080  10.9854 N.am           1 RES1               0.0000
     11 O11        210.4809  50.3449  12.1439 O.2            1 RES1               0.0000
     12 C12        209.6776  48.2115   9.7779 C.3            1 RES1               0.0000
     13 C13        207.7826  50.0635  15.4458 C.ar           1 RES1               0.0000
     14 C14        207.4001  47.7291  15.1566 C.ar           1 RES1               0.0000
     15 C15        207.6950  51.7329  10.4767 C.2            1 RES1               0.0000
     16 C16        207.4387  48.8379  15.9751 C.ar           1 RES1               0.0000
     17 O17        207.3797  52.7921   9.9421 O.2            1 RES1               0.0000
     18 H18        209.8501  47.6233  11.8306 H              1 RES1               0.0000
     19 H19        208.3186  47.1673  11.0631 H              1 RES1               0.0000
     20 H20        208.3576  51.1530  13.7016 H              1 RES1               0.0000
     21 H21        207.6679  46.9581  13.1854 H              1 RES1               0.0000
     22 H22        205.8395  50.8981  10.3035 H              1 RES1               0.0000
     23 H23        209.6307  52.2458  10.8594 H              1 RES1               0.0000
     24 H24        210.1396  47.3039   9.3953 H              1 RES1               0.0000
     25 H25        208.9190  48.5314   9.0666 H              1 RES1               0.0000
     26 H26        210.4414  48.9847   9.8295 H              1 RES1               0.0000
     27 H27        207.8158  50.9389  16.0859 H              1 RES1               0.0000
     28 H28        207.1306  46.7624  15.5690 H              1 RES1               0.0000
     29 H29        207.2001  48.7464  17.0295 H              1 RES1               0.0000
@<TRIPOS>BOND
    1    1    2 1     
    2    1    3 1     
    3    1    4 1     
    4    1    5 1     
    5    2    6 ar    
    6    2    7 ar    
    7    3    8 1     
    8    3    9 2     
    9    4   10 1     
   10    4   11 2     
   11    5   12 1     
   12    5   18 1     
   13    5   19 1     
   14    6   13 ar    
   15    6   20 1     
   16    7   14 ar    
   17    7   21 1     
   18    8   15 1     
   19    8   22 1     
   20   10   15 1     
   21   10   23 1     
   22   12   24 1     
   23   12   25 1     
   24   12   26 1     
   25   13   16 ar    
   26   13   27 1     
   27   14   16 ar    
   28   14   28 1     
   29   15   17 2     
   30   16   29 1     
@<TRIPOS>SUBSTRUCTURE
      1 RES1           1
@<TRIPOS>SET
DONOR_HYDROGENS      STATIC     ATOMS    <user>   **** ""
2 22 23
ATOM$RED        STATIC     ATOMS    COLORGROUP SYSTEM
2 22 23
@<TRIPOS>COMMENT
> <Gold.Version>
2022.3.0

> <Gold.Id.Protein>
unknown|4d1n_clean|pdb

> <Gold.Protein.RotatedTorsions>
[ 8321 8305 8306 8307 ] final   88.33 input   94.69 | X-H torsion
[ 8357 8347 8348 8349 ] final  -14.70 input   68.57 | X-H torsion
[ 8421 8399 8400 8401 ] final   42.49 input  113.07 | X-H torsion
[ 8505 8489 8490 8491 ] final  -87.36 input   89.94 | X-H torsion
[ 8545 8533 8534 8535 ] final  140.67 input  110.24 | X-H torsion
[ 9073 9052 9051 9049 ] final  162.03 input   60.00 | X-H torsion
[ 8253 8231 8232 8233 ] final  -96.74 input   84.65 | X-H torsion
[ 10325 10309 10310 10311 ] final  -68.93 input   62.15 | X-H torsion
[ 27198 8308 8307 8306 ] final   59.37 input   -0.00 | X-H torsion
[ 27205 8350 8349 8348 ] final  124.12 input    0.00 | X-H torsion
[ 27208 8402 8401 8400 ] final  -58.70 input    0.00 | X-H torsion
[ 27211 8492 8491 8490 ] final  156.22 input   -0.00 | X-H torsion
[ 27220 8234 8233 8232 ] final  -99.72 input    0.00 | X-H torsion
[ 27222 8162 8161 8160 ] final   47.47 input    0.00 | X-H torsion
[ 27225 10312 10311 10310 ] final  -42.93 input    0.00 | X-H torsion

> <Gold.Protein.ActiveResidues>
 ASP403  LEU406  ILE407  VAL431  PHE432  ASP433  ALA434  ARG435  ASP436  CYS437 
 TYR446  ASN449  THR465  ILE466 

> <Gold.Protein.RotatedAtoms>
  219.1464   46.1555   11.0368 H   0  0  0  0  0  0  0  0  0  0  0  0  # atno 8253 bound_to 8231
  215.7880   47.1738    9.9071 H   0  0  0  0  0  0  0  0  0  0  0  0  # atno 8321 bound_to 8305
  212.5091   44.7852   10.9766 H   0  0  0  0  0  0  0  0  0  0  0  0  # atno 8357 bound_to 8347
  210.3854   45.1032   10.2816 H   0  0  0  0  0  0  0  0  0  0  0  0  # atno 8421 bound_to 8399
  207.7111   44.5304   10.3633 H   0  0  0  0  0  0  0  0  0  0  0  0  # atno 8505 bound_to 8489
  208.2000   43.4946    8.0597 H   0  0  0  0  0  0  0  0  0  0  0  0  # atno 8545 bound_to 8533
  210.2220   45.8138    5.7389 H   0  0  0  0  0  0  0  0  0  0  0  0  # atno 9073 bound_to 9052
  215.7031   40.7346   10.6121 H   0  0  0  0  0  0  0  0  0  0  0  0  # atno 10325 bound_to 10309
  216.2045   45.5244   10.3186 LP  0  0  0  0  0  0  0  0  0  0  0  0  # atno 27197 bound_to 8305
  213.4862   46.9127    8.5303 LP  0  0  0  0  0  0  0  0  0  0  0  0  # atno 27198 bound_to 8308
  211.8722   46.6711    9.1104 LP  0  0  0  0  0  0  0  0  0  0  0  0  # atno 27199 bound_to 8308
  213.8601   44.4812    9.9091 LP  0  0  0  0  0  0  0  0  0  0  0  0  # atno 27204 bound_to 8347
  209.5955   41.8972    9.8687 LP  0  0  0  0  0  0  0  0  0  0  0  0  # atno 27205 bound_to 8350
  209.6589   42.6589    8.3144 LP  0  0  0  0  0  0  0  0  0  0  0  0  # atno 27206 bound_to 8350
  210.9815   43.5721   10.8789 LP  0  0  0  0  0  0  0  0  0  0  0  0  # atno 27207 bound_to 8399
  206.3902   43.0918   11.2128 LP  0  0  0  0  0  0  0  0  0  0  0  0  # atno 27208 bound_to 8402
  205.8939   44.7508   11.2487 LP  0  0  0  0  0  0  0  0  0  0  0  0  # atno 27209 bound_to 8402
  208.8055   45.3893    9.3042 LP  0  0  0  0  0  0  0  0  0  0  0  0  # atno 27210 bound_to 8489
  205.6136   43.9564    5.9540 LP  0  0  0  0  0  0  0  0  0  0  0  0  # atno 27211 bound_to 8492
  204.7930   45.0318    7.0357 LP  0  0  0  0  0  0  0  0  0  0  0  0  # atno 27212 bound_to 8492
  206.4841   43.8032    7.9188 LP  0  0  0  0  0  0  0  0  0  0  0  0  # atno 27217 bound_to 8533
  211.6280   46.6322    5.7803 LP  0  0  0  0  0  0  0  0  0  0  0  0  # atno 27218 bound_to 9052
  211.1073   45.8305    7.1042 LP  0  0  0  0  0  0  0  0  0  0  0  0  # atno 27219 bound_to 9052
  215.5777   43.5056   10.0119 LP  0  0  0  0  0  0  0  0  0  0  0  0  # atno 27220 bound_to 8234
  216.5084   43.7944   11.4439 LP  0  0  0  0  0  0  0  0  0  0  0  0  # atno 27221 bound_to 8234
  219.5212   48.2911   10.9970 LP  0  0  0  0  0  0  0  0  0  0  0  0  # atno 27222 bound_to 8162
  217.8756   47.7514   11.0248 LP  0  0  0  0  0  0  0  0  0  0  0  0  # atno 27223 bound_to 8162
  219.1514   44.4608   10.6233 LP  0  0  0  0  0  0  0  0  0  0  0  0  # atno 27224 bound_to 8231
  212.8222   42.8919   12.3968 LP  0  0  0  0  0  0  0  0  0  0  0  0  # atno 27225 bound_to 10312
  212.1338   42.2759   10.9317 LP  0  0  0  0  0  0  0  0  0  0  0  0  # atno 27226 bound_to 10312

> <Gold.Score>
     Fitness  S(hb_ext) S(vdw_ext)  S(hb_int)    S(int)      intcor
     28.67       0.00      21.33       0.00      -0.66      -0.76

> <Gold.Goldscore.Fitness>
28.6716

> <Gold.Goldscore.Internal.Vdw>
-0.7798

> <Gold.Goldscore.Internal.Torsion>
-0.6350

> <Gold.Goldscore.External.Vdw>
21.3302

> <Gold.Goldscore.Internal.HBond>
0.0000

> <Gold.Goldscore.External.HBond>
0.0000

> <Gold.Goldscore.Internal.Correction>
-0.7573

> <Gold.Goldscore.Internal.Vdw.Weighted>
-0.7798

> <Gold.Goldscore.Internal.Torsion.Weighted>
-0.6350

> <Gold.Goldscore.External.Vdw.Weighted>
29.3291

> <Gold.Goldscore.Internal.HBond.Weighted>
0.0000

> <Gold.Goldscore.External.HBond.Weighted>
0.0000

> <Gold.Goldscore.Internal.Correction.Weighted>
-0.7573

> <Gold.Rescore>
     Score     S(PLP)   S(hbond)     S(cho)   S(metal)  DE(clash)   DE(tors)     intcor
     22.13     -24.76       0.00       0.00       0.00       1.87       0.37       ----

> <Gold.PLP.Fitness>
22.1344

> <Gold.PLP.PLP>
-24.7559

> <Gold.PLP.part.hbond>
0.0000

> <Gold.PLP.part.metal>
0.0000

> <Gold.PLP.part.buried>
-5.5969

> <Gold.PLP.part.nonpolar>
-21.1094

> <Gold.PLP.part.repulsive>
0.5218

> <Gold.PLP.ligand.clash>
1.8734

> <Gold.PLP.ligand.torsion>
0.3741

> <Gold.PLP.Chemscore.Hbond>
0.0000

> <Gold.PLP.Chemscore.CHOScore>
0.0000

> <Gold.PLP.Chemscore.Metal>
0.0000

> <Gold.PLP.Chemscore.Internal.Correction>
   9.000000E+99

