#       Name:                CT1002167954
#       Creating user name   hitesit
#       Creation time:       Sun Apr 16 23:04:40 2023


#       File generated by GOLD software.
#

@<TRIPOS>MOLECULE
CT1002167954|ligand_prepared|mol2|1|dock6
    29    30     1
SMALL
NO_CHARGES


@<TRIPOS>ATOM
      1 C1         207.5560  49.0218  12.1577 C.3            1 RES1               0.0000
      2 C2         208.6403  48.8193  11.0797 C.ar           1 RES1               0.0000
      3 C3         207.7020  50.4596  12.6474 C.2            1 RES1               0.0000
      4 C4         206.2217  48.7275  11.4812 C.2            1 RES1               0.0000
      5 C5         207.6961  48.0731  13.3709 C.3            1 RES1               0.0000
      6 C6         209.3110  49.9105  10.5355 C.ar           1 RES1               0.0000
      7 C7         208.9821  47.5494  10.6222 C.ar           1 RES1               0.0000
      8 N8         206.7602  51.3617  12.2484 N.am           1 RES1               0.0000
      9 O9         208.6507  50.8053  13.3407 O.2            1 RES1               0.0000
     10 N10        205.3339  49.7611  11.3354 N.am           1 RES1               0.0000
     11 O11        205.9378  47.6136  11.0582 O.2            1 RES1               0.0000
     12 C12        206.7130  48.3643  14.4937 C.3            1 RES1               0.0000
     13 C13        210.2900  49.7383   9.5710 C.ar           1 RES1               0.0000
     14 C14        209.9613  47.3796   9.6575 C.ar           1 RES1               0.0000
     15 C15        205.5551  51.0716  11.6607 C.2            1 RES1               0.0000
     16 C16        210.6161  48.4729   9.1317 C.ar           1 RES1               0.0000
     17 O17        204.7281  51.9539  11.4490 O.2            1 RES1               0.0000
     18 H18        207.5480  47.0407  13.0307 H              1 RES1               0.0000
     19 H19        208.7165  48.1529  13.7656 H              1 RES1               0.0000
     20 H20        209.0661  50.9140  10.8671 H              1 RES1               0.0000
     21 H21        208.4793  46.6748  11.0209 H              1 RES1               0.0000
     22 H22        206.9715  52.3427  12.4010 H              1 RES1               0.0000
     23 H23        204.4237  49.5323  10.9486 H              1 RES1               0.0000
     24 H24        206.8541  47.6703  15.3197 H              1 RES1               0.0000
     25 H25        206.8490  49.3748  14.8732 H              1 RES1               0.0000
     26 H26        205.6875  48.2692  14.1427 H              1 RES1               0.0000
     27 H27        210.8014  50.6022   9.1594 H              1 RES1               0.0000
     28 H28        210.2142  46.3818   9.3142 H              1 RES1               0.0000
     29 H29        211.3833  48.3383   8.3764 H              1 RES1               0.0000
@<TRIPOS>BOND
    1    1    2 1     
    2    1    3 1     
    3    1    4 1     
    4    1    5 1     
    5    2    6 ar    
    6    2    7 ar    
    7    3    8 1     
    8    3    9 2     
    9    4   10 1     
   10    4   11 2     
   11    5   12 1     
   12    5   18 1     
   13    5   19 1     
   14    6   13 ar    
   15    6   20 1     
   16    7   14 ar    
   17    7   21 1     
   18    8   15 1     
   19    8   22 1     
   20   10   15 1     
   21   10   23 1     
   22   12   24 1     
   23   12   25 1     
   24   12   26 1     
   25   13   16 ar    
   26   13   27 1     
   27   14   16 ar    
   28   14   28 1     
   29   15   17 2     
   30   16   29 1     
@<TRIPOS>SUBSTRUCTURE
      1 RES1           1
@<TRIPOS>SET
DONOR_HYDROGENS      STATIC     ATOMS    <user>   **** ""
2 22 23
ATOM$RED        STATIC     ATOMS    COLORGROUP SYSTEM
2 22 23
@<TRIPOS>COMMENT
> <Gold.Version>
2022.3.0

> <Gold.Id.Protein>
unknown|4d1n_clean|pdb

> <Gold.Protein.RotatedTorsions>
[ 8321 8305 8306 8307 ] final  143.35 input   94.69 | X-H torsion
[ 8357 8347 8348 8349 ] final -145.06 input   68.57 | X-H torsion
[ 8421 8399 8400 8401 ] final  129.82 input  113.07 | X-H torsion
[ 8505 8489 8490 8491 ] final   24.49 input   89.94 | X-H torsion
[ 8545 8533 8534 8535 ] final -122.45 input  110.24 | X-H torsion
[ 9073 9052 9051 9049 ] final  -76.20 input   60.00 | X-H torsion
[ 8253 8231 8232 8233 ] final  161.94 input   84.65 | X-H torsion
[ 10325 10309 10310 10311 ] final  -53.25 input   62.15 | X-H torsion
[ 27198 8308 8307 8306 ] final  -36.62 input   -0.00 | X-H torsion
[ 27205 8350 8349 8348 ] final  138.80 input    0.00 | X-H torsion
[ 27208 8402 8401 8400 ] final   19.24 input    0.00 | X-H torsion
[ 27211 8492 8491 8490 ] final   55.07 input   -0.00 | X-H torsion
[ 27220 8234 8233 8232 ] final   -0.64 input    0.00 | X-H torsion
[ 27222 8162 8161 8160 ] final   85.00 input    0.00 | X-H torsion
[ 27225 10312 10311 10310 ] final   79.32 input    0.00 | X-H torsion

> <Gold.Protein.ActiveResidues>
 ASP403  LEU406  ILE407  VAL431  PHE432  ASP433  ALA434  ARG435  ASP436  CYS437 
 TYR446  ASN449  THR465  ILE466 

> <Gold.Protein.RotatedAtoms>
  219.7456   45.2839   10.1849 H   0  0  0  0  0  0  0  0  0  0  0  0  # atno 8253 bound_to 8231
  216.1833   47.0478   10.6163 H   0  0  0  0  0  0  0  0  0  0  0  0  # atno 8321 bound_to 8305
  213.5444   45.1347    9.7971 H   0  0  0  0  0  0  0  0  0  0  0  0  # atno 8357 bound_to 8347
  210.9816   44.7666   11.2945 H   0  0  0  0  0  0  0  0  0  0  0  0  # atno 8421 bound_to 8399
  208.5848   44.4417    9.1875 H   0  0  0  0  0  0  0  0  0  0  0  0  # atno 8505 bound_to 8489
  207.3821   44.2419    7.3288 H   0  0  0  0  0  0  0  0  0  0  0  0  # atno 8545 bound_to 8533
  211.1330   45.8444    7.0975 H   0  0  0  0  0  0  0  0  0  0  0  0  # atno 9073 bound_to 9052
  215.5342   40.8790   10.5144 H   0  0  0  0  0  0  0  0  0  0  0  0  # atno 10325 bound_to 10309
  215.8218   45.6464    9.6321 LP  0  0  0  0  0  0  0  0  0  0  0  0  # atno 27197 bound_to 8305
  212.6953   47.4332    9.4022 LP  0  0  0  0  0  0  0  0  0  0  0  0  # atno 27198 bound_to 8308
  212.6631   46.1506    8.2386 LP  0  0  0  0  0  0  0  0  0  0  0  0  # atno 27199 bound_to 8308
  212.8517   44.1408   11.0579 LP  0  0  0  0  0  0  0  0  0  0  0  0  # atno 27204 bound_to 8347
  209.4159   42.0245    9.8923 LP  0  0  0  0  0  0  0  0  0  0  0  0  # atno 27205 bound_to 8350
  209.8384   42.5316    8.2909 LP  0  0  0  0  0  0  0  0  0  0  0  0  # atno 27206 bound_to 8350
  210.4005   43.9001    9.8918 LP  0  0  0  0  0  0  0  0  0  0  0  0  # atno 27207 bound_to 8399
  206.4627   43.8112   12.0276 LP  0  0  0  0  0  0  0  0  0  0  0  0  # atno 27208 bound_to 8402
  205.8213   44.0314   10.4338 LP  0  0  0  0  0  0  0  0  0  0  0  0  # atno 27209 bound_to 8402
  207.9549   45.4756   10.4489 LP  0  0  0  0  0  0  0  0  0  0  0  0  # atno 27210 bound_to 8489
  205.5169   45.2600    6.2397 LP  0  0  0  0  0  0  0  0  0  0  0  0  # atno 27211 bound_to 8492
  204.8897   43.7283    6.7501 LP  0  0  0  0  0  0  0  0  0  0  0  0  # atno 27212 bound_to 8492
  207.2791   43.0768    8.6294 LP  0  0  0  0  0  0  0  0  0  0  0  0  # atno 27217 bound_to 8533
  210.2064   45.8002    5.7605 LP  0  0  0  0  0  0  0  0  0  0  0  0  # atno 27218 bound_to 9052
  211.6118   46.6317    5.7562 LP  0  0  0  0  0  0  0  0  0  0  0  0  # atno 27219 bound_to 9052
  216.8176   43.3878   10.4427 LP  0  0  0  0  0  0  0  0  0  0  0  0  # atno 27220 bound_to 8234
  215.2685   43.9122   11.0130 LP  0  0  0  0  0  0  0  0  0  0  0  0  # atno 27221 bound_to 8234
  219.3630   48.1713   10.4763 LP  0  0  0  0  0  0  0  0  0  0  0  0  # atno 27222 bound_to 8162
  218.0338   47.8711   11.5455 LP  0  0  0  0  0  0  0  0  0  0  0  0  # atno 27223 bound_to 8162
  218.5600   45.3209   11.4640 LP  0  0  0  0  0  0  0  0  0  0  0  0  # atno 27224 bound_to 8231
  212.8871   42.6378   10.9029 LP  0  0  0  0  0  0  0  0  0  0  0  0  # atno 27225 bound_to 10312
  212.0688   42.5300   12.4256 LP  0  0  0  0  0  0  0  0  0  0  0  0  # atno 27226 bound_to 10312

> <Gold.Score>
     Fitness  S(hb_ext) S(vdw_ext)  S(hb_int)    S(int)      intcor
     25.54       0.00      19.82       0.00      -1.70      -0.76

> <Gold.Goldscore.Fitness>
25.5444

> <Gold.Goldscore.Internal.Vdw>
-2.0373

> <Gold.Goldscore.Internal.Torsion>
-0.4216

> <Gold.Goldscore.External.Vdw>
19.8152

> <Gold.Goldscore.Internal.HBond>
0.0000

> <Gold.Goldscore.External.HBond>
0.0000

> <Gold.Goldscore.Internal.Correction>
-0.7573

> <Gold.Goldscore.Internal.Vdw.Weighted>
-2.0373

> <Gold.Goldscore.Internal.Torsion.Weighted>
-0.4216

> <Gold.Goldscore.External.Vdw.Weighted>
27.2459

> <Gold.Goldscore.Internal.HBond.Weighted>
0.0000

> <Gold.Goldscore.External.HBond.Weighted>
0.0000

> <Gold.Goldscore.Internal.Correction.Weighted>
-0.7573

> <Gold.Rescore>
     Score     S(PLP)   S(hbond)     S(cho)   S(metal)  DE(clash)   DE(tors)     intcor
     23.25     -25.52       0.00       0.00       0.00       1.54       0.37       ----

> <Gold.PLP.Fitness>
23.2512

> <Gold.PLP.PLP>
-25.5239

> <Gold.PLP.part.hbond>
0.0000

> <Gold.PLP.part.metal>
0.0000

> <Gold.PLP.part.buried>
-5.5651

> <Gold.PLP.part.nonpolar>
-21.2237

> <Gold.PLP.part.repulsive>
0.1823

> <Gold.PLP.ligand.clash>
1.5425

> <Gold.PLP.ligand.torsion>
0.3651

> <Gold.PLP.Chemscore.Hbond>
0.0000

> <Gold.PLP.Chemscore.CHOScore>
0.0000

> <Gold.PLP.Chemscore.Metal>
0.0000

> <Gold.PLP.Chemscore.Internal.Correction>
   9.000000E+99

