#       Name:                CT1002167954
#       Creating user name   hitesit
#       Creation time:       Sun Apr 16 23:04:40 2023


#       File generated by GOLD software.
#

@<TRIPOS>MOLECULE
CT1002167954|ligand_prepared|mol2|1|dock5
    29    30     1
SMALL
NO_CHARGES


@<TRIPOS>ATOM
      1 C1         207.3021  48.9529  12.0652 C.3            1 RES1               0.0000
      2 C2         208.5252  48.8620  11.1301 C.ar           1 RES1               0.0000
      3 C3         206.1747  48.1945  11.3710 C.2            1 RES1               0.0000
      4 C4         207.7351  48.3442  13.3944 C.2            1 RES1               0.0000
      5 C5         206.8276  50.4000  12.3345 C.3            1 RES1               0.0000
      6 C6         209.1281  50.0157  10.6378 C.ar           1 RES1               0.0000
      7 C7         209.0626  47.6340  10.7537 C.ar           1 RES1               0.0000
      8 N8         205.8337  46.9724  11.8711 N.am           1 RES1               0.0000
      9 O9         205.6201  48.6443  10.3758 O.2            1 RES1               0.0000
     10 N10        207.1275  47.1840  13.7976 N.am           1 RES1               0.0000
     11 O11        208.6088  48.8498  14.0882 O.2            1 RES1               0.0000
     12 C12        205.6305  50.4890  13.2678 C.3            1 RES1               0.0000
     13 C13        210.2302  49.9444   9.8019 C.ar           1 RES1               0.0000
     14 C14        210.1647  47.5649   9.9174 C.ar           1 RES1               0.0000
     15 C15        206.2182  46.4541  13.0816 C.2            1 RES1               0.0000
     16 C16        210.7494  48.7192   9.4416 C.ar           1 RES1               0.0000
     17 O17        205.7570  45.3913  13.4876 O.2            1 RES1               0.0000
     18 H18        207.6583  50.9686  12.7704 H              1 RES1               0.0000
     19 H19        206.5654  50.8693  11.3782 H              1 RES1               0.0000
     20 H20        208.7320  50.9887  10.9086 H              1 RES1               0.0000
     21 H21        208.6183  46.7128  11.1151 H              1 RES1               0.0000
     22 H22        205.2377  46.3900  11.2915 H              1 RES1               0.0000
     23 H23        207.3759  46.8321  14.7167 H              1 RES1               0.0000
     24 H24        205.3387  51.5256  13.4230 H              1 RES1               0.0000
     25 H25        204.7778  49.9553  12.8535 H              1 RES1               0.0000
     26 H26        205.8642  50.0540  14.2374 H              1 RES1               0.0000
     27 H27        210.6859  50.8557   9.4290 H              1 RES1               0.0000
     28 H28        210.5696  46.5985   9.6359 H              1 RES1               0.0000
     29 H29        211.6130  48.6637   8.7870 H              1 RES1               0.0000
@<TRIPOS>BOND
    1    1    2 1     
    2    1    3 1     
    3    1    4 1     
    4    1    5 1     
    5    2    6 ar    
    6    2    7 ar    
    7    3    8 1     
    8    3    9 2     
    9    4   10 1     
   10    4   11 2     
   11    5   12 1     
   12    5   18 1     
   13    5   19 1     
   14    6   13 ar    
   15    6   20 1     
   16    7   14 ar    
   17    7   21 1     
   18    8   15 1     
   19    8   22 1     
   20   10   15 1     
   21   10   23 1     
   22   12   24 1     
   23   12   25 1     
   24   12   26 1     
   25   13   16 ar    
   26   13   27 1     
   27   14   16 ar    
   28   14   28 1     
   29   15   17 2     
   30   16   29 1     
@<TRIPOS>SUBSTRUCTURE
      1 RES1           1
@<TRIPOS>SET
DONOR_HYDROGENS      STATIC     ATOMS    <user>   **** ""
2 22 23
ATOM$RED        STATIC     ATOMS    COLORGROUP SYSTEM
2 22 23
@<TRIPOS>COMMENT
> <Gold.Version>
2022.3.0

> <Gold.Id.Protein>
unknown|4d1n_clean|pdb

> <Gold.Protein.RotatedTorsions>
[ 8321 8305 8306 8307 ] final -142.42 input   94.69 | X-H torsion
[ 8357 8347 8348 8349 ] final   29.89 input   68.57 | X-H torsion
[ 8421 8399 8400 8401 ] final  -15.58 input  113.07 | X-H torsion
[ 8505 8489 8490 8491 ] final -102.31 input   89.94 | X-H torsion
[ 8545 8533 8534 8535 ] final  129.03 input  110.24 | X-H torsion
[ 9073 9052 9051 9049 ] final  -99.36 input   60.00 | X-H torsion
[ 8253 8231 8232 8233 ] final   37.41 input   84.65 | X-H torsion
[ 10325 10309 10310 10311 ] final   29.19 input   62.15 | X-H torsion
[ 27198 8308 8307 8306 ] final  106.97 input   -0.00 | X-H torsion
[ 27205 8350 8349 8348 ] final  -42.50 input    0.00 | X-H torsion
[ 27208 8402 8401 8400 ] final   55.33 input    0.00 | X-H torsion
[ 27211 8492 8491 8490 ] final  -72.89 input   -0.00 | X-H torsion
[ 27220 8234 8233 8232 ] final  101.33 input    0.00 | X-H torsion
[ 27222 8162 8161 8160 ] final  -78.24 input    0.00 | X-H torsion
[ 27225 10312 10311 10310 ] final   89.17 input    0.00 | X-H torsion

> <Gold.Protein.ActiveResidues>
 ASP403  LEU406  ILE407  VAL431  PHE432  ASP433  ALA434  ARG435  ASP436  CYS437 
 TYR446  ASN449  THR465  ILE466 

> <Gold.Protein.RotatedAtoms>
  218.7232   44.5975   11.1332 H   0  0  0  0  0  0  0  0  0  0  0  0  # atno 8253 bound_to 8231
  216.4108   46.0232   10.8402 H   0  0  0  0  0  0  0  0  0  0  0  0  # atno 8321 bound_to 8305
  212.7854   44.1815   11.0806 H   0  0  0  0  0  0  0  0  0  0  0  0  # atno 8357 bound_to 8347
  210.2604   44.3947    9.8113 H   0  0  0  0  0  0  0  0  0  0  0  0  # atno 8421 bound_to 8399
  207.6968   44.7363   10.4659 H   0  0  0  0  0  0  0  0  0  0  0  0  # atno 8505 bound_to 8489
  208.1502   43.3804    8.1895 H   0  0  0  0  0  0  0  0  0  0  0  0  # atno 8545 bound_to 8533
  210.8041   45.6767    7.0266 H   0  0  0  0  0  0  0  0  0  0  0  0  # atno 9073 bound_to 9052
  215.2843   42.0086   10.7067 H   0  0  0  0  0  0  0  0  0  0  0  0  # atno 10325 bound_to 10309
  215.6016   46.6381    9.4154 LP  0  0  0  0  0  0  0  0  0  0  0  0  # atno 27197 bound_to 8305
  213.1489   46.3878    8.2153 LP  0  0  0  0  0  0  0  0  0  0  0  0  # atno 27198 bound_to 8308
  212.2095   47.1959    9.4255 LP  0  0  0  0  0  0  0  0  0  0  0  0  # atno 27199 bound_to 8308
  213.5909   45.0692    9.8077 LP  0  0  0  0  0  0  0  0  0  0  0  0  # atno 27204 bound_to 8347
  209.8229   42.5436    8.2909 LP  0  0  0  0  0  0  0  0  0  0  0  0  # atno 27205 bound_to 8350
  209.4314   42.0125    9.8923 LP  0  0  0  0  0  0  0  0  0  0  0  0  # atno 27206 bound_to 8350
  211.1034   44.2625   11.3372 LP  0  0  0  0  0  0  0  0  0  0  0  0  # atno 27207 bound_to 8399
  206.2921   44.3181   11.9857 LP  0  0  0  0  0  0  0  0  0  0  0  0  # atno 27208 bound_to 8402
  205.9920   43.5245   10.4757 LP  0  0  0  0  0  0  0  0  0  0  0  0  # atno 27209 bound_to 8402
  208.8195   45.1888    9.2043 LP  0  0  0  0  0  0  0  0  0  0  0  0  # atno 27210 bound_to 8489
  204.6319   44.3361    7.1262 LP  0  0  0  0  0  0  0  0  0  0  0  0  # atno 27211 bound_to 8492
  205.7747   44.6521    5.8636 LP  0  0  0  0  0  0  0  0  0  0  0  0  # atno 27212 bound_to 8492
  206.5324   43.9142    7.7928 LP  0  0  0  0  0  0  0  0  0  0  0  0  # atno 27217 bound_to 8533
  210.3779   46.0023    5.4903 LP  0  0  0  0  0  0  0  0  0  0  0  0  # atno 27218 bound_to 9052
  211.7715   46.5984    6.0978 LP  0  0  0  0  0  0  0  0  0  0  0  0  # atno 27219 bound_to 9052
  216.2222   43.8885   11.5409 LP  0  0  0  0  0  0  0  0  0  0  0  0  # atno 27220 bound_to 8234
  215.8639   43.4115    9.9149 LP  0  0  0  0  0  0  0  0  0  0  0  0  # atno 27221 bound_to 8234
  218.2020   47.9488   11.7168 LP  0  0  0  0  0  0  0  0  0  0  0  0  # atno 27222 bound_to 8162
  219.1949   48.0936   10.3050 LP  0  0  0  0  0  0  0  0  0  0  0  0  # atno 27223 bound_to 8162
  219.5689   45.9982   10.5282 LP  0  0  0  0  0  0  0  0  0  0  0  0  # atno 27224 bound_to 8231
  212.7673   42.5689   10.8482 LP  0  0  0  0  0  0  0  0  0  0  0  0  # atno 27225 bound_to 10312
  212.1886   42.5989   12.4804 LP  0  0  0  0  0  0  0  0  0  0  0  0  # atno 27226 bound_to 10312

> <Gold.Score>
     Fitness  S(hb_ext) S(vdw_ext)  S(hb_int)    S(int)      intcor
     28.15       0.00      21.10       0.00      -0.86      -0.76

> <Gold.Goldscore.Fitness>
28.1511

> <Gold.Goldscore.Internal.Vdw>
-1.2495

> <Gold.Goldscore.Internal.Torsion>
-0.3676

> <Gold.Goldscore.External.Vdw>
21.0988

> <Gold.Goldscore.Internal.HBond>
0.0000

> <Gold.Goldscore.External.HBond>
0.0000

> <Gold.Goldscore.Internal.Correction>
-0.7573

> <Gold.Goldscore.Internal.Vdw.Weighted>
-1.2495

> <Gold.Goldscore.Internal.Torsion.Weighted>
-0.3676

> <Gold.Goldscore.External.Vdw.Weighted>
29.0108

> <Gold.Goldscore.Internal.HBond.Weighted>
0.0000

> <Gold.Goldscore.External.HBond.Weighted>
0.0000

> <Gold.Goldscore.Internal.Correction.Weighted>
-0.7573

> <Gold.Rescore>
     Score     S(PLP)   S(hbond)     S(cho)   S(metal)  DE(clash)   DE(tors)     intcor
     25.67     -25.70       0.00       0.00       0.00       0.00       0.01       ----

> <Gold.PLP.Fitness>
25.6714

> <Gold.PLP.PLP>
-25.6962

> <Gold.PLP.part.hbond>
-1.0000

> <Gold.PLP.part.metal>
0.0000

> <Gold.PLP.part.buried>
-5.4452

> <Gold.PLP.part.nonpolar>
-20.3203

> <Gold.PLP.part.repulsive>
0.4966

> <Gold.PLP.ligand.clash>
0.0000

> <Gold.PLP.ligand.torsion>
0.0124

> <Gold.PLP.Chemscore.Hbond>
0.0000

> <Gold.PLP.Chemscore.CHOScore>
0.0000

> <Gold.PLP.Chemscore.Metal>
0.0000

> <Gold.PLP.Chemscore.Internal.Correction>
   9.000000E+99

