#       Name:                CT1002167954
#       Creating user name   hitesit
#       Creation time:       Sun Apr 16 23:04:42 2023


#       File generated by GOLD software.
#

@<TRIPOS>MOLECULE
CT1002167954|ligand_prepared|mol2|1|dock9
    29    30     1
SMALL
NO_CHARGES


@<TRIPOS>ATOM
      1 C1         207.8197  50.8155  16.0603 C.3            1 RES1               0.0000
      2 C2         208.1487  49.9849  14.8030 C.ar           1 RES1               0.0000
      3 C3         209.1278  51.4688  16.4966 C.2            1 RES1               0.0000
      4 C4         206.7374  51.8062  15.6459 C.2            1 RES1               0.0000
      5 C5         207.2731  49.9759  17.2383 C.3            1 RES1               0.0000
      6 C6         209.1573  50.3867  13.9323 C.ar           1 RES1               0.0000
      7 C7         207.4554  48.8155  14.5025 C.ar           1 RES1               0.0000
      8 N8         209.2738  52.8052  16.2674 N.am           1 RES1               0.0000
      9 O9         210.0331  50.8137  16.9981 O.2            1 RES1               0.0000
     10 N10        207.0509  53.1402  15.6539 N.am           1 RES1               0.0000
     11 O11        205.6211  51.4427  15.2966 O.2            1 RES1               0.0000
     12 C12        207.2130  50.7336  18.5553 C.3            1 RES1               0.0000
     13 C13        209.4637  49.6447  12.8036 C.ar           1 RES1               0.0000
     14 C14        207.7633  48.0750  13.3732 C.ar           1 RES1               0.0000
     15 C15        208.2794  53.6825  15.9163 C.2            1 RES1               0.0000
     16 C16        208.7674  48.4883  12.5236 C.ar           1 RES1               0.0000
     17 O17        208.4971  54.8889  15.8502 O.2            1 RES1               0.0000
     18 H18        206.2643  49.6271  16.9852 H              1 RES1               0.0000
     19 H19        207.9106  49.0925  17.3681 H              1 RES1               0.0000
     20 H20        209.7144  51.2953  14.1350 H              1 RES1               0.0000
     21 H21        206.6609  48.4718  15.1561 H              1 RES1               0.0000
     22 H22        210.2088  53.1877  16.3660 H              1 RES1               0.0000
     23 H23        206.2987  53.7890  15.4450 H              1 RES1               0.0000
     24 H24        206.8226  50.0988  19.3480 H              1 RES1               0.0000
     25 H25        208.2035  51.0736  18.8503 H              1 RES1               0.0000
     26 H26        206.5671  51.6050  18.4698 H              1 RES1               0.0000
     27 H27        210.2539  49.9749  12.1374 H              1 RES1               0.0000
     28 H28        207.2123  47.1659  13.1563 H              1 RES1               0.0000
     29 H29        209.0079  47.9069  11.6396 H              1 RES1               0.0000
@<TRIPOS>BOND
    1    1    2 1     
    2    1    3 1     
    3    1    4 1     
    4    1    5 1     
    5    2    6 ar    
    6    2    7 ar    
    7    3    8 1     
    8    3    9 2     
    9    4   10 1     
   10    4   11 2     
   11    5   12 1     
   12    5   18 1     
   13    5   19 1     
   14    6   13 ar    
   15    6   20 1     
   16    7   14 ar    
   17    7   21 1     
   18    8   15 1     
   19    8   22 1     
   20   10   15 1     
   21   10   23 1     
   22   12   24 1     
   23   12   25 1     
   24   12   26 1     
   25   13   16 ar    
   26   13   27 1     
   27   14   16 ar    
   28   14   28 1     
   29   15   17 2     
   30   16   29 1     
@<TRIPOS>SUBSTRUCTURE
      1 RES1           1
@<TRIPOS>SET
DONOR_HYDROGENS      STATIC     ATOMS    <user>   **** ""
2 22 23
ATOM$RED        STATIC     ATOMS    COLORGROUP SYSTEM
2 22 23
@<TRIPOS>COMMENT
> <Gold.Version>
2022.3.0

> <Gold.Id.Protein>
unknown|4d1n_clean|pdb

> <Gold.Protein.RotatedTorsions>
[ 8321 8305 8306 8307 ] final  167.63 input   94.69 | X-H torsion
[ 8357 8347 8348 8349 ] final   88.77 input   68.57 | X-H torsion
[ 8421 8399 8400 8401 ] final   40.72 input  113.07 | X-H torsion
[ 8505 8489 8490 8491 ] final -131.33 input   89.94 | X-H torsion
[ 8545 8533 8534 8535 ] final  -74.80 input  110.24 | X-H torsion
[ 9073 9052 9051 9049 ] final  -82.99 input   60.00 | X-H torsion
[ 8253 8231 8232 8233 ] final  -91.87 input   84.65 | X-H torsion
[ 10325 10309 10310 10311 ] final   -8.61 input   62.15 | X-H torsion
[ 27198 8308 8307 8306 ] final  -20.33 input   -0.00 | X-H torsion
[ 27205 8350 8349 8348 ] final  -71.27 input    0.00 | X-H torsion
[ 27208 8402 8401 8400 ] final -169.56 input    0.00 | X-H torsion
[ 27211 8492 8491 8490 ] final -134.38 input   -0.00 | X-H torsion
[ 27220 8234 8233 8232 ] final   70.60 input    0.00 | X-H torsion
[ 27222 8162 8161 8160 ] final  -13.82 input    0.00 | X-H torsion
[ 27225 10312 10311 10310 ] final  117.04 input    0.00 | X-H torsion

> <Gold.Protein.ActiveResidues>
 ASP403  LEU406  ILE407  VAL431  PHE432  ASP433  ALA434  ARG435  ASP436  CYS437 
 TYR446  ASN449  THR465  ILE466 

> <Gold.Protein.RotatedAtoms>
  219.0951   46.1394   11.0886 H   0  0  0  0  0  0  0  0  0  0  0  0  # atno 8253 bound_to 8231
  216.3233   46.7688   10.8223 H   0  0  0  0  0  0  0  0  0  0  0  0  # atno 8321 bound_to 8305
  213.4602   43.8188   10.6668 H   0  0  0  0  0  0  0  0  0  0  0  0  # atno 8357 bound_to 8347
  210.3759   45.0903   10.2594 H   0  0  0  0  0  0  0  0  0  0  0  0  # atno 8421 bound_to 8399
  207.7766   45.1672   10.5373 H   0  0  0  0  0  0  0  0  0  0  0  0  # atno 8505 bound_to 8489
  206.7122   44.1075    7.5448 H   0  0  0  0  0  0  0  0  0  0  0  0  # atno 8545 bound_to 8533
  211.0368   45.7898    7.0916 H   0  0  0  0  0  0  0  0  0  0  0  0  # atno 9073 bound_to 9052
  215.2367   41.4844   10.4714 H   0  0  0  0  0  0  0  0  0  0  0  0  # atno 10325 bound_to 10309
  215.6863   45.9163    9.4328 LP  0  0  0  0  0  0  0  0  0  0  0  0  # atno 27197 bound_to 8305
  212.9228   47.4604    9.3141 LP  0  0  0  0  0  0  0  0  0  0  0  0  # atno 27198 bound_to 8308
  212.4356   46.1234    8.3267 LP  0  0  0  0  0  0  0  0  0  0  0  0  # atno 27199 bound_to 8308
  212.9337   45.4225   10.2108 LP  0  0  0  0  0  0  0  0  0  0  0  0  # atno 27204 bound_to 8347
  209.4688   42.7655    8.3935 LP  0  0  0  0  0  0  0  0  0  0  0  0  # atno 27205 bound_to 8350
  209.7856   41.7906    9.7897 LP  0  0  0  0  0  0  0  0  0  0  0  0  # atno 27206 bound_to 8350
  210.9908   43.5846   10.9005 LP  0  0  0  0  0  0  0  0  0  0  0  0  # atno 27207 bound_to 8399
  205.7968   44.1562   10.4720 LP  0  0  0  0  0  0  0  0  0  0  0  0  # atno 27208 bound_to 8402
  206.4873   43.6863   11.9894 LP  0  0  0  0  0  0  0  0  0  0  0  0  # atno 27209 bound_to 8402
  208.7418   44.7693    9.1348 LP  0  0  0  0  0  0  0  0  0  0  0  0  # atno 27210 bound_to 8489
  204.9727   43.6735    6.6479 LP  0  0  0  0  0  0  0  0  0  0  0  0  # atno 27211 bound_to 8492
  205.4339   45.3147    6.3418 LP  0  0  0  0  0  0  0  0  0  0  0  0  # atno 27212 bound_to 8492
  207.9304   43.2074    8.4195 LP  0  0  0  0  0  0  0  0  0  0  0  0  # atno 27217 bound_to 8533
  210.2445   45.8559    5.6717 LP  0  0  0  0  0  0  0  0  0  0  0  0  # atno 27218 bound_to 9052
  211.6706   46.6309    5.8511 LP  0  0  0  0  0  0  0  0  0  0  0  0  # atno 27219 bound_to 9052
  216.6212   43.7438   11.3659 LP  0  0  0  0  0  0  0  0  0  0  0  0  # atno 27220 bound_to 8234
  215.4650   43.5562   10.0899 LP  0  0  0  0  0  0  0  0  0  0  0  0  # atno 27221 bound_to 8234
  219.0762   48.2428   11.7580 LP  0  0  0  0  0  0  0  0  0  0  0  0  # atno 27222 bound_to 8162
  218.3207   47.7996   10.2638 LP  0  0  0  0  0  0  0  0  0  0  0  0  # atno 27223 bound_to 8162
  219.2020   44.4766   10.5721 LP  0  0  0  0  0  0  0  0  0  0  0  0  # atno 27224 bound_to 8231
  212.3947   42.3829   10.8260 LP  0  0  0  0  0  0  0  0  0  0  0  0  # atno 27225 bound_to 10312
  212.5612   42.7849   12.5025 LP  0  0  0  0  0  0  0  0  0  0  0  0  # atno 27226 bound_to 10312

> <Gold.Score>
     Fitness  S(hb_ext) S(vdw_ext)  S(hb_int)    S(int)      intcor
     32.41       2.21      22.37       0.00      -0.55      -0.76

> <Gold.Goldscore.Fitness>
32.4080

> <Gold.Goldscore.Internal.Vdw>
-0.7277

> <Gold.Goldscore.Internal.Torsion>
-0.5828

> <Gold.Goldscore.External.Vdw>
22.3652

> <Gold.Goldscore.Internal.HBond>
0.0000

> <Gold.Goldscore.External.HBond>
2.2091

> <Gold.Goldscore.Internal.Correction>
-0.7573

> <Gold.Goldscore.Hbonds>
donor molecule, donor type, donor heavy atom, donor atom, acceptor molecule, acceptor atom, score
      P1  H  8409  8432       L1     9  0.37

> <Gold.Goldscore.Internal.Vdw.Weighted>
-0.7277

> <Gold.Goldscore.Internal.Torsion.Weighted>
-0.5828

> <Gold.Goldscore.External.Vdw.Weighted>
30.7521

> <Gold.Goldscore.Internal.HBond.Weighted>
0.0000

> <Gold.Goldscore.External.HBond.Weighted>
2.2091

> <Gold.Goldscore.Internal.Correction.Weighted>
-0.7573

> <Gold.Rescore>
     Score     S(PLP)   S(hbond)     S(cho)   S(metal)  DE(clash)   DE(tors)     intcor
     17.68     -18.37       0.52       0.00       0.00       0.00       1.13       ----

> <Gold.PLP.Fitness>
17.6850

> <Gold.PLP.PLP>
-18.3703

> <Gold.PLP.part.hbond>
-1.0000

> <Gold.PLP.part.metal>
0.0000

> <Gold.PLP.part.buried>
-5.5914

> <Gold.PLP.part.nonpolar>
-14.7026

> <Gold.PLP.part.repulsive>
3.1211

> <Gold.PLP.ligand.clash>
0.0000

> <Gold.PLP.ligand.torsion>
1.1277

> <Gold.PLP.Chemscore.Hbond>
0.5234

> <Gold.PLP.Chemscore.CHOScore>
0.0000

> <Gold.PLP.Chemscore.Metal>
0.0000

> <Gold.Chemscore.Hbonds>
donor molecule, donor type, donor heavy atom, donor atom, acceptor molecule, acceptor atom, score
      P1  H  8409  8432       L1     9  1.00

> <Gold.PLP.Chemscore.Internal.Correction>
   9.000000E+99

