#       Name:                CT1002167954
#       Creating user name   hitesit
#       Creation time:       Sun Apr 16 23:04:39 2023


#       File generated by GOLD software.
#

@<TRIPOS>MOLECULE
CT1002167954|ligand_prepared|mol2|1|dock2
    29    30     1
SMALL
NO_CHARGES


@<TRIPOS>ATOM
      1 C1         212.4773  49.8879   7.9069 C.3            1 RES1               0.0000
      2 C2         211.4964  49.1420   8.8344 C.ar           1 RES1               0.0000
      3 C3         213.8265  49.8859   8.6197 C.2            1 RES1               0.0000
      4 C4         212.4719  49.1312   6.5833 C.2            1 RES1               0.0000
      5 C5         212.0750  51.3534   7.6210 C.3            1 RES1               0.0000
      6 C6         211.0318  49.7398  10.0021 C.ar           1 RES1               0.0000
      7 C7         211.0460  47.8590   8.5349 C.ar           1 RES1               0.0000
      8 N8         214.7938  49.0534   8.1390 N.am           1 RES1               0.0000
      9 O9         214.0257  50.5751   9.6125 O.2            1 RES1               0.0000
     10 N10        213.6257  48.4986   6.2006 N.am           1 RES1               0.0000
     11 O11        211.4740  49.0631   5.8763 O.2            1 RES1               0.0000
     12 C12        212.9500  52.0382   6.5830 C.3            1 RES1               0.0000
     13 C13        210.1466  49.0801  10.8385 C.ar           1 RES1               0.0000
     14 C14        210.1610  47.2010   9.3729 C.ar           1 RES1               0.0000
     15 C15        214.7771  48.3997   6.9331 C.2            1 RES1               0.0000
     16 C16        209.7103  47.8107  10.5244 C.ar           1 RES1               0.0000
     17 O17        215.7550  47.7670   6.5452 O.2            1 RES1               0.0000
     18 H18        211.0345  51.3727   7.2739 H              1 RES1               0.0000
     19 H19        212.1266  51.9228   8.5573 H              1 RES1               0.0000
     20 H20        211.3660  50.7373  10.2670 H              1 RES1               0.0000
     21 H21        211.3881  47.3594   7.6348 H              1 RES1               0.0000
     22 H22        215.6046  48.9029   8.7309 H              1 RES1               0.0000
     23 H23        213.6262  48.0610   5.2847 H              1 RES1               0.0000
     24 H24        212.6248  53.0636   6.4202 H              1 RES1               0.0000
     25 H25        213.9884  52.0594   6.9073 H              1 RES1               0.0000
     26 H26        212.9028  51.5126   5.6315 H              1 RES1               0.0000
     27 H27        209.7959  49.5638  11.7443 H              1 RES1               0.0000
     28 H28        209.8207  46.2018   9.1220 H              1 RES1               0.0000
     29 H29        209.0165  47.2943  11.1796 H              1 RES1               0.0000
@<TRIPOS>BOND
    1    1    2 1     
    2    1    3 1     
    3    1    4 1     
    4    1    5 1     
    5    2    6 ar    
    6    2    7 ar    
    7    3    8 1     
    8    3    9 2     
    9    4   10 1     
   10    4   11 2     
   11    5   12 1     
   12    5   18 1     
   13    5   19 1     
   14    6   13 ar    
   15    6   20 1     
   16    7   14 ar    
   17    7   21 1     
   18    8   15 1     
   19    8   22 1     
   20   10   15 1     
   21   10   23 1     
   22   12   24 1     
   23   12   25 1     
   24   12   26 1     
   25   13   16 ar    
   26   13   27 1     
   27   14   16 ar    
   28   14   28 1     
   29   15   17 2     
   30   16   29 1     
@<TRIPOS>SUBSTRUCTURE
      1 RES1           1
@<TRIPOS>SET
DONOR_HYDROGENS      STATIC     ATOMS    <user>   **** ""
2 22 23
ATOM$RED        STATIC     ATOMS    COLORGROUP SYSTEM
2 22 23
@<TRIPOS>COMMENT
> <Gold.Version>
2022.3.0

> <Gold.Id.Protein>
unknown|4d1n_clean|pdb

> <Gold.Protein.RotatedTorsions>
[ 8321 8305 8306 8307 ] final   71.16 input   94.69 | X-H torsion
[ 8357 8347 8348 8349 ] final -115.00 input   68.57 | X-H torsion
[ 8421 8399 8400 8401 ] final  -28.87 input  113.07 | X-H torsion
[ 8505 8489 8490 8491 ] final -139.00 input   89.94 | X-H torsion
[ 8545 8533 8534 8535 ] final   88.30 input  110.24 | X-H torsion
[ 9073 9052 9051 9049 ] final  144.11 input   60.00 | X-H torsion
[ 8253 8231 8232 8233 ] final   30.05 input   84.65 | X-H torsion
[ 10325 10309 10310 10311 ] final  105.82 input   62.15 | X-H torsion
[ 27198 8308 8307 8306 ] final -153.16 input   -0.00 | X-H torsion
[ 27205 8350 8349 8348 ] final  -77.06 input    0.00 | X-H torsion
[ 27208 8402 8401 8400 ] final  104.96 input    0.00 | X-H torsion
[ 27211 8492 8491 8490 ] final  148.08 input   -0.00 | X-H torsion
[ 27220 8234 8233 8232 ] final  -99.96 input    0.00 | X-H torsion
[ 27222 8162 8161 8160 ] final   87.93 input    0.00 | X-H torsion
[ 27225 10312 10311 10310 ] final  103.95 input    0.00 | X-H torsion

> <Gold.Protein.ActiveResidues>
 ASP403  LEU406  ILE407  VAL431  PHE432  ASP433  ALA434  ARG435  ASP436  CYS437 
 TYR446  ASN449  THR465  ILE466 

> <Gold.Protein.RotatedAtoms>
  218.6724   44.6682   11.2047 H   0  0  0  0  0  0  0  0  0  0  0  0  # atno 8253 bound_to 8231
  215.6858   47.0527    9.6940 H   0  0  0  0  0  0  0  0  0  0  0  0  # atno 8321 bound_to 8305
  213.1997   45.3844    9.9697 H   0  0  0  0  0  0  0  0  0  0  0  0  # atno 8357 bound_to 8347
  210.2918   44.1924    9.8036 H   0  0  0  0  0  0  0  0  0  0  0  0  # atno 8421 bound_to 8399
  207.8196   45.2769   10.5259 H   0  0  0  0  0  0  0  0  0  0  0  0  # atno 8505 bound_to 8489
  207.7359   43.0933    8.5457 H   0  0  0  0  0  0  0  0  0  0  0  0  # atno 8545 bound_to 8533
  210.3509   45.9686    5.5280 H   0  0  0  0  0  0  0  0  0  0  0  0  # atno 9073 bound_to 9052
  216.0405   42.2538   11.4720 H   0  0  0  0  0  0  0  0  0  0  0  0  # atno 10325 bound_to 10309
  216.3034   45.6416   10.5249 LP  0  0  0  0  0  0  0  0  0  0  0  0  # atno 27197 bound_to 8305
  211.9445   46.3365    8.7667 LP  0  0  0  0  0  0  0  0  0  0  0  0  # atno 27198 bound_to 8308
  213.4139   47.2473    8.8740 LP  0  0  0  0  0  0  0  0  0  0  0  0  # atno 27199 bound_to 8308
  213.1874   43.8976   10.8897 LP  0  0  0  0  0  0  0  0  0  0  0  0  # atno 27204 bound_to 8347
  209.3994   42.7969    8.4367 LP  0  0  0  0  0  0  0  0  0  0  0  0  # atno 27205 bound_to 8350
  209.8550   41.7592    9.7465 LP  0  0  0  0  0  0  0  0  0  0  0  0  # atno 27206 bound_to 8350
  211.0728   44.4596   11.3447 LP  0  0  0  0  0  0  0  0  0  0  0  0  # atno 27207 bound_to 8399
  205.9813   44.7354   11.4783 LP  0  0  0  0  0  0  0  0  0  0  0  0  # atno 27208 bound_to 8402
  206.3028   43.1071   10.9832 LP  0  0  0  0  0  0  0  0  0  0  0  0  # atno 27209 bound_to 8402
  208.6999   44.6624    9.1459 LP  0  0  0  0  0  0  0  0  0  0  0  0  # atno 27210 bound_to 8489
  205.6662   44.0573    5.9076 LP  0  0  0  0  0  0  0  0  0  0  0  0  # atno 27211 bound_to 8492
  204.7404   44.9309    7.0822 LP  0  0  0  0  0  0  0  0  0  0  0  0  # atno 27212 bound_to 8492
  206.9352   44.1933    7.4465 LP  0  0  0  0  0  0  0  0  0  0  0  0  # atno 27217 bound_to 8533
  211.7552   46.6089    6.0440 LP  0  0  0  0  0  0  0  0  0  0  0  0  # atno 27218 bound_to 9052
  210.8503   45.6979    7.0529 LP  0  0  0  0  0  0  0  0  0  0  0  0  # atno 27219 bound_to 9052
  215.5748   43.5068   10.0136 LP  0  0  0  0  0  0  0  0  0  0  0  0  # atno 27220 bound_to 8234
  216.5113   43.7933   11.4422 LP  0  0  0  0  0  0  0  0  0  0  0  0  # atno 27221 bound_to 8234
  219.3373   48.1585   10.4426 LP  0  0  0  0  0  0  0  0  0  0  0  0  # atno 27222 bound_to 8162
  218.0595   47.8840   11.5792 LP  0  0  0  0  0  0  0  0  0  0  0  0  # atno 27223 bound_to 8162
  219.6191   45.9285   10.4576 LP  0  0  0  0  0  0  0  0  0  0  0  0  # atno 27224 bound_to 8231
  212.5728   42.4670   10.8114 LP  0  0  0  0  0  0  0  0  0  0  0  0  # atno 27225 bound_to 10312
  212.3832   42.7008   12.5171 LP  0  0  0  0  0  0  0  0  0  0  0  0  # atno 27226 bound_to 10312

> <Gold.Score>
     Fitness  S(hb_ext) S(vdw_ext)  S(hb_int)    S(int)      intcor
     26.61       0.00      20.38       0.00      -1.42      -0.76

> <Gold.Goldscore.Fitness>
26.6133

> <Gold.Goldscore.Internal.Vdw>
-1.7376

> <Gold.Goldscore.Internal.Torsion>
-0.4350

> <Gold.Goldscore.External.Vdw>
20.3844

> <Gold.Goldscore.Internal.HBond>
0.0000

> <Gold.Goldscore.External.HBond>
0.0000

> <Gold.Goldscore.Internal.Correction>
-0.7573

> <Gold.Goldscore.Internal.Vdw.Weighted>
-1.7376

> <Gold.Goldscore.Internal.Torsion.Weighted>
-0.4350

> <Gold.Goldscore.External.Vdw.Weighted>
28.0286

> <Gold.Goldscore.Internal.HBond.Weighted>
0.0000

> <Gold.Goldscore.External.HBond.Weighted>
0.0000

> <Gold.Goldscore.Internal.Correction.Weighted>
-0.7573

> <Gold.Rescore>
     Score     S(PLP)   S(hbond)     S(cho)   S(metal)  DE(clash)   DE(tors)     intcor
     22.89     -24.19       0.12       0.00       0.00       0.00       0.82       ----

> <Gold.PLP.Fitness>
22.8945

> <Gold.PLP.PLP>
-24.1945

> <Gold.PLP.part.hbond>
-5.2130

> <Gold.PLP.part.metal>
0.0000

> <Gold.PLP.part.buried>
0.7928

> <Gold.PLP.part.nonpolar>
-22.4350

> <Gold.PLP.part.repulsive>
0.3843

> <Gold.PLP.ligand.clash>
0.0000

> <Gold.PLP.ligand.torsion>
0.8241

> <Gold.PLP.Chemscore.Hbond>
0.1161

> <Gold.PLP.Chemscore.CHOScore>
0.0000

> <Gold.PLP.Chemscore.Metal>
0.0000

> <Gold.PLP.Chemscore.Internal.Correction>
   9.000000E+99

