#       Name:                CT1002167954
#       Creating user name   hitesit
#       Creation time:       Sun Apr 16 23:04:39 2023


#       File generated by GOLD software.
#

@<TRIPOS>MOLECULE
CT1002167954|ligand_prepared|mol2|1|dock3
    29    30     1
SMALL
NO_CHARGES


@<TRIPOS>ATOM
      1 C1         212.3843  49.9833   8.3590 C.3            1 RES1               0.0000
      2 C2         211.3393  49.1109   9.0840 C.ar           1 RES1               0.0000
      3 C3         213.6908  49.8158   9.1291 C.2            1 RES1               0.0000
      4 C4         212.4398  49.4768   6.9220 C.2            1 RES1               0.0000
      5 C5         212.0253  51.4871   8.3219 C.3            1 RES1               0.0000
      6 C6         210.9675  47.8736   8.5667 C.ar           1 RES1               0.0000
      7 C7         210.7415  49.5279  10.2703 C.ar           1 RES1               0.0000
      8 N8         214.6685  49.0562   8.5571 N.am           1 RES1               0.0000
      9 O9         213.8462  50.3098  10.2391 O.2            1 RES1               0.0000
     10 N10        213.6016  48.8910   6.4920 N.am           1 RES1               0.0000
     11 O11        211.4822  49.5646   6.1632 O.2            1 RES1               0.0000
     12 C12        212.9136  52.3069   7.3996 C.3            1 RES1               0.0000
     13 C13        210.0340  47.0806   9.2134 C.ar           1 RES1               0.0000
     14 C14        209.8081  48.7334  10.9153 C.ar           1 RES1               0.0000
     15 C15        214.7079  48.6302   7.2538 C.2            1 RES1               0.0000
     16 C16        209.4541  47.5097  10.3882 C.ar           1 RES1               0.0000
     17 O17        215.6946  48.0502   6.8095 O.2            1 RES1               0.0000
     18 H18        210.9835  51.5934   7.9953 H              1 RES1               0.0000
     19 H19        212.1012  51.8933   9.3381 H              1 RES1               0.0000
     20 H20        211.4114  47.5203   7.6419 H              1 RES1               0.0000
     21 H21        211.0038  50.4875  10.7028 H              1 RES1               0.0000
     22 H22        215.4417  48.7794   9.1535 H              1 RES1               0.0000
     23 H23        213.6459  48.6250   5.5135 H              1 RES1               0.0000
     24 H24        212.6191  53.3542   7.4109 H              1 RES1               0.0000
     25 H25        213.9544  52.2443   7.7103 H              1 RES1               0.0000
     26 H26        212.8434  51.9462   6.3755 H              1 RES1               0.0000
     27 H27        209.7579  46.1189   8.7937 H              1 RES1               0.0000
     28 H28        209.3537  49.0754  11.8393 H              1 RES1               0.0000
     29 H29        208.7232  46.8881  10.8948 H              1 RES1               0.0000
@<TRIPOS>BOND
    1    1    2 1     
    2    1    3 1     
    3    1    4 1     
    4    1    5 1     
    5    2    6 ar    
    6    2    7 ar    
    7    3    8 1     
    8    3    9 2     
    9    4   10 1     
   10    4   11 2     
   11    5   12 1     
   12    5   18 1     
   13    5   19 1     
   14    6   13 ar    
   15    6   20 1     
   16    7   14 ar    
   17    7   21 1     
   18    8   15 1     
   19    8   22 1     
   20   10   15 1     
   21   10   23 1     
   22   12   24 1     
   23   12   25 1     
   24   12   26 1     
   25   13   16 ar    
   26   13   27 1     
   27   14   16 ar    
   28   14   28 1     
   29   15   17 2     
   30   16   29 1     
@<TRIPOS>SUBSTRUCTURE
      1 RES1           1
@<TRIPOS>SET
DONOR_HYDROGENS      STATIC     ATOMS    <user>   **** ""
2 22 23
ATOM$RED        STATIC     ATOMS    COLORGROUP SYSTEM
2 22 23
@<TRIPOS>COMMENT
> <Gold.Version>
2022.3.0

> <Gold.Id.Protein>
unknown|4d1n_clean|pdb

> <Gold.Protein.RotatedTorsions>
[ 8321 8305 8306 8307 ] final -152.79 input   94.69 | X-H torsion
[ 8357 8347 8348 8349 ] final  -84.02 input   68.57 | X-H torsion
[ 8421 8399 8400 8401 ] final  123.26 input  113.07 | X-H torsion
[ 8505 8489 8490 8491 ] final  -41.87 input   89.94 | X-H torsion
[ 8545 8533 8534 8535 ] final  147.03 input  110.24 | X-H torsion
[ 9073 9052 9051 9049 ] final   76.55 input   60.00 | X-H torsion
[ 8253 8231 8232 8233 ] final  -80.03 input   84.65 | X-H torsion
[ 10325 10309 10310 10311 ] final   71.65 input   62.15 | X-H torsion
[ 27198 8308 8307 8306 ] final  -58.95 input   -0.00 | X-H torsion
[ 27205 8350 8349 8348 ] final   -4.57 input    0.00 | X-H torsion
[ 27208 8402 8401 8400 ] final -164.05 input    0.00 | X-H torsion
[ 27211 8492 8491 8490 ] final  130.71 input   -0.00 | X-H torsion
[ 27220 8234 8233 8232 ] final -121.88 input    0.00 | X-H torsion
[ 27222 8162 8161 8160 ] final   21.12 input    0.00 | X-H torsion
[ 27225 10312 10311 10310 ] final    5.26 input    0.00 | X-H torsion

> <Gold.Protein.ActiveResidues>
 ASP403  LEU406  ILE407  VAL431  PHE432  ASP433  ALA434  ARG435  ASP436  CYS437 
 TYR446  ASN449  THR465  ILE466 

> <Gold.Protein.RotatedAtoms>
  218.9730   46.0756   11.2060 H   0  0  0  0  0  0  0  0  0  0  0  0  # atno 8253 bound_to 8231
  216.4186   46.1775   10.8846 H   0  0  0  0  0  0  0  0  0  0  0  0  # atno 8321 bound_to 8305
  212.8428   45.4290   10.2771 H   0  0  0  0  0  0  0  0  0  0  0  0  # atno 8357 bound_to 8347
  210.9440   44.8501   11.2513 H   0  0  0  0  0  0  0  0  0  0  0  0  # atno 8421 bound_to 8399
  207.9668   44.1326    9.8677 H   0  0  0  0  0  0  0  0  0  0  0  0  # atno 8505 bound_to 8489
  208.2121   43.5599    7.9872 H   0  0  0  0  0  0  0  0  0  0  0  0  # atno 8545 bound_to 8533
  211.2225   46.5264    5.4125 H   0  0  0  0  0  0  0  0  0  0  0  0  # atno 9073 bound_to 9052
  215.6415   42.3232   11.1413 H   0  0  0  0  0  0  0  0  0  0  0  0  # atno 10325 bound_to 10309
  215.5941   46.4887    9.3725 LP  0  0  0  0  0  0  0  0  0  0  0  0  # atno 27197 bound_to 8305
  212.3852   47.3134    9.4462 LP  0  0  0  0  0  0  0  0  0  0  0  0  # atno 27198 bound_to 8308
  212.9732   46.2704    8.1946 LP  0  0  0  0  0  0  0  0  0  0  0  0  # atno 27199 bound_to 8308
  213.5350   43.8542   10.5903 LP  0  0  0  0  0  0  0  0  0  0  0  0  # atno 27204 bound_to 8347
  210.2030   42.1624    8.4551 LP  0  0  0  0  0  0  0  0  0  0  0  0  # atno 27205 bound_to 8350
  209.0514   42.3937    9.7281 LP  0  0  0  0  0  0  0  0  0  0  0  0  # atno 27206 bound_to 8350
  210.4371   43.8187    9.9339 LP  0  0  0  0  0  0  0  0  0  0  0  0  # atno 27207 bound_to 8399
  205.8112   44.0786   10.4460 LP  0  0  0  0  0  0  0  0  0  0  0  0  # atno 27208 bound_to 8402
  206.4728   43.7640   12.0155 LP  0  0  0  0  0  0  0  0  0  0  0  0  # atno 27209 bound_to 8402
  208.5566   45.7766    9.7867 LP  0  0  0  0  0  0  0  0  0  0  0  0  # atno 27210 bound_to 8489
  205.7461   44.2993    5.8488 LP  0  0  0  0  0  0  0  0  0  0  0  0  # atno 27211 bound_to 8492
  204.6605   44.6889    7.1410 LP  0  0  0  0  0  0  0  0  0  0  0  0  # atno 27212 bound_to 8492
  206.4722   43.7397    7.9894 LP  0  0  0  0  0  0  0  0  0  0  0  0  # atno 27217 bound_to 8533
  211.5479   46.1443    6.9605 LP  0  0  0  0  0  0  0  0  0  0  0  0  # atno 27218 bound_to 9052
  210.1803   45.6011    6.2526 LP  0  0  0  0  0  0  0  0  0  0  0  0  # atno 27219 bound_to 9052
  215.3443   43.6251   10.2169 LP  0  0  0  0  0  0  0  0  0  0  0  0  # atno 27220 bound_to 8234
  216.7418   43.6749   11.2389 LP  0  0  0  0  0  0  0  0  0  0  0  0  # atno 27221 bound_to 8234
  219.4269   48.3096   11.3799 LP  0  0  0  0  0  0  0  0  0  0  0  0  # atno 27222 bound_to 8162
  217.9699   47.7329   10.6419 LP  0  0  0  0  0  0  0  0  0  0  0  0  # atno 27223 bound_to 8162
  219.3224   44.5397   10.4563 LP  0  0  0  0  0  0  0  0  0  0  0  0  # atno 27224 bound_to 8231
  213.2300   42.9817   11.8262 LP  0  0  0  0  0  0  0  0  0  0  0  0  # atno 27225 bound_to 10312
  211.7259   42.1861   11.5023 LP  0  0  0  0  0  0  0  0  0  0  0  0  # atno 27226 bound_to 10312

> <Gold.Score>
     Fitness  S(hb_ext) S(vdw_ext)  S(hb_int)    S(int)      intcor
     27.64       0.00      21.09       0.00      -1.35      -0.76

> <Gold.Goldscore.Fitness>
27.6391

> <Gold.Goldscore.Internal.Vdw>
-1.5742

> <Gold.Goldscore.Internal.Torsion>
-0.5376

> <Gold.Goldscore.External.Vdw>
21.0862

> <Gold.Goldscore.Internal.HBond>
0.0000

> <Gold.Goldscore.External.HBond>
0.0000

> <Gold.Goldscore.Internal.Correction>
-0.7573

> <Gold.Goldscore.Internal.Vdw.Weighted>
-1.5742

> <Gold.Goldscore.Internal.Torsion.Weighted>
-0.5376

> <Gold.Goldscore.External.Vdw.Weighted>
28.9936

> <Gold.Goldscore.Internal.HBond.Weighted>
0.0000

> <Gold.Goldscore.External.HBond.Weighted>
0.0000

> <Gold.Goldscore.Internal.Correction.Weighted>
-0.7573

> <Gold.Rescore>
     Score     S(PLP)   S(hbond)     S(cho)   S(metal)  DE(clash)   DE(tors)     intcor
     21.65     -23.77       0.13       0.00       0.00       0.77       0.87       ----

> <Gold.PLP.Fitness>
21.6465

> <Gold.PLP.PLP>
-23.7689

> <Gold.PLP.part.hbond>
-3.9641

> <Gold.PLP.part.metal>
0.0000

> <Gold.PLP.part.buried>
0.4902

> <Gold.PLP.part.nonpolar>
-22.2690

> <Gold.PLP.part.repulsive>
0.7372

> <Gold.PLP.ligand.clash>
0.7684

> <Gold.PLP.ligand.torsion>
0.8704

> <Gold.PLP.Chemscore.Hbond>
0.1290

> <Gold.PLP.Chemscore.CHOScore>
0.0000

> <Gold.PLP.Chemscore.Metal>
0.0000

> <Gold.PLP.Chemscore.Internal.Correction>
   9.000000E+99

