#       Name:                CT1002167954
#       Creating user name   hitesit
#       Creation time:       Sun Apr 16 22:57:22 2023


#       File generated by GOLD software.
#

@<TRIPOS>MOLECULE
CT1002167954|ligand_prepared|mol2|1|dock4
    29    30     1
SMALL
NO_CHARGES


@<TRIPOS>ATOM
      1 C1         137.1249 132.0056 169.4055 C.3            1 RES1               0.0000
      2 C2         135.9238 132.4100 168.5265 C.ar           1 RES1               0.0000
      3 C3         138.1553 133.1220 169.2630 C.2            1 RES1               0.0000
      4 C4         136.5810 131.8378 170.8200 C.2            1 RES1               0.0000
      5 C5         137.7850 130.6715 168.9862 C.3            1 RES1               0.0000
      6 C6         135.4508 133.7188 168.5317 C.ar           1 RES1               0.0000
      7 C7         135.2815 131.4877 167.7047 C.ar           1 RES1               0.0000
      8 N8         138.3147 133.9729 170.3168 N.am           1 RES1               0.0000
      9 O9         138.7899 133.2774 168.2270 O.2            1 RES1               0.0000
     10 N10        137.0153 132.7110 171.7827 N.am           1 RES1               0.0000
     11 O11        135.7675 130.9679 171.1059 O.2            1 RES1               0.0000
     12 C12        139.0864 130.3756 169.7149 C.3            1 RES1               0.0000
     13 C13        134.3764 134.0928 167.7417 C.ar           1 RES1               0.0000
     14 C14        134.2070 131.8638 166.9156 C.ar           1 RES1               0.0000
     15 C15        137.8340 133.7900 171.5885 C.2            1 RES1               0.0000
     16 C16        133.7541 133.1658 166.9329 C.ar           1 RES1               0.0000
     17 O17        138.1364 134.5617 172.4940 O.2            1 RES1               0.0000
     18 H18        137.0796 129.8532 169.1768 H              1 RES1               0.0000
     19 H19        137.9828 130.6991 167.9075 H              1 RES1               0.0000
     20 H20        135.9262 134.4615 169.1636 H              1 RES1               0.0000
     21 H21        135.6199 130.4576 167.6758 H              1 RES1               0.0000
     22 H22        138.8399 134.8240 170.1432 H              1 RES1               0.0000
     23 H23        136.6991 132.5407 172.7321 H              1 RES1               0.0000
     24 H24        139.5073 129.4287 169.3834 H              1 RES1               0.0000
     25 H25        139.8199 131.1568 169.5270 H              1 RES1               0.0000
     26 H26        138.9221 130.3160 170.7888 H              1 RES1               0.0000
     27 H27        134.0229 135.1184 167.7599 H              1 RES1               0.0000
     28 H28        133.7199 131.1308 166.2811 H              1 RES1               0.0000
     29 H29        132.9127 133.4592 166.3139 H              1 RES1               0.0000
@<TRIPOS>BOND
    1    1    2 1     
    2    1    3 1     
    3    1    4 1     
    4    1    5 1     
    5    2    6 ar    
    6    2    7 ar    
    7    3    8 1     
    8    3    9 2     
    9    4   10 1     
   10    4   11 2     
   11    5   12 1     
   12    5   18 1     
   13    5   19 1     
   14    6   13 ar    
   15    6   20 1     
   16    7   14 ar    
   17    7   21 1     
   18    8   15 1     
   19    8   22 1     
   20   10   15 1     
   21   10   23 1     
   22   12   24 1     
   23   12   25 1     
   24   12   26 1     
   25   13   16 ar    
   26   13   27 1     
   27   14   16 ar    
   28   14   28 1     
   29   15   17 2     
   30   16   29 1     
@<TRIPOS>SUBSTRUCTURE
      1 RES1           1
@<TRIPOS>SET
DONOR_HYDROGENS      STATIC     ATOMS    <user>   **** ""
2 22 23
ATOM$RED        STATIC     ATOMS    COLORGROUP SYSTEM
2 22 23
@<TRIPOS>COMMENT
> <Gold.Version>
2022.3.0

> <Gold.Id.Protein>
unknown|7rmh_cavity_clean|pdb

> <Gold.Protein.RotatedTorsions>
[ 1581 1565 1566 1567 ] final -113.74 input  115.26 | X-H torsion
[ 5151 5142 5141 5139 ] final  130.09 input   59.98 | X-H torsion
[ 1669 1661 1660 1658 ] final   94.25 input   59.97 | X-H torsion
[ 5186 5181 5180 5177 ] final   86.58 input   59.99 | X-H torsion
[ 1788 1769 1770 1771 ] final  -31.94 input  122.82 | X-H torsion
[ 1883 1867 1866 1863 ] final  115.40 input   59.99 | X-H torsion
[ 1874 1868 1869 1870 ] final -109.14 input   29.02 | X-H torsion
[ 1878 1873 1872 1869 ] final  143.06 input   60.02 | X-H torsion
[ 6490 6474 6475 6476 ] final -102.79 input  103.68 | X-H torsion
[ 4479 4458 4456 4453 ] final  -46.35 input   59.98 | X-H torsion
[ 4466 4459 4460 4461 ] final  103.19 input   43.99 | X-H torsion
[ 4472 4465 4463 4460 ] final  -59.09 input   60.01 | X-H torsion
[ 4502 4497 4496 4493 ] final  105.36 input   59.97 | X-H torsion
[  675  663  664  665 ] final  -54.42 input  108.58 | X-H torsion
[  692  687  686  683 ] final   57.18 input   59.99 | X-H torsion
[  713  708  707  706 ] final    2.18 input   60.01 | X-H torsion
[ 2432 2427 2428 2429 ] final   93.14 input   99.19 | X-H torsion
[ 2461 2452 2451 2449 ] final   90.39 input   60.00 | X-H torsion
[ 2484 2473 2474 2475 ] final  -30.50 input  111.54 | X-H torsion
[ 1326 1317 1316 1315 ] final  -60.69 input   60.01 | X-H torsion
[ 14725 1568 1567 1566 ] final -101.83 input    0.00 | X-H torsion
[ 14794 1772 1771 1770 ] final  -80.91 input    0.00 | X-H torsion
[ 14817 1871 1870 1869 ] final -145.00 input    0.00 | X-H torsion
[ 14840 6477 6476 6475 ] final  -26.69 input   -0.00 | X-H torsion
[ 14855 4462 4461 4460 ] final  112.28 input    0.00 | X-H torsion
[ 14878  666  665  664 ] final   40.70 input   -0.00 | X-H torsion
[ 14895 2430 2429 2428 ] final  155.98 input    0.00 | X-H torsion
[ 14904 2476 2475 2474 ] final   83.54 input    0.00 | X-H torsion

> <Gold.Protein.ActiveResidues>
 LEU46   GLY47   ALA48   ASP49   ASN50   SER51   LYS53   VAL224  GLY225  GLY226 
 GLN227  ARG228  ASP229  GLU230  ARG231  ARG232  LYS233  TRP234  ILE235  GLN236 
 CYS237  PHE246  VAL247  VAL248  ASP249  ASP252  TYR253  ASN264  ARG265  LEU266 
 GLN267  GLU268  ALA269  LEU270  ASN271  LEU272  LYS274  SER275  ASN278  ASN279 
 ARG280  TRP281  ASP310  TYR311  PHE312  GLU344  ARG347  ILE348  ALA351  ILE18  
 TRP63   THR65   ASP66   SER67   ARG68   LEU69   TYR105  ALA106  PRO107  SER108 
 GLY109  ASN110  CYS149  ARG150  PHE151  ASP154  ASN155  GLN156  LEU192  ALA193 
 PRO194  ASP195  THR196  ARG197  LEU198  VAL200  ILE229  ASN230  ALA231  CYS233 
 PHE235 

> <Gold.Protein.RotatedAtoms>
  125.1155  142.7453  127.6085 H   0  0  0  0  0  0  0  0  0  0  0  0  # atno 675  bound_to 663 
  153.2443  116.0637  167.3691 H   0  0  0  0  0  0  0  0  0  0  0  0  # atno 692  bound_to 687 
  153.0922  121.5951  167.3151 H   0  0  0  0  0  0  0  0  0  0  0  0  # atno 713  bound_to 708 
  153.4662  121.4491  168.9226 H   0  0  0  0  0  0  0  0  0  0  0  0  # atno 714  bound_to 708 
  154.3041  122.5153  167.9703 H   0  0  0  0  0  0  0  0  0  0  0  0  # atno 715  bound_to 708 
  139.5111  135.9434  173.4671 H   0  0  0  0  0  0  0  0  0  0  0  0  # atno 1326 bound_to 1317
  140.6564  135.9286  174.6654 H   0  0  0  0  0  0  0  0  0  0  0  0  # atno 1327 bound_to 1317
  139.6246  137.2178  174.5208 H   0  0  0  0  0  0  0  0  0  0  0  0  # atno 1328 bound_to 1317
  134.2259  122.7393  131.4441 H   0  0  0  0  0  0  0  0  0  0  0  0  # atno 1581 bound_to 1565
  146.8295  100.8319  168.5347 H   0  0  0  0  0  0  0  0  0  0  0  0  # atno 1669 bound_to 1661
  137.5791  135.0275   98.4558 H   0  0  0  0  0  0  0  0  0  0  0  0  # atno 1788 bound_to 1769
  138.0223  146.7873  170.2511 H   0  0  0  0  0  0  0  0  0  0  0  0  # atno 1874 bound_to 1868
  140.3691  148.7041  167.4433 H   0  0  0  0  0  0  0  0  0  0  0  0  # atno 1878 bound_to 1873
  140.4341  123.8462  169.0108 H   0  0  0  0  0  0  0  0  0  0  0  0  # atno 1883 bound_to 1867
  127.4249  131.6639  140.5000 H   0  0  0  0  0  0  0  0  0  0  0  0  # atno 2432 bound_to 2427
  144.3189  101.3191  177.4647 H   0  0  0  0  0  0  0  0  0  0  0  0  # atno 2461 bound_to 2452
  126.1570  136.2632  139.8049 H   0  0  0  0  0  0  0  0  0  0  0  0  # atno 2484 bound_to 2473
  137.4645  143.1551  139.6657 H   0  0  0  0  0  0  0  0  0  0  0  0  # atno 4466 bound_to 4459
  138.4307  142.0538  142.4243 H   0  0  0  0  0  0  0  0  0  0  0  0  # atno 4472 bound_to 4465
  151.6206  162.8208  171.7037 H   0  0  0  0  0  0  0  0  0  0  0  0  # atno 4479 bound_to 4458
  146.8183  166.8150  167.6135 H   0  0  0  0  0  0  0  0  0  0  0  0  # atno 4502 bound_to 4497
  155.5683  162.2979  165.3982 H   0  0  0  0  0  0  0  0  0  0  0  0  # atno 5151 bound_to 5142
  159.3568  163.4466  174.4887 H   0  0  0  0  0  0  0  0  0  0  0  0  # atno 5186 bound_to 5181
  146.2817  138.7094  106.8308 H   0  0  0  0  0  0  0  0  0  0  0  0  # atno 6490 bound_to 6474
  132.9627  121.5347  131.5386 LP  0  0  0  0  0  0  0  0  0  0  0  0  # atno 14724 bound_to 1565
  133.5464  122.6448  127.2254 LP  0  0  0  0  0  0  0  0  0  0  0  0  # atno 14725 bound_to 1568
  134.0893  121.0185  126.9795 LP  0  0  0  0  0  0  0  0  0  0  0  0  # atno 14726 bound_to 1568
  156.7361  161.2939  164.8731 LP  0  0  0  0  0  0  0  0  0  0  0  0  # atno 14737 bound_to 5142
  156.8839  162.0374  166.3195 LP  0  0  0  0  0  0  0  0  0  0  0  0  # atno 14738 bound_to 5142
  145.4679  100.9346  167.6499 LP  0  0  0  0  0  0  0  0  0  0  0  0  # atno 14749 bound_to 1661
  145.5702   99.8593  168.8746 LP  0  0  0  0  0  0  0  0  0  0  0  0  # atno 14750 bound_to 1661
  158.9604  164.9171  173.9155 LP  0  0  0  0  0  0  0  0  0  0  0  0  # atno 14757 bound_to 5181
  160.5274  164.5284  174.1604 LP  0  0  0  0  0  0  0  0  0  0  0  0  # atno 14758 bound_to 5181
  136.1023  134.6080   99.2945 LP  0  0  0  0  0  0  0  0  0  0  0  0  # atno 14793 bound_to 1769
  137.8782  133.8882   94.9821 LP  0  0  0  0  0  0  0  0  0  0  0  0  # atno 14794 bound_to 1772
  136.3347  133.9966   94.2037 LP  0  0  0  0  0  0  0  0  0  0  0  0  # atno 14795 bound_to 1772
  139.9863  122.6638  167.9861 LP  0  0  0  0  0  0  0  0  0  0  0  0  # atno 14814 bound_to 1867
  140.0497  122.3755  169.5922 LP  0  0  0  0  0  0  0  0  0  0  0  0  # atno 14815 bound_to 1867
  137.2590  147.6368  168.9273 LP  0  0  0  0  0  0  0  0  0  0  0  0  # atno 14816 bound_to 1868
  135.9364  150.7728  170.2496 LP  0  0  0  0  0  0  0  0  0  0  0  0  # atno 14817 bound_to 1871
  135.9488  149.0565  170.0169 LP  0  0  0  0  0  0  0  0  0  0  0  0  # atno 14818 bound_to 1871
  140.1272  147.6945  168.6962 LP  0  0  0  0  0  0  0  0  0  0  0  0  # atno 14819 bound_to 1873
  141.2001  148.9188  168.8257 LP  0  0  0  0  0  0  0  0  0  0  0  0  # atno 14820 bound_to 1873
  145.0119  138.8428  105.6486 LP  0  0  0  0  0  0  0  0  0  0  0  0  # atno 14839 bound_to 6474
  143.5088  138.0547  109.8531 LP  0  0  0  0  0  0  0  0  0  0  0  0  # atno 14840 bound_to 6477
  142.2119  137.1327  109.1692 LP  0  0  0  0  0  0  0  0  0  0  0  0  # atno 14841 bound_to 6477
  153.0840  163.3954  172.1233 LP  0  0  0  0  0  0  0  0  0  0  0  0  # atno 14852 bound_to 4458
  152.9127  162.5008  170.7679 LP  0  0  0  0  0  0  0  0  0  0  0  0  # atno 14853 bound_to 4458
  138.4503  144.5951  139.8165 LP  0  0  0  0  0  0  0  0  0  0  0  0  # atno 14854 bound_to 4459
  140.1769  143.7966  137.3186 LP  0  0  0  0  0  0  0  0  0  0  0  0  # atno 14855 bound_to 4462
  139.1906  142.3748  137.3950 LP  0  0  0  0  0  0  0  0  0  0  0  0  # atno 14856 bound_to 4462
  137.7087  140.6616  141.9897 LP  0  0  0  0  0  0  0  0  0  0  0  0  # atno 14857 bound_to 4465
  137.2501  142.0710  141.3043 LP  0  0  0  0  0  0  0  0  0  0  0  0  # atno 14858 bound_to 4465
  146.8971  165.1918  167.5259 LP  0  0  0  0  0  0  0  0  0  0  0  0  # atno 14869 bound_to 4497
  145.4740  165.9570  167.2889 LP  0  0  0  0  0  0  0  0  0  0  0  0  # atno 14870 bound_to 4497
  125.3224  142.8844  125.8819 LP  0  0  0  0  0  0  0  0  0  0  0  0  # atno 14877 bound_to 663 
  128.9438  144.3543  128.6180 LP  0  0  0  0  0  0  0  0  0  0  0  0  # atno 14878 bound_to 666 
  127.7898  145.0146  129.7281 LP  0  0  0  0  0  0  0  0  0  0  0  0  # atno 14879 bound_to 666 
  152.1636  115.7891  168.5538 LP  0  0  0  0  0  0  0  0  0  0  0  0  # atno 14882 bound_to 687 
  151.6566  116.2639  167.0760 LP  0  0  0  0  0  0  0  0  0  0  0  0  # atno 14883 bound_to 687 
  126.7048  132.1041  138.9689 LP  0  0  0  0  0  0  0  0  0  0  0  0  # atno 14894 bound_to 2427
  124.4653  135.5026  141.6298 LP  0  0  0  0  0  0  0  0  0  0  0  0  # atno 14895 bound_to 2430
  123.6430  134.3382  140.6459 LP  0  0  0  0  0  0  0  0  0  0  0  0  # atno 14896 bound_to 2430
  144.9691  102.8105  177.4583 LP  0  0  0  0  0  0  0  0  0  0  0  0  # atno 14899 bound_to 2452
  145.2318  101.7966  176.2055 LP  0  0  0  0  0  0  0  0  0  0  0  0  # atno 14900 bound_to 2452
  127.6685  135.9253  138.9992 LP  0  0  0  0  0  0  0  0  0  0  0  0  # atno 14903 bound_to 2473
  124.0115  137.7811  136.1171 LP  0  0  0  0  0  0  0  0  0  0  0  0  # atno 14904 bound_to 2476
  123.6419  138.4264  137.6814 LP  0  0  0  0  0  0  0  0  0  0  0  0  # atno 14905 bound_to 2476

> <Gold.Score>
     Fitness  S(hb_ext) S(vdw_ext)  S(hb_int)    S(int)      intcor
     37.43       7.47      21.88       0.00      -0.13      -0.76

> <Gold.Goldscore.Fitness>
37.4284

> <Gold.Goldscore.Internal.Vdw>
-0.4045

> <Gold.Goldscore.Internal.Torsion>
-0.4869

> <Gold.Goldscore.External.Vdw>
21.8826

> <Gold.Goldscore.Internal.HBond>
0.0000

> <Gold.Goldscore.External.HBond>
7.4726

> <Gold.Goldscore.Internal.Correction>
-0.7585

> <Gold.Goldscore.Hbonds>
donor molecule, donor type, donor heavy atom, donor atom, acceptor molecule, acceptor atom, score
      P1  H  1381  1390       L1     9  0.74
      P1  H  1317  1326       L1    17  1.00

> <Gold.Goldscore.Internal.Vdw.Weighted>
-0.4045

> <Gold.Goldscore.Internal.Torsion.Weighted>
-0.4869

> <Gold.Goldscore.External.Vdw.Weighted>
30.0886

> <Gold.Goldscore.Internal.HBond.Weighted>
0.0000

> <Gold.Goldscore.External.HBond.Weighted>
7.4726

> <Gold.Goldscore.Internal.Correction.Weighted>
-0.7585

> <Gold.Rescore>
     Score     S(PLP)   S(hbond)     S(cho)   S(metal)  DE(clash)   DE(tors)     intcor
     31.48     -26.38       2.00       0.00       0.00       0.00       0.45       ----

> <Gold.PLP.Fitness>
31.4805

> <Gold.PLP.PLP>
-26.3774

> <Gold.PLP.part.hbond>
-3.9462

> <Gold.PLP.part.metal>
0.0000

> <Gold.PLP.part.buried>
-2.6313

> <Gold.PLP.part.nonpolar>
-21.5125

> <Gold.PLP.part.repulsive>
0.5588

> <Gold.PLP.ligand.clash>
0.0000

> <Gold.PLP.ligand.torsion>
0.4484

> <Gold.PLP.Chemscore.Hbond>
2.0000

> <Gold.PLP.Chemscore.CHOScore>
0.0000

> <Gold.PLP.Chemscore.Metal>
0.0000

> <Gold.Chemscore.Hbonds>
donor molecule, donor type, donor heavy atom, donor atom, acceptor molecule, acceptor atom, score
      P1  H  1381  1390       L1     9  0.86
      P1  H  1317  1326       L1    17  0.80

> <Gold.PLP.Chemscore.Internal.Correction>
   9.000000E+99

#       Name:                CT1002167954
#       Creating user name   hitesit
#       Creation time:       Sun Apr 16 22:58:20 2023


#       File generated by GOLD software.
#

@<TRIPOS>MOLECULE
CT1002167954|ligand_prepared|mol2|1|dock7
    29    30     1
SMALL
NO_CHARGES


@<TRIPOS>ATOM
      1 C1         137.1115 132.4802 170.0166 C.3            1 RES1               0.0000
      2 C2         135.8929 133.2199 169.4280 C.ar           1 RES1               0.0000
      3 C3         138.3151 133.3909 169.7922 C.2            1 RES1               0.0000
      4 C4         136.7884 132.2268 171.4850 C.2            1 RES1               0.0000
      5 C5         137.3969 131.1153 169.3478 C.3            1 RES1               0.0000
      6 C6         135.3750 134.3467 170.0596 C.ar           1 RES1               0.0000
      7 C7         135.2787 132.7899 168.2548 C.ar           1 RES1               0.0000
      8 N8         138.8235 134.0446 170.8757 N.am           1 RES1               0.0000
      9 O9         138.7861 133.5636 168.6748 O.2            1 RES1               0.0000
     10 N10        137.5510 132.8627 172.4293 N.am           1 RES1               0.0000
     11 O11        135.8696 131.4952 171.8326 O.2            1 RES1               0.0000
     12 C12        138.5041 130.3213 170.0228 C.3            1 RES1               0.0000
     13 C13        134.2844 135.0209 169.5358 C.ar           1 RES1               0.0000
     14 C14        134.1880 133.4655 167.7328 C.ar           1 RES1               0.0000
     15 C15        138.5342 133.7840 172.1910 C.2            1 RES1               0.0000
     16 C16        133.6905 134.5811 168.3720 C.ar           1 RES1               0.0000
     17 O17        139.1389 134.3540 173.0946 O.2            1 RES1               0.0000
     18 H18        136.4770 130.5178 169.3583 H              1 RES1               0.0000
     19 H19        137.6735 131.2865 168.3001 H              1 RES1               0.0000
     20 H20        135.8276 134.7061 170.9777 H              1 RES1               0.0000
     21 H21        135.6524 131.9139 167.7355 H              1 RES1               0.0000
     22 H22        139.4794 134.7969 170.6909 H              1 RES1               0.0000
     23 H23        137.3691 132.6273 173.3998 H              1 RES1               0.0000
     24 H24        138.6637 129.3728 169.5143 H              1 RES1               0.0000
     25 H25        139.4403 130.8754 170.0080 H              1 RES1               0.0000
     26 H26        138.2508 130.1113 171.0600 H              1 RES1               0.0000
     27 H27        133.8958 135.8976 170.0434 H              1 RES1               0.0000
     28 H28        133.7234 133.1155 166.8169 H              1 RES1               0.0000
     29 H29        132.8364 135.1097 167.9617 H              1 RES1               0.0000
@<TRIPOS>BOND
    1    1    2 1     
    2    1    3 1     
    3    1    4 1     
    4    1    5 1     
    5    2    6 ar    
    6    2    7 ar    
    7    3    8 1     
    8    3    9 2     
    9    4   10 1     
   10    4   11 2     
   11    5   12 1     
   12    5   18 1     
   13    5   19 1     
   14    6   13 ar    
   15    6   20 1     
   16    7   14 ar    
   17    7   21 1     
   18    8   15 1     
   19    8   22 1     
   20   10   15 1     
   21   10   23 1     
   22   12   24 1     
   23   12   25 1     
   24   12   26 1     
   25   13   16 ar    
   26   13   27 1     
   27   14   16 ar    
   28   14   28 1     
   29   15   17 2     
   30   16   29 1     
@<TRIPOS>SUBSTRUCTURE
      1 RES1           1
@<TRIPOS>SET
DONOR_HYDROGENS      STATIC     ATOMS    <user>   **** ""
2 22 23
ATOM$RED        STATIC     ATOMS    COLORGROUP SYSTEM
2 22 23
@<TRIPOS>COMMENT
> <Gold.Version>
2022.3.0

> <Gold.Id.Protein>
unknown|7rmh_cavity_clean|pdb

> <Gold.Protein.RotatedTorsions>
[ 1581 1565 1566 1567 ] final  -93.35 input  115.26 | X-H torsion
[ 5151 5142 5141 5139 ] final  -86.30 input   59.98 | X-H torsion
[ 1669 1661 1660 1658 ] final  -86.27 input   59.97 | X-H torsion
[ 5186 5181 5180 5177 ] final   44.62 input   59.99 | X-H torsion
[ 1788 1769 1770 1771 ] final  172.42 input  122.82 | X-H torsion
[ 1883 1867 1866 1863 ] final   82.62 input   59.99 | X-H torsion
[ 1874 1868 1869 1870 ] final -160.67 input   29.02 | X-H torsion
[ 1878 1873 1872 1869 ] final -145.25 input   60.02 | X-H torsion
[ 6490 6474 6475 6476 ] final   -6.68 input  103.68 | X-H torsion
[ 4479 4458 4456 4453 ] final  -28.78 input   59.98 | X-H torsion
[ 4466 4459 4460 4461 ] final -116.58 input   43.99 | X-H torsion
[ 4472 4465 4463 4460 ] final -120.90 input   60.01 | X-H torsion
[ 4502 4497 4496 4493 ] final -110.29 input   59.97 | X-H torsion
[  675  663  664  665 ] final   97.07 input  108.58 | X-H torsion
[  692  687  686  683 ] final -110.62 input   59.99 | X-H torsion
[  713  708  707  706 ] final  -31.87 input   60.01 | X-H torsion
[ 2432 2427 2428 2429 ] final   95.49 input   99.19 | X-H torsion
[ 2461 2452 2451 2449 ] final  155.68 input   60.00 | X-H torsion
[ 2484 2473 2474 2475 ] final   18.58 input  111.54 | X-H torsion
[ 1326 1317 1316 1315 ] final   77.87 input   60.01 | X-H torsion
[ 14725 1568 1567 1566 ] final  -24.29 input    0.00 | X-H torsion
[ 14794 1772 1771 1770 ] final   53.77 input    0.00 | X-H torsion
[ 14817 1871 1870 1869 ] final -172.92 input    0.00 | X-H torsion
[ 14840 6477 6476 6475 ] final   97.03 input   -0.00 | X-H torsion
[ 14855 4462 4461 4460 ] final   91.76 input    0.00 | X-H torsion
[ 14878  666  665  664 ] final  123.81 input   -0.00 | X-H torsion
[ 14895 2430 2429 2428 ] final  -16.94 input    0.00 | X-H torsion
[ 14904 2476 2475 2474 ] final   29.60 input    0.00 | X-H torsion

> <Gold.Protein.ActiveResidues>
 LEU46   GLY47   ALA48   ASP49   ASN50   SER51   LYS53   VAL224  GLY225  GLY226 
 GLN227  ARG228  ASP229  GLU230  ARG231  ARG232  LYS233  TRP234  ILE235  GLN236 
 CYS237  PHE246  VAL247  VAL248  ASP249  ASP252  TYR253  ASN264  ARG265  LEU266 
 GLN267  GLU268  ALA269  LEU270  ASN271  LEU272  LYS274  SER275  ASN278  ASN279 
 ARG280  TRP281  ASP310  TYR311  PHE312  GLU344  ARG347  ILE348  ALA351  ILE18  
 TRP63   THR65   ASP66   SER67   ARG68   LEU69   TYR105  ALA106  PRO107  SER108 
 GLY109  ASN110  CYS149  ARG150  PHE151  ASP154  ASN155  GLN156  LEU192  ALA193 
 PRO194  ASP195  THR196  ARG197  LEU198  VAL200  ILE229  ASN230  ALA231  CYS233 
 PHE235 

> <Gold.Protein.RotatedAtoms>
  125.1674  143.2704  125.9906 H   0  0  0  0  0  0  0  0  0  0  0  0  # atno 675  bound_to 663 
  151.5510  115.9539  168.1333 H   0  0  0  0  0  0  0  0  0  0  0  0  # atno 692  bound_to 687 
  153.4536  121.9840  167.1365 H   0  0  0  0  0  0  0  0  0  0  0  0  # atno 713  bound_to 708 
  153.1008  121.2207  168.5642 H   0  0  0  0  0  0  0  0  0  0  0  0  # atno 714  bound_to 708 
  154.3078  122.3546  168.5068 H   0  0  0  0  0  0  0  0  0  0  0  0  # atno 715  bound_to 708 
  140.6392  136.1858  174.8360 H   0  0  0  0  0  0  0  0  0  0  0  0  # atno 1326 bound_to 1317
  139.4295  137.1763  174.2854 H   0  0  0  0  0  0  0  0  0  0  0  0  # atno 1327 bound_to 1317
  139.7231  135.7291  173.5324 H   0  0  0  0  0  0  0  0  0  0  0  0  # atno 1328 bound_to 1317
  134.0023  122.8801  131.2757 H   0  0  0  0  0  0  0  0  0  0  0  0  # atno 1581 bound_to 1565
  145.0861  100.2497  168.1805 H   0  0  0  0  0  0  0  0  0  0  0  0  # atno 1669 bound_to 1661
  136.2729  134.2805   99.3199 H   0  0  0  0  0  0  0  0  0  0  0  0  # atno 1788 bound_to 1769
  138.4064  146.7817  169.5841 H   0  0  0  0  0  0  0  0  0  0  0  0  # atno 1874 bound_to 1868
  141.0866  149.1896  168.1150 H   0  0  0  0  0  0  0  0  0  0  0  0  # atno 1878 bound_to 1873
  140.3702  123.7953  168.4888 H   0  0  0  0  0  0  0  0  0  0  0  0  # atno 1883 bound_to 1867
  127.4098  131.6309  140.4968 H   0  0  0  0  0  0  0  0  0  0  0  0  # atno 2432 bound_to 2427
  144.7575  101.1725  176.5672 H   0  0  0  0  0  0  0  0  0  0  0  0  # atno 2461 bound_to 2452
  126.1762  135.6234  139.4512 H   0  0  0  0  0  0  0  0  0  0  0  0  # atno 2484 bound_to 2473
  138.2404  144.4697  140.3612 H   0  0  0  0  0  0  0  0  0  0  0  0  # atno 4466 bound_to 4459
  138.3292  141.1002  142.4973 H   0  0  0  0  0  0  0  0  0  0  0  0  # atno 4472 bound_to 4465
  151.6337  162.6700  171.4611 H   0  0  0  0  0  0  0  0  0  0  0  0  # atno 4479 bound_to 4458
  145.5803  165.5752  167.2835 H   0  0  0  0  0  0  0  0  0  0  0  0  # atno 4502 bound_to 4497
  157.1079  161.7898  166.1289 H   0  0  0  0  0  0  0  0  0  0  0  0  # atno 5151 bound_to 5142
  158.8222  163.8131  174.3176 H   0  0  0  0  0  0  0  0  0  0  0  0  # atno 5186 bound_to 5181
  145.4350  137.9330  106.2371 H   0  0  0  0  0  0  0  0  0  0  0  0  # atno 6490 bound_to 6474
  133.1807  121.3974  131.7028 LP  0  0  0  0  0  0  0  0  0  0  0  0  # atno 14724 bound_to 1565
  134.5195  122.2145  127.4357 LP  0  0  0  0  0  0  0  0  0  0  0  0  # atno 14725 bound_to 1568
  133.1161  121.4488  126.7693 LP  0  0  0  0  0  0  0  0  0  0  0  0  # atno 14726 bound_to 1568
  155.6670  162.4390  165.7419 LP  0  0  0  0  0  0  0  0  0  0  0  0  # atno 14737 bound_to 5142
  156.4020  161.4041  164.7146 LP  0  0  0  0  0  0  0  0  0  0  0  0  # atno 14738 bound_to 5142
  146.4553  100.1549  169.0544 LP  0  0  0  0  0  0  0  0  0  0  0  0  # atno 14749 bound_to 1661
  146.3391  101.2256  167.8269 LP  0  0  0  0  0  0  0  0  0  0  0  0  # atno 14750 bound_to 1661
  159.5806  165.1774  173.8574 LP  0  0  0  0  0  0  0  0  0  0  0  0  # atno 14757 bound_to 5181
  160.4456  163.8991  174.3908 LP  0  0  0  0  0  0  0  0  0  0  0  0  # atno 14758 bound_to 5181
  137.3706  135.3333   98.4555 LP  0  0  0  0  0  0  0  0  0  0  0  0  # atno 14793 bound_to 1769
  136.3795  133.4723   94.6141 LP  0  0  0  0  0  0  0  0  0  0  0  0  # atno 14794 bound_to 1772
  137.8335  134.4125   94.5717 LP  0  0  0  0  0  0  0  0  0  0  0  0  # atno 14795 bound_to 1772
  139.8922  122.2502  168.3072 LP  0  0  0  0  0  0  0  0  0  0  0  0  # atno 14814 bound_to 1867
  140.2081  122.8404  169.7967 LP  0  0  0  0  0  0  0  0  0  0  0  0  # atno 14815 bound_to 1867
  136.8845  147.6422  169.5775 LP  0  0  0  0  0  0  0  0  0  0  0  0  # atno 14816 bound_to 1868
  135.8043  150.6206  170.6155 LP  0  0  0  0  0  0  0  0  0  0  0  0  # atno 14817 bound_to 1871
  136.0808  149.2088  169.6510 LP  0  0  0  0  0  0  0  0  0  0  0  0  # atno 14818 bound_to 1871
  139.9723  148.0881  167.6762 LP  0  0  0  0  0  0  0  0  0  0  0  0  # atno 14819 bound_to 1873
  140.6322  148.0362  169.1690 LP  0  0  0  0  0  0  0  0  0  0  0  0  # atno 14820 bound_to 1873
  145.8598  139.6204  106.2432 LP  0  0  0  0  0  0  0  0  0  0  0  0  # atno 14839 bound_to 6474
  142.1011  137.9354  109.2730 LP  0  0  0  0  0  0  0  0  0  0  0  0  # atno 14840 bound_to 6477
  143.6197  137.2520  109.7493 LP  0  0  0  0  0  0  0  0  0  0  0  0  # atno 14841 bound_to 6477
  152.8322  163.4278  172.2593 LP  0  0  0  0  0  0  0  0  0  0  0  0  # atno 14852 bound_to 4458
  153.1514  162.6203  170.8763 LP  0  0  0  0  0  0  0  0  0  0  0  0  # atno 14853 bound_to 4458
  137.7026  143.3283  139.1463 LP  0  0  0  0  0  0  0  0  0  0  0  0  # atno 14854 bound_to 4459
  139.9257  143.9113  137.4560 LP  0  0  0  0  0  0  0  0  0  0  0  0  # atno 14855 bound_to 4462
  139.4418  142.2601  137.2575 LP  0  0  0  0  0  0  0  0  0  0  0  0  # atno 14856 bound_to 4462
  137.1533  141.1619  141.3740 LP  0  0  0  0  0  0  0  0  0  0  0  0  # atno 14857 bound_to 4465
  137.9078  142.5309  141.8464 LP  0  0  0  0  0  0  0  0  0  0  0  0  # atno 14858 bound_to 4465
  146.4445  166.9288  167.5476 LP  0  0  0  0  0  0  0  0  0  0  0  0  # atno 14869 bound_to 4497
  147.1732  165.4684  167.5995 LP  0  0  0  0  0  0  0  0  0  0  0  0  # atno 14870 bound_to 4497
  125.2711  142.3661  127.4790 LP  0  0  0  0  0  0  0  0  0  0  0  0  # atno 14877 bound_to 663 
  128.6534  145.4394  128.8599 LP  0  0  0  0  0  0  0  0  0  0  0  0  # atno 14878 bound_to 666 
  128.0802  143.9296  129.4861 LP  0  0  0  0  0  0  0  0  0  0  0  0  # atno 14879 bound_to 666 
  152.3517  116.3090  166.7623 LP  0  0  0  0  0  0  0  0  0  0  0  0  # atno 14882 bound_to 687 
  153.1745  115.8547  168.0976 LP  0  0  0  0  0  0  0  0  0  0  0  0  # atno 14883 bound_to 687 
  126.7195  132.1362  138.9721 LP  0  0  0  0  0  0  0  0  0  0  0  0  # atno 14894 bound_to 2427
  123.6209  134.2867  140.7370 LP  0  0  0  0  0  0  0  0  0  0  0  0  # atno 14895 bound_to 2430
  124.4874  135.5542  141.5387 LP  0  0  0  0  0  0  0  0  0  0  0  0  # atno 14896 bound_to 2430
  144.4135  102.0700  177.8799 LP  0  0  0  0  0  0  0  0  0  0  0  0  # atno 14899 bound_to 2452
  145.3454  102.6847  176.6882 LP  0  0  0  0  0  0  0  0  0  0  0  0  # atno 14900 bound_to 2452
  127.6496  136.5542  139.3469 LP  0  0  0  0  0  0  0  0  0  0  0  0  # atno 14903 bound_to 2473
  124.5107  138.3119  136.4106 LP  0  0  0  0  0  0  0  0  0  0  0  0  # atno 14904 bound_to 2476
  123.1427  137.8955  137.3879 LP  0  0  0  0  0  0  0  0  0  0  0  0  # atno 14905 bound_to 2476

> <Gold.Score>
     Fitness  S(hb_ext) S(vdw_ext)  S(hb_int)    S(int)      intcor
     36.99       6.55      22.14       0.00      -0.00      -0.75

> <Gold.Goldscore.Fitness>
36.9867

> <Gold.Goldscore.Internal.Vdw>
-0.3329

> <Gold.Goldscore.Internal.Torsion>
-0.4251

> <Gold.Goldscore.External.Vdw>
22.1381

> <Gold.Goldscore.Internal.HBond>
0.0000

> <Gold.Goldscore.External.HBond>
6.5500

> <Gold.Goldscore.Internal.Correction>
-0.7550

> <Gold.Goldscore.Hbonds>
donor molecule, donor type, donor heavy atom, donor atom, acceptor molecule, acceptor atom, score
      P1  H  1381  1390       L1     9  0.28
      P1  H  1317  1328       L1    17  1.00

> <Gold.Goldscore.Internal.Vdw.Weighted>
-0.3329

> <Gold.Goldscore.Internal.Torsion.Weighted>
-0.4251

> <Gold.Goldscore.External.Vdw.Weighted>
30.4398

> <Gold.Goldscore.Internal.HBond.Weighted>
0.0000

> <Gold.Goldscore.External.HBond.Weighted>
6.5500

> <Gold.Goldscore.Internal.Correction.Weighted>
-0.7550

> <Gold.Rescore>
     Score     S(PLP)   S(hbond)     S(cho)   S(metal)  DE(clash)   DE(tors)     intcor
     32.45     -27.52       2.00       0.00       0.00       0.00       0.54       ----

> <Gold.PLP.Fitness>
32.4519

> <Gold.PLP.PLP>
-27.5241

> <Gold.PLP.part.hbond>
-3.3525

> <Gold.PLP.part.metal>
0.0000

> <Gold.PLP.part.buried>
-2.6015

> <Gold.PLP.part.nonpolar>
-23.3795

> <Gold.PLP.part.repulsive>
0.5532

> <Gold.PLP.ligand.clash>
0.0000

> <Gold.PLP.ligand.torsion>
0.5361

> <Gold.PLP.Chemscore.Hbond>
2.0000

> <Gold.PLP.Chemscore.CHOScore>
0.0000

> <Gold.PLP.Chemscore.Metal>
0.0000

> <Gold.Chemscore.Hbonds>
donor molecule, donor type, donor heavy atom, donor atom, acceptor molecule, acceptor atom, score
      P1  H  1381  1390       L1     9  0.47
      P1  H  1317  1328       L1    17  0.89

> <Gold.PLP.Chemscore.Internal.Correction>
   9.000000E+99

#       Name:                CT1002167954
#       Creating user name   hitesit
#       Creation time:       Sun Apr 16 22:56:26 2023


#       File generated by GOLD software.
#

@<TRIPOS>MOLECULE
CT1002167954|ligand_prepared|mol2|1|dock1
    29    30     1
SMALL
NO_CHARGES


@<TRIPOS>ATOM
      1 C1         142.9399 141.9763 169.3876 C.3            1 RES1               0.0000
      2 C2         144.3965 141.7091 169.8186 C.ar           1 RES1               0.0000
      3 C3         142.5682 140.8584 168.4178 C.2            1 RES1               0.0000
      4 C4         142.1119 141.9901 170.6678 C.2            1 RES1               0.0000
      5 C5         142.7384 143.3332 168.6736 C.3            1 RES1               0.0000
      6 C6         144.8295 140.4144 170.0883 C.ar           1 RES1               0.0000
      7 C7         145.3177 142.7451 169.9481 C.ar           1 RES1               0.0000
      8 N8         141.7253 139.8855 168.8682 N.am           1 RES1               0.0000
      9 O9         143.0387 140.8099 167.2880 O.2            1 RES1               0.0000
     10 N10        141.1819 140.9988 170.8418 N.am           1 RES1               0.0000
     11 O11        142.2680 142.8409 171.5350 O.2            1 RES1               0.0000
     12 C12        141.3647 143.4957 168.0422 C.3            1 RES1               0.0000
     13 C13        146.1369 140.1638 170.4706 C.ar           1 RES1               0.0000
     14 C14        146.6246 142.4924 170.3308 C.ar           1 RES1               0.0000
     15 C15        140.9725 139.9296 170.0141 C.2            1 RES1               0.0000
     16 C16        147.0354 141.2024 170.5917 C.ar           1 RES1               0.0000
     17 O17        140.1549 139.0491 170.2658 O.2            1 RES1               0.0000
     18 H18        142.8908 144.1406 169.4004 H              1 RES1               0.0000
     19 H19        143.5008 143.4375 167.8918 H              1 RES1               0.0000
     20 H20        144.1361 139.5846 170.0007 H              1 RES1               0.0000
     21 H21        145.0165 143.7679 169.7490 H              1 RES1               0.0000
     22 H22        141.6475 139.0476 168.3006 H              1 RES1               0.0000
     23 H23        140.5909 141.0641 171.6645 H              1 RES1               0.0000
     24 H24        141.2764 144.4645 167.5549 H              1 RES1               0.0000
     25 H25        141.1894 142.7237 167.2958 H              1 RES1               0.0000
     26 H26        140.5829 143.4227 168.7955 H              1 RES1               0.0000
     27 H27        146.4549 139.1470 170.6761 H              1 RES1               0.0000
     28 H28        147.3282 143.3129 170.4255 H              1 RES1               0.0000
     29 H29        148.0597 141.0059 170.8909 H              1 RES1               0.0000
@<TRIPOS>BOND
    1    1    2 1     
    2    1    3 1     
    3    1    4 1     
    4    1    5 1     
    5    2    6 ar    
    6    2    7 ar    
    7    3    8 1     
    8    3    9 2     
    9    4   10 1     
   10    4   11 2     
   11    5   12 1     
   12    5   18 1     
   13    5   19 1     
   14    6   13 ar    
   15    6   20 1     
   16    7   14 ar    
   17    7   21 1     
   18    8   15 1     
   19    8   22 1     
   20   10   15 1     
   21   10   23 1     
   22   12   24 1     
   23   12   25 1     
   24   12   26 1     
   25   13   16 ar    
   26   13   27 1     
   27   14   16 ar    
   28   14   28 1     
   29   15   17 2     
   30   16   29 1     
@<TRIPOS>SUBSTRUCTURE
      1 RES1           1
@<TRIPOS>SET
DONOR_HYDROGENS      STATIC     ATOMS    <user>   **** ""
2 22 23
ATOM$RED        STATIC     ATOMS    COLORGROUP SYSTEM
2 22 23
@<TRIPOS>COMMENT
> <Gold.Version>
2022.3.0

> <Gold.Id.Protein>
unknown|7rmh_cavity_clean|pdb

> <Gold.Protein.RotatedTorsions>
[ 1581 1565 1566 1567 ] final -146.05 input  115.26 | X-H torsion
[ 5151 5142 5141 5139 ] final  -13.10 input   59.98 | X-H torsion
[ 1669 1661 1660 1658 ] final  136.34 input   59.97 | X-H torsion
[ 5186 5181 5180 5177 ] final  -34.00 input   59.99 | X-H torsion
[ 1788 1769 1770 1771 ] final  -80.87 input  122.82 | X-H torsion
[ 1883 1867 1866 1863 ] final   53.04 input   59.99 | X-H torsion
[ 1874 1868 1869 1870 ] final -174.75 input   29.02 | X-H torsion
[ 1878 1873 1872 1869 ] final   16.26 input   60.02 | X-H torsion
[ 6490 6474 6475 6476 ] final  -29.56 input  103.68 | X-H torsion
[ 4479 4458 4456 4453 ] final  -73.64 input   59.98 | X-H torsion
[ 4466 4459 4460 4461 ] final  108.40 input   43.99 | X-H torsion
[ 4472 4465 4463 4460 ] final  -92.19 input   60.01 | X-H torsion
[ 4502 4497 4496 4493 ] final -103.56 input   59.97 | X-H torsion
[  675  663  664  665 ] final -126.76 input  108.58 | X-H torsion
[  692  687  686  683 ] final  118.69 input   59.99 | X-H torsion
[  713  708  707  706 ] final -172.55 input   60.01 | X-H torsion
[ 2432 2427 2428 2429 ] final   47.79 input   99.19 | X-H torsion
[ 2461 2452 2451 2449 ] final   36.66 input   60.00 | X-H torsion
[ 2484 2473 2474 2475 ] final  -62.68 input  111.54 | X-H torsion
[ 1326 1317 1316 1315 ] final   93.03 input   60.01 | X-H torsion
[ 14725 1568 1567 1566 ] final  121.22 input    0.00 | X-H torsion
[ 14794 1772 1771 1770 ] final   71.00 input    0.00 | X-H torsion
[ 14817 1871 1870 1869 ] final  -68.25 input    0.00 | X-H torsion
[ 14840 6477 6476 6475 ] final  -16.34 input   -0.00 | X-H torsion
[ 14855 4462 4461 4460 ] final  -86.86 input    0.00 | X-H torsion
[ 14878  666  665  664 ] final   45.86 input   -0.00 | X-H torsion
[ 14895 2430 2429 2428 ] final   -7.54 input    0.00 | X-H torsion
[ 14904 2476 2475 2474 ] final   85.61 input    0.00 | X-H torsion

> <Gold.Protein.ActiveResidues>
 LEU46   GLY47   ALA48   ASP49   ASN50   SER51   LYS53   VAL224  GLY225  GLY226 
 GLN227  ARG228  ASP229  GLU230  ARG231  ARG232  LYS233  TRP234  ILE235  GLN236 
 CYS237  PHE246  VAL247  VAL248  ASP249  ASP252  TYR253  ASN264  ARG265  LEU266 
 GLN267  GLU268  ALA269  LEU270  ASN271  LEU272  LYS274  SER275  ASN278  ASN279 
 ARG280  TRP281  ASP310  TYR311  PHE312  GLU344  ARG347  ILE348  ALA351  ILE18  
 TRP63   THR65   ASP66   SER67   ARG68   LEU69   TYR105  ALA106  PRO107  SER108 
 GLY109  ASN110  CYS149  ARG150  PHE151  ASP154  ASN155  GLN156  LEU192  ALA193 
 PRO194  ASP195  THR196  ARG197  LEU198  VAL200  ILE229  ASN230  ALA231  CYS233 
 PHE235 

> <Gold.Protein.RotatedAtoms>
  125.4521  142.0009  126.9709 H   0  0  0  0  0  0  0  0  0  0  0  0  # atno 675  bound_to 663 
  152.5249  116.2890  166.7796 H   0  0  0  0  0  0  0  0  0  0  0  0  # atno 692  bound_to 687 
  154.1915  122.1672  168.7695 H   0  0  0  0  0  0  0  0  0  0  0  0  # atno 713  bound_to 708 
  153.7107  122.2068  167.1844 H   0  0  0  0  0  0  0  0  0  0  0  0  # atno 714  bound_to 708 
  152.9605  121.1862  168.2527 H   0  0  0  0  0  0  0  0  0  0  0  0  # atno 715  bound_to 708 
  140.5702  136.4105  174.9281 H   0  0  0  0  0  0  0  0  0  0  0  0  # atno 1326 bound_to 1317
  139.3085  137.0790  174.0863 H   0  0  0  0  0  0  0  0  0  0  0  0  # atno 1327 bound_to 1317
  139.9130  135.6017  173.6394 H   0  0  0  0  0  0  0  0  0  0  0  0  # atno 1328 bound_to 1317
  134.4088  122.3697  131.7136 H   0  0  0  0  0  0  0  0  0  0  0  0  # atno 1581 bound_to 1565
  146.6440  100.3444  168.9587 H   0  0  0  0  0  0  0  0  0  0  0  0  # atno 1669 bound_to 1661
  137.5609  134.3396   98.7149 H   0  0  0  0  0  0  0  0  0  0  0  0  # atno 1788 bound_to 1769
  138.4124  146.8447  169.3765 H   0  0  0  0  0  0  0  0  0  0  0  0  # atno 1874 bound_to 1868
  140.1884  147.7208  168.7857 H   0  0  0  0  0  0  0  0  0  0  0  0  # atno 1878 bound_to 1873
  140.2529  123.5199  168.1161 H   0  0  0  0  0  0  0  0  0  0  0  0  # atno 1883 bound_to 1867
  127.5703  132.3046  140.3154 H   0  0  0  0  0  0  0  0  0  0  0  0  # atno 2432 bound_to 2427
  144.4093  102.0550  177.8714 H   0  0  0  0  0  0  0  0  0  0  0  0  # atno 2461 bound_to 2452
  126.4462  136.6462  139.8937 H   0  0  0  0  0  0  0  0  0  0  0  0  # atno 2484 bound_to 2473
  137.4481  143.1625  139.7448 H   0  0  0  0  0  0  0  0  0  0  0  0  # atno 4466 bound_to 4459
  138.4718  141.5382  142.5548 H   0  0  0  0  0  0  0  0  0  0  0  0  # atno 4472 bound_to 4465
  151.7676  163.0655  172.0407 H   0  0  0  0  0  0  0  0  0  0  0  0  # atno 4479 bound_to 4458
  145.6349  165.4800  167.2883 H   0  0  0  0  0  0  0  0  0  0  0  0  # atno 4502 bound_to 4497
  157.0032  161.2835  165.1398 H   0  0  0  0  0  0  0  0  0  0  0  0  # atno 5151 bound_to 5142
  158.9719  164.9183  173.9133 H   0  0  0  0  0  0  0  0  0  0  0  0  # atno 5186 bound_to 5181
  145.6873  137.9391  106.4721 H   0  0  0  0  0  0  0  0  0  0  0  0  # atno 6490 bound_to 6474
  132.7844  121.8950  131.2759 LP  0  0  0  0  0  0  0  0  0  0  0  0  # atno 14724 bound_to 1565
  133.4847  121.0924  126.7982 LP  0  0  0  0  0  0  0  0  0  0  0  0  # atno 14725 bound_to 1568
  134.1510  122.5709  127.4067 LP  0  0  0  0  0  0  0  0  0  0  0  0  # atno 14726 bound_to 1568
  156.5777  162.2539  166.3746 LP  0  0  0  0  0  0  0  0  0  0  0  0  # atno 14737 bound_to 5142
  155.5967  162.0993  165.0783 LP  0  0  0  0  0  0  0  0  0  0  0  0  # atno 14738 bound_to 5142
  146.0844  101.2101  167.6997 LP  0  0  0  0  0  0  0  0  0  0  0  0  # atno 14749 bound_to 1661
  145.1406  100.0749  168.3977 LP  0  0  0  0  0  0  0  0  0  0  0  0  # atno 14750 bound_to 1661
  160.5297  164.5197  174.1638 LP  0  0  0  0  0  0  0  0  0  0  0  0  # atno 14757 bound_to 5181
  159.3458  163.4438  174.4915 LP  0  0  0  0  0  0  0  0  0  0  0  0  # atno 14758 bound_to 5181
  136.1200  135.2759   99.0430 LP  0  0  0  0  0  0  0  0  0  0  0  0  # atno 14793 bound_to 1769
  136.3035  133.6537   94.4448 LP  0  0  0  0  0  0  0  0  0  0  0  0  # atno 14794 bound_to 1772
  137.9094  134.2311   94.7410 LP  0  0  0  0  0  0  0  0  0  0  0  0  # atno 14795 bound_to 1772
  139.8797  122.0696  168.7533 LP  0  0  0  0  0  0  0  0  0  0  0  0  # atno 14814 bound_to 1867
  140.3388  123.2982  169.7261 LP  0  0  0  0  0  0  0  0  0  0  0  0  # atno 14815 bound_to 1867
  136.8787  147.5808  169.7799 LP  0  0  0  0  0  0  0  0  0  0  0  0  # atno 14816 bound_to 1868
  136.2173  150.2202  169.3709 LP  0  0  0  0  0  0  0  0  0  0  0  0  # atno 14817 bound_to 1871
  135.6679  149.6091  170.8956 LP  0  0  0  0  0  0  0  0  0  0  0  0  # atno 14818 bound_to 1871
  141.2122  148.9845  168.7360 LP  0  0  0  0  0  0  0  0  0  0  0  0  # atno 14819 bound_to 1873
  140.2972  148.6194  167.4335 LP  0  0  0  0  0  0  0  0  0  0  0  0  # atno 14820 bound_to 1873
  145.6072  139.6142  106.0078 LP  0  0  0  0  0  0  0  0  0  0  0  0  # atno 14839 bound_to 6474
  143.4121  138.1762  109.8371 LP  0  0  0  0  0  0  0  0  0  0  0  0  # atno 14840 bound_to 6477
  142.3087  137.0111  109.1852 LP  0  0  0  0  0  0  0  0  0  0  0  0  # atno 14841 bound_to 6477
  153.3668  163.2569  171.8092 LP  0  0  0  0  0  0  0  0  0  0  0  0  # atno 14852 bound_to 4458
  152.4820  162.3930  170.7426 LP  0  0  0  0  0  0  0  0  0  0  0  0  # atno 14853 bound_to 4458
  138.4662  144.5880  139.7403 LP  0  0  0  0  0  0  0  0  0  0  0  0  # atno 14854 bound_to 4459
  139.4235  142.2646  137.2666 LP  0  0  0  0  0  0  0  0  0  0  0  0  # atno 14855 bound_to 4462
  139.9440  143.9068  137.4470 LP  0  0  0  0  0  0  0  0  0  0  0  0  # atno 14856 bound_to 4462
  137.3499  140.8177  141.6217 LP  0  0  0  0  0  0  0  0  0  0  0  0  # atno 14857 bound_to 4465
  137.5675  142.4341  141.5409 LP  0  0  0  0  0  0  0  0  0  0  0  0  # atno 14858 bound_to 4465
  146.3360  166.9294  167.5258 LP  0  0  0  0  0  0  0  0  0  0  0  0  # atno 14869 bound_to 4497
  147.2267  165.5637  167.6165 LP  0  0  0  0  0  0  0  0  0  0  0  0  # atno 14870 bound_to 4497
  124.9901  143.6192  126.5113 LP  0  0  0  0  0  0  0  0  0  0  0  0  # atno 14877 bound_to 663 
  128.9611  144.4276  128.5979 LP  0  0  0  0  0  0  0  0  0  0  0  0  # atno 14878 bound_to 666 
  127.7724  144.9414  129.7481 LP  0  0  0  0  0  0  0  0  0  0  0  0  # atno 14879 bound_to 666 
  153.0739  115.8201  168.2375 LP  0  0  0  0  0  0  0  0  0  0  0  0  # atno 14882 bound_to 687 
  151.4711  116.0060  167.9863 LP  0  0  0  0  0  0  0  0  0  0  0  0  # atno 14883 bound_to 687 
  126.5630  131.4794  139.1489 LP  0  0  0  0  0  0  0  0  0  0  0  0  # atno 14894 bound_to 2427
  123.6017  134.2334  140.8671 LP  0  0  0  0  0  0  0  0  0  0  0  0  # atno 14895 bound_to 2430
  124.5066  135.6075  141.4086 LP  0  0  0  0  0  0  0  0  0  0  0  0  # atno 14896 bound_to 2430
  145.3420  102.6935  176.7011 LP  0  0  0  0  0  0  0  0  0  0  0  0  # atno 14899 bound_to 2452
  144.7678  101.1720  176.5528 LP  0  0  0  0  0  0  0  0  0  0  0  0  # atno 14900 bound_to 2452
  127.3842  135.5489  138.9119 LP  0  0  0  0  0  0  0  0  0  0  0  0  # atno 14903 bound_to 2473
  123.9857  137.7635  136.1189 LP  0  0  0  0  0  0  0  0  0  0  0  0  # atno 14904 bound_to 2476
  123.6677  138.4439  137.6797 LP  0  0  0  0  0  0  0  0  0  0  0  0  # atno 14905 bound_to 2476

> <Gold.Score>
     Fitness  S(hb_ext) S(vdw_ext)  S(hb_int)    S(int)      intcor
     34.66       1.94      23.92       0.00      -0.18      -0.76

> <Gold.Goldscore.Fitness>
34.6567

> <Gold.Goldscore.Internal.Vdw>
-0.4185

> <Gold.Goldscore.Internal.Torsion>
-0.5226

> <Gold.Goldscore.External.Vdw>
23.9238

> <Gold.Goldscore.Internal.HBond>
0.0000

> <Gold.Goldscore.External.HBond>
1.9440

> <Gold.Goldscore.Internal.Correction>
-0.7585

> <Gold.Goldscore.Hbonds>
donor molecule, donor type, donor heavy atom, donor atom, acceptor molecule, acceptor atom, score
      L1  H     8    22       P1  1382  0.97

> <Gold.Goldscore.Internal.Vdw.Weighted>
-0.4185

> <Gold.Goldscore.Internal.Torsion.Weighted>
-0.5226

> <Gold.Goldscore.External.Vdw.Weighted>
32.8952

> <Gold.Goldscore.Internal.HBond.Weighted>
0.0000

> <Gold.Goldscore.External.HBond.Weighted>
1.9440

> <Gold.Goldscore.Internal.Correction.Weighted>
-0.7585

> <Gold.Rescore>
     Score     S(PLP)   S(hbond)     S(cho)   S(metal)  DE(clash)   DE(tors)     intcor
     33.41     -32.27       1.00       0.00       0.00       0.00       0.93       ----

> <Gold.PLP.Fitness>
33.4083

> <Gold.PLP.PLP>
-32.2684

> <Gold.PLP.part.hbond>
-2.1864

> <Gold.PLP.part.metal>
0.0000

> <Gold.PLP.part.buried>
-5.2575

> <Gold.PLP.part.nonpolar>
-26.7194

> <Gold.PLP.part.repulsive>
0.5828

> <Gold.PLP.ligand.clash>
0.0000

> <Gold.PLP.ligand.torsion>
0.9301

> <Gold.PLP.Chemscore.Hbond>
1.0000

> <Gold.PLP.Chemscore.CHOScore>
0.0000

> <Gold.PLP.Chemscore.Metal>
0.0000

> <Gold.Chemscore.Hbonds>
donor molecule, donor type, donor heavy atom, donor atom, acceptor molecule, acceptor atom, score
      L1  H     8    22       P1  1382  0.70

> <Gold.PLP.Chemscore.Internal.Correction>
   9.000000E+99

#       Name:                CT1002167954
#       Creating user name   hitesit
#       Creation time:       Sun Apr 16 22:58:58 2023


#       File generated by GOLD software.
#

@<TRIPOS>MOLECULE
CT1002167954|ligand_prepared|mol2|1|dock9
    29    30     1
SMALL
NO_CHARGES


@<TRIPOS>ATOM
      1 C1         142.7205 141.5634 168.9198 C.3            1 RES1               0.0000
      2 C2         143.7605 140.5481 169.4360 C.ar           1 RES1               0.0000
      3 C3         143.1211 142.9179 169.4969 C.2            1 RES1               0.0000
      4 C4         142.7762 141.4946 167.3977 C.2            1 RES1               0.0000
      5 C5         141.2711 141.2514 169.3594 C.3            1 RES1               0.0000
      6 C6         145.0464 140.9601 169.7728 C.ar           1 RES1               0.0000
      7 C7         143.4485 139.1992 169.5830 C.ar           1 RES1               0.0000
      8 N8         143.6838 143.8249 168.6480 N.am           1 RES1               0.0000
      9 O9         142.9816 143.1720 170.6870 O.2            1 RES1               0.0000
     10 N10        143.2170 142.6014 166.7206 N.am           1 RES1               0.0000
     11 O11        142.4582 140.4862 166.7794 O.2            1 RES1               0.0000
     12 C12        140.3087 142.4129 169.1676 C.3            1 RES1               0.0000
     13 C13        145.9856 140.0569 170.2423 C.ar           1 RES1               0.0000
     14 C14        144.3893 138.2975 170.0526 C.ar           1 RES1               0.0000
     15 C15        143.7024 143.7528 167.2783 C.2            1 RES1               0.0000
     16 C16        145.6576 138.7252 170.3830 C.ar           1 RES1               0.0000
     17 O17        144.1319 144.6841 166.6035 O.2            1 RES1               0.0000
     18 H18        140.9053 140.3912 168.7851 H              1 RES1               0.0000
     19 H19        141.2767 140.9689 170.4194 H              1 RES1               0.0000
     20 H20        145.3236 142.0036 169.6664 H              1 RES1               0.0000
     21 H21        142.4572 138.8399 169.3283 H              1 RES1               0.0000
     22 H22        144.1324 144.6314 169.0708 H              1 RES1               0.0000
     23 H23        143.1797 142.5636 165.7070 H              1 RES1               0.0000
     24 H24        139.3063 142.1408 169.4916 H              1 RES1               0.0000
     25 H25        140.6283 143.2780 169.7450 H              1 RES1               0.0000
     26 H26        140.2591 142.7038 168.1204 H              1 RES1               0.0000
     27 H27        146.9828 140.3983 170.4997 H              1 RES1               0.0000
     28 H28        144.1269 137.2503 170.1611 H              1 RES1               0.0000
     29 H29        146.3934 138.0179 170.7512 H              1 RES1               0.0000
@<TRIPOS>BOND
    1    1    2 1     
    2    1    3 1     
    3    1    4 1     
    4    1    5 1     
    5    2    6 ar    
    6    2    7 ar    
    7    3    8 1     
    8    3    9 2     
    9    4   10 1     
   10    4   11 2     
   11    5   12 1     
   12    5   18 1     
   13    5   19 1     
   14    6   13 ar    
   15    6   20 1     
   16    7   14 ar    
   17    7   21 1     
   18    8   15 1     
   19    8   22 1     
   20   10   15 1     
   21   10   23 1     
   22   12   24 1     
   23   12   25 1     
   24   12   26 1     
   25   13   16 ar    
   26   13   27 1     
   27   14   16 ar    
   28   14   28 1     
   29   15   17 2     
   30   16   29 1     
@<TRIPOS>SUBSTRUCTURE
      1 RES1           1
@<TRIPOS>SET
DONOR_HYDROGENS      STATIC     ATOMS    <user>   **** ""
2 22 23
ATOM$RED        STATIC     ATOMS    COLORGROUP SYSTEM
2 22 23
@<TRIPOS>COMMENT
> <Gold.Version>
2022.3.0

> <Gold.Id.Protein>
unknown|7rmh_cavity_clean|pdb

> <Gold.Protein.RotatedTorsions>
[ 1581 1565 1566 1567 ] final  -98.71 input  115.26 | X-H torsion
[ 5151 5142 5141 5139 ] final  -60.78 input   59.98 | X-H torsion
[ 1669 1661 1660 1658 ] final  169.92 input   59.97 | X-H torsion
[ 5186 5181 5180 5177 ] final -135.43 input   59.99 | X-H torsion
[ 1788 1769 1770 1771 ] final  156.73 input  122.82 | X-H torsion
[ 1883 1867 1866 1863 ] final  -39.72 input   59.99 | X-H torsion
[ 1874 1868 1869 1870 ] final -154.13 input   29.02 | X-H torsion
[ 1878 1873 1872 1869 ] final  112.02 input   60.02 | X-H torsion
[ 6490 6474 6475 6476 ] final -145.05 input  103.68 | X-H torsion
[ 4479 4458 4456 4453 ] final  168.41 input   59.98 | X-H torsion
[ 4466 4459 4460 4461 ] final  138.30 input   43.99 | X-H torsion
[ 4472 4465 4463 4460 ] final  -55.31 input   60.01 | X-H torsion
[ 4502 4497 4496 4493 ] final -173.49 input   59.97 | X-H torsion
[  675  663  664  665 ] final   43.83 input  108.58 | X-H torsion
[  692  687  686  683 ] final  121.84 input   59.99 | X-H torsion
[  713  708  707  706 ] final -118.67 input   60.01 | X-H torsion
[ 2432 2427 2428 2429 ] final   52.39 input   99.19 | X-H torsion
[ 2461 2452 2451 2449 ] final   77.70 input   60.00 | X-H torsion
[ 2484 2473 2474 2475 ] final -159.10 input  111.54 | X-H torsion
[ 1326 1317 1316 1315 ] final  -30.89 input   60.01 | X-H torsion
[ 14725 1568 1567 1566 ] final   91.25 input    0.00 | X-H torsion
[ 14794 1772 1771 1770 ] final   12.30 input    0.00 | X-H torsion
[ 14817 1871 1870 1869 ] final -100.85 input    0.00 | X-H torsion
[ 14840 6477 6476 6475 ] final   42.06 input   -0.00 | X-H torsion
[ 14855 4462 4461 4460 ] final  163.96 input    0.00 | X-H torsion
[ 14878  666  665  664 ] final  -59.77 input   -0.00 | X-H torsion
[ 14895 2430 2429 2428 ] final -174.87 input    0.00 | X-H torsion
[ 14904 2476 2475 2474 ] final  140.02 input    0.00 | X-H torsion

> <Gold.Protein.ActiveResidues>
 LEU46   GLY47   ALA48   ASP49   ASN50   SER51   LYS53   VAL224  GLY225  GLY226 
 GLN227  ARG228  ASP229  GLU230  ARG231  ARG232  LYS233  TRP234  ILE235  GLN236 
 CYS237  PHE246  VAL247  VAL248  ASP249  ASP252  TYR253  ASN264  ARG265  LEU266 
 GLN267  GLU268  ALA269  LEU270  ASN271  LEU272  LYS274  SER275  ASN278  ASN279 
 ARG280  TRP281  ASP310  TYR311  PHE312  GLU344  ARG347  ILE348  ALA351  ILE18  
 TRP63   THR65   ASP66   SER67   ARG68   LEU69   TYR105  ALA106  PRO107  SER108 
 GLY109  ASN110  CYS149  ARG150  PHE151  ASP154  ASN155  GLN156  LEU192  ALA193 
 PRO194  ASP195  THR196  ARG197  LEU198  VAL200  ILE229  ASN230  ALA231  CYS233 
 PHE235 

> <Gold.Protein.RotatedAtoms>
  124.9507  143.6459  126.6472 H   0  0  0  0  0  0  0  0  0  0  0  0  # atno 675  bound_to 663 
  152.4741  116.2944  166.7730 H   0  0  0  0  0  0  0  0  0  0  0  0  # atno 692  bound_to 687 
  154.3069  122.5142  167.9838 H   0  0  0  0  0  0  0  0  0  0  0  0  # atno 713  bound_to 708 
  153.0994  121.6041  167.3064 H   0  0  0  0  0  0  0  0  0  0  0  0  # atno 714  bound_to 708 
  153.4559  121.4415  168.9164 H   0  0  0  0  0  0  0  0  0  0  0  0  # atno 715  bound_to 708 
  139.8628  135.6291  173.6078 H   0  0  0  0  0  0  0  0  0  0  0  0  # atno 1326 bound_to 1317
  140.5929  136.3518  174.9088 H   0  0  0  0  0  0  0  0  0  0  0  0  # atno 1327 bound_to 1317
  139.3366  137.1091  174.1370 H   0  0  0  0  0  0  0  0  0  0  0  0  # atno 1328 bound_to 1317
  134.0674  122.8516  131.3183 H   0  0  0  0  0  0  0  0  0  0  0  0  # atno 1581 bound_to 1565
  146.2302  100.0178  169.0791 H   0  0  0  0  0  0  0  0  0  0  0  0  # atno 1669 bound_to 1661
  136.1313  134.4770   99.3124 H   0  0  0  0  0  0  0  0  0  0  0  0  # atno 1788 bound_to 1769
  138.3878  146.7613  169.6812 H   0  0  0  0  0  0  0  0  0  0  0  0  # atno 1874 bound_to 1868
  140.0800  148.3046  167.5305 H   0  0  0  0  0  0  0  0  0  0  0  0  # atno 1878 bound_to 1873
  139.8884  122.2338  168.3424 H   0  0  0  0  0  0  0  0  0  0  0  0  # atno 1883 bound_to 1867
  127.5695  132.2450  140.3541 H   0  0  0  0  0  0  0  0  0  0  0  0  # atno 2432 bound_to 2427
  144.2985  101.4627  177.6121 H   0  0  0  0  0  0  0  0  0  0  0  0  # atno 2461 bound_to 2452
  127.6484  136.5855  139.3694 H   0  0  0  0  0  0  0  0  0  0  0  0  # atno 2484 bound_to 2473
  137.4403  143.3152  140.1787 H   0  0  0  0  0  0  0  0  0  0  0  0  # atno 4466 bound_to 4459
  138.4120  142.1061  142.3972 H   0  0  0  0  0  0  0  0  0  0  0  0  # atno 4472 bound_to 4465
  153.3452  163.2701  171.8324 H   0  0  0  0  0  0  0  0  0  0  0  0  # atno 4479 bound_to 4458
  145.6561  166.5504  167.3622 H   0  0  0  0  0  0  0  0  0  0  0  0  # atno 4502 bound_to 4497
  157.2197  161.5427  165.8168 H   0  0  0  0  0  0  0  0  0  0  0  0  # atno 5151 bound_to 5142
  160.4070  164.7760  174.0576 H   0  0  0  0  0  0  0  0  0  0  0  0  # atno 5186 bound_to 5181
  146.2252  139.2989  106.6256 H   0  0  0  0  0  0  0  0  0  0  0  0  # atno 6490 bound_to 6474
  133.1172  121.4251  131.6613 LP  0  0  0  0  0  0  0  0  0  0  0  0  # atno 14724 bound_to 1565
  133.9060  120.9915  126.9116 LP  0  0  0  0  0  0  0  0  0  0  0  0  # atno 14725 bound_to 1568
  133.7297  122.6718  127.2933 LP  0  0  0  0  0  0  0  0  0  0  0  0  # atno 14726 bound_to 1568
  155.9151  162.4804  166.0739 LP  0  0  0  0  0  0  0  0  0  0  0  0  # atno 14737 bound_to 5142
  156.0412  161.6116  164.6970 LP  0  0  0  0  0  0  0  0  0  0  0  0  # atno 14738 bound_to 5142
  146.5453  101.1838  167.9889 LP  0  0  0  0  0  0  0  0  0  0  0  0  # atno 14749 bound_to 1661
  145.0966  100.4303  167.9872 LP  0  0  0  0  0  0  0  0  0  0  0  0  # atno 14750 bound_to 1661
  159.6471  163.4139  174.5218 LP  0  0  0  0  0  0  0  0  0  0  0  0  # atno 14757 bound_to 5181
  158.7833  164.6929  173.9882 LP  0  0  0  0  0  0  0  0  0  0  0  0  # atno 14758 bound_to 5181
  137.5081  135.1425   98.4627 LP  0  0  0  0  0  0  0  0  0  0  0  0  # atno 14793 bound_to 1769
  136.8044  133.2318   94.9852 LP  0  0  0  0  0  0  0  0  0  0  0  0  # atno 14794 bound_to 1772
  137.4085  134.6530   94.2007 LP  0  0  0  0  0  0  0  0  0  0  0  0  # atno 14795 bound_to 1772
  140.2194  122.8771  169.8002 LP  0  0  0  0  0  0  0  0  0  0  0  0  # atno 14814 bound_to 1867
  140.3660  123.7858  168.4513 LP  0  0  0  0  0  0  0  0  0  0  0  0  # atno 14815 bound_to 1867
  136.9027  147.6622  169.4828 LP  0  0  0  0  0  0  0  0  0  0  0  0  # atno 14816 bound_to 1868
  136.1358  150.6083  169.6521 LP  0  0  0  0  0  0  0  0  0  0  0  0  # atno 14817 bound_to 1871
  135.7494  149.2210  170.6145 LP  0  0  0  0  0  0  0  0  0  0  0  0  # atno 14818 bound_to 1871
  140.4374  147.8649  169.0559 LP  0  0  0  0  0  0  0  0  0  0  0  0  # atno 14819 bound_to 1873
  141.1812  149.1510  168.3781 LP  0  0  0  0  0  0  0  0  0  0  0  0  # atno 14820 bound_to 1873
  145.0685  138.2525  105.8541 LP  0  0  0  0  0  0  0  0  0  0  0  0  # atno 14839 bound_to 6474
  142.6479  138.4303  109.5809 LP  0  0  0  0  0  0  0  0  0  0  0  0  # atno 14840 bound_to 6477
  143.0728  136.7570  109.4414 LP  0  0  0  0  0  0  0  0  0  0  0  0  # atno 14841 bound_to 6477
  152.5152  162.3973  170.7382 LP  0  0  0  0  0  0  0  0  0  0  0  0  # atno 14852 bound_to 4458
  151.7448  163.0465  172.0233 LP  0  0  0  0  0  0  0  0  0  0  0  0  # atno 14853 bound_to 4458
  138.4736  144.4408  139.3221 LP  0  0  0  0  0  0  0  0  0  0  0  0  # atno 14854 bound_to 4459
  140.4818  143.1687  137.0307 LP  0  0  0  0  0  0  0  0  0  0  0  0  # atno 14855 bound_to 4462
  138.8858  143.0027  137.6828 LP  0  0  0  0  0  0  0  0  0  0  0  0  # atno 14856 bound_to 4462
  137.7540  140.6631  142.0325 LP  0  0  0  0  0  0  0  0  0  0  0  0  # atno 14857 bound_to 4465
  137.2237  142.0168  141.2889 LP  0  0  0  0  0  0  0  0  0  0  0  0  # atno 14858 bound_to 4465
  147.2425  166.3596  167.6714 LP  0  0  0  0  0  0  0  0  0  0  0  0  # atno 14869 bound_to 4497
  146.2988  165.0556  167.3965 LP  0  0  0  0  0  0  0  0  0  0  0  0  # atno 14870 bound_to 4497
  125.4851  141.9954  126.8309 LP  0  0  0  0  0  0  0  0  0  0  0  0  # atno 14877 bound_to 663 
  128.0466  143.9575  129.5181 LP  0  0  0  0  0  0  0  0  0  0  0  0  # atno 14878 bound_to 666 
  128.6869  145.4114  128.8280 LP  0  0  0  0  0  0  0  0  0  0  0  0  # atno 14879 bound_to 666 
  153.1063  115.8296  168.1981 LP  0  0  0  0  0  0  0  0  0  0  0  0  # atno 14882 bound_to 687 
  151.4898  115.9910  168.0323 LP  0  0  0  0  0  0  0  0  0  0  0  0  # atno 14883 bound_to 687 
  126.5638  131.5376  139.1112 LP  0  0  0  0  0  0  0  0  0  0  0  0  # atno 14894 bound_to 2427
  124.5131  135.6500  141.2224 LP  0  0  0  0  0  0  0  0  0  0  0  0  # atno 14895 bound_to 2430
  123.5952  134.1909  141.0533 LP  0  0  0  0  0  0  0  0  0  0  0  0  # atno 14896 bound_to 2430
  145.0819  102.8513  177.2880 LP  0  0  0  0  0  0  0  0  0  0  0  0  # atno 14899 bound_to 2452
  145.1395  101.6111  176.2273 LP  0  0  0  0  0  0  0  0  0  0  0  0  # atno 14900 bound_to 2452
  126.2026  135.6086  139.4272 LP  0  0  0  0  0  0  0  0  0  0  0  0  # atno 14903 bound_to 2473
  123.3356  137.5150  136.4965 LP  0  0  0  0  0  0  0  0  0  0  0  0  # atno 14904 bound_to 2476
  124.3178  138.6924  137.3020 LP  0  0  0  0  0  0  0  0  0  0  0  0  # atno 14905 bound_to 2476

> <Gold.Score>
     Fitness  S(hb_ext) S(vdw_ext)  S(hb_int)    S(int)      intcor
     34.48       0.00      25.79       0.00      -0.98      -0.75

> <Gold.Goldscore.Fitness>
34.4774

> <Gold.Goldscore.Internal.Vdw>
-1.0229

> <Gold.Goldscore.Internal.Torsion>
-0.7132

> <Gold.Goldscore.External.Vdw>
25.7880

> <Gold.Goldscore.Internal.HBond>
0.0000

> <Gold.Goldscore.External.HBond>
0.0000

> <Gold.Goldscore.Internal.Correction>
-0.7550

> <Gold.Goldscore.Internal.Vdw.Weighted>
-1.0229

> <Gold.Goldscore.Internal.Torsion.Weighted>
-0.7132

> <Gold.Goldscore.External.Vdw.Weighted>
35.4585

> <Gold.Goldscore.Internal.HBond.Weighted>
0.0000

> <Gold.Goldscore.External.HBond.Weighted>
0.0000

> <Gold.Goldscore.Internal.Correction.Weighted>
-0.7550

> <Gold.Rescore>
     Score     S(PLP)   S(hbond)     S(cho)   S(metal)  DE(clash)   DE(tors)     intcor
     29.46     -31.71       0.00       0.00       0.00       0.00       1.12       ----

> <Gold.PLP.Fitness>
29.4582

> <Gold.PLP.PLP>
-31.7068

> <Gold.PLP.part.hbond>
-1.8363

> <Gold.PLP.part.metal>
0.0000

> <Gold.PLP.part.buried>
-5.6897

> <Gold.PLP.part.nonpolar>
-28.4290

> <Gold.PLP.part.repulsive>
3.7310

> <Gold.PLP.ligand.clash>
0.0000

> <Gold.PLP.ligand.torsion>
1.1243

> <Gold.PLP.Chemscore.Hbond>
0.0000

> <Gold.PLP.Chemscore.CHOScore>
0.0000

> <Gold.PLP.Chemscore.Metal>
0.0000

> <Gold.PLP.Chemscore.Internal.Correction>
   9.000000E+99

#       Name:                CT1002167954
#       Creating user name   hitesit
#       Creation time:       Sun Apr 16 22:58:39 2023


#       File generated by GOLD software.
#

@<TRIPOS>MOLECULE
CT1002167954|ligand_prepared|mol2|1|dock8
    29    30     1
SMALL
NO_CHARGES


@<TRIPOS>ATOM
      1 C1         143.0351 140.9537 169.0411 C.3            1 RES1               0.0000
      2 C2         144.2901 140.3064 169.6613 C.ar           1 RES1               0.0000
      3 C3         142.4293 139.9078 168.1099 C.2            1 RES1               0.0000
      4 C4         142.1350 141.3435 170.2083 C.2            1 RES1               0.0000
      5 C5         143.3316 142.2299 168.2195 C.3            1 RES1               0.0000
      6 C6         145.3346 141.0955 170.1337 C.ar           1 RES1               0.0000
      7 C7         144.4164 138.9241 169.7703 C.ar           1 RES1               0.0000
      8 N8         141.2882 139.2828 168.5189 N.am           1 RES1               0.0000
      9 O9         142.9663 139.6075 167.0508 O.2            1 RES1               0.0000
     10 N10        140.9320 140.6996 170.3343 N.am           1 RES1               0.0000
     11 O11        142.4640 142.1906 171.0296 O.2            1 RES1               0.0000
     12 C12        142.1569 142.7046 167.3787 C.3            1 RES1               0.0000
     13 C13        146.4632 140.5236 170.6972 C.ar           1 RES1               0.0000
     14 C14        145.5460 138.3542 170.3340 C.ar           1 RES1               0.0000
     15 C15        140.4813 139.6653 169.5602 C.2            1 RES1               0.0000
     16 C16        146.5695 139.1528 170.7982 C.ar           1 RES1               0.0000
     17 O17        139.4115 139.1006 169.7694 O.2            1 RES1               0.0000
     18 H18        143.6208 143.0337 168.9078 H              1 RES1               0.0000
     19 H19        144.1835 142.0333 167.5568 H              1 RES1               0.0000
     20 H20        145.2698 142.1760 170.0605 H              1 RES1               0.0000
     21 H21        143.6242 138.2761 169.4108 H              1 RES1               0.0000
     22 H22        141.0091 138.4545 168.0029 H              1 RES1               0.0000
     23 H23        140.3152 141.0213 171.0736 H              1 RES1               0.0000
     24 H24        142.4184 143.6025 166.8227 H              1 RES1               0.0000
     25 H25        141.8589 141.9390 166.6654 H              1 RES1               0.0000
     26 H26        141.2996 142.9335 168.0083 H              1 RES1               0.0000
     27 H27        147.2665 141.1565 171.0598 H              1 RES1               0.0000
     28 H28        145.6257 137.2749 170.4108 H              1 RES1               0.0000
     29 H29        147.4535 138.7051 171.2400 H              1 RES1               0.0000
@<TRIPOS>BOND
    1    1    2 1     
    2    1    3 1     
    3    1    4 1     
    4    1    5 1     
    5    2    6 ar    
    6    2    7 ar    
    7    3    8 1     
    8    3    9 2     
    9    4   10 1     
   10    4   11 2     
   11    5   12 1     
   12    5   18 1     
   13    5   19 1     
   14    6   13 ar    
   15    6   20 1     
   16    7   14 ar    
   17    7   21 1     
   18    8   15 1     
   19    8   22 1     
   20   10   15 1     
   21   10   23 1     
   22   12   24 1     
   23   12   25 1     
   24   12   26 1     
   25   13   16 ar    
   26   13   27 1     
   27   14   16 ar    
   28   14   28 1     
   29   15   17 2     
   30   16   29 1     
@<TRIPOS>SUBSTRUCTURE
      1 RES1           1
@<TRIPOS>SET
DONOR_HYDROGENS      STATIC     ATOMS    <user>   **** ""
2 22 23
ATOM$RED        STATIC     ATOMS    COLORGROUP SYSTEM
2 22 23
@<TRIPOS>COMMENT
> <Gold.Version>
2022.3.0

> <Gold.Id.Protein>
unknown|7rmh_cavity_clean|pdb

> <Gold.Protein.RotatedTorsions>
[ 1581 1565 1566 1567 ] final  -33.06 input  115.26 | X-H torsion
[ 5151 5142 5141 5139 ] final -111.16 input   59.98 | X-H torsion
[ 1669 1661 1660 1658 ] final  -12.40 input   59.97 | X-H torsion
[ 5186 5181 5180 5177 ] final   33.66 input   59.99 | X-H torsion
[ 1788 1769 1770 1771 ] final   25.61 input  122.82 | X-H torsion
[ 1883 1867 1866 1863 ] final -166.03 input   59.99 | X-H torsion
[ 1874 1868 1869 1870 ] final -163.51 input   29.02 | X-H torsion
[ 1878 1873 1872 1869 ] final  -27.26 input   60.02 | X-H torsion
[ 6490 6474 6475 6476 ] final -102.05 input  103.68 | X-H torsion
[ 4479 4458 4456 4453 ] final -178.16 input   59.98 | X-H torsion
[ 4466 4459 4460 4461 ] final  134.91 input   43.99 | X-H torsion
[ 4472 4465 4463 4460 ] final   15.73 input   60.01 | X-H torsion
[ 4502 4497 4496 4493 ] final  -52.94 input   59.97 | X-H torsion
[  675  663  664  665 ] final  -32.82 input  108.58 | X-H torsion
[  692  687  686  683 ] final  -62.58 input   59.99 | X-H torsion
[  713  708  707  706 ] final   29.67 input   60.01 | X-H torsion
[ 2432 2427 2428 2429 ] final  175.63 input   99.19 | X-H torsion
[ 2461 2452 2451 2449 ] final   31.09 input   60.00 | X-H torsion
[ 2484 2473 2474 2475 ] final   41.65 input  111.54 | X-H torsion
[ 1326 1317 1316 1315 ] final  -40.31 input   60.01 | X-H torsion
[ 14725 1568 1567 1566 ] final   37.61 input    0.00 | X-H torsion
[ 14794 1772 1771 1770 ] final  175.12 input    0.00 | X-H torsion
[ 14817 1871 1870 1869 ] final  -76.68 input    0.00 | X-H torsion
[ 14840 6477 6476 6475 ] final  -30.30 input   -0.00 | X-H torsion
[ 14855 4462 4461 4460 ] final   45.76 input    0.00 | X-H torsion
[ 14878  666  665  664 ] final -116.23 input   -0.00 | X-H torsion
[ 14895 2430 2429 2428 ] final   22.44 input    0.00 | X-H torsion
[ 14904 2476 2475 2474 ] final   37.92 input    0.00 | X-H torsion

> <Gold.Protein.ActiveResidues>
 LEU46   GLY47   ALA48   ASP49   ASN50   SER51   LYS53   VAL224  GLY225  GLY226 
 GLN227  ARG228  ASP229  GLU230  ARG231  ARG232  LYS233  TRP234  ILE235  GLN236 
 CYS237  PHE246  VAL247  VAL248  ASP249  ASP252  TYR253  ASN264  ARG265  LEU266 
 GLN267  GLU268  ALA269  LEU270  ASN271  LEU272  LYS274  SER275  ASN278  ASN279 
 ARG280  TRP281  ASP310  TYR311  PHE312  GLU344  ARG347  ILE348  ALA351  ILE18  
 TRP63   THR65   ASP66   SER67   ARG68   LEU69   TYR105  ALA106  PRO107  SER108 
 GLY109  ASN110  CYS149  ARG150  PHE151  ASP154  ASN155  GLN156  LEU192  ALA193 
 PRO194  ASP195  THR196  ARG197  LEU198  VAL200  ILE229  ASN230  ALA231  CYS233 
 PHE235 

> <Gold.Protein.RotatedAtoms>
  125.0190  143.0561  127.5597 H   0  0  0  0  0  0  0  0  0  0  0  0  # atno 675  bound_to 663 
  152.1687  115.7880  168.5472 H   0  0  0  0  0  0  0  0  0  0  0  0  # atno 692  bound_to 687 
  152.9287  121.3403  167.6539 H   0  0  0  0  0  0  0  0  0  0  0  0  # atno 713  bound_to 708 
  153.8067  121.7400  169.0010 H   0  0  0  0  0  0  0  0  0  0  0  0  # atno 714  bound_to 708 
  154.1274  122.4794  167.5531 H   0  0  0  0  0  0  0  0  0  0  0  0  # atno 715  bound_to 708 
  139.7450  135.7106  173.5432 H   0  0  0  0  0  0  0  0  0  0  0  0  # atno 1326 bound_to 1317
  140.6337  136.2121  174.8494 H   0  0  0  0  0  0  0  0  0  0  0  0  # atno 1327 bound_to 1317
  139.4135  137.1673  174.2609 H   0  0  0  0  0  0  0  0  0  0  0  0  # atno 1328 bound_to 1317
  133.1711  122.7338  130.9963 H   0  0  0  0  0  0  0  0  0  0  0  0  # atno 1581 bound_to 1565
  145.6514  101.0515  167.6302 H   0  0  0  0  0  0  0  0  0  0  0  0  # atno 1669 bound_to 1661
  136.9622  135.6150   98.5211 H   0  0  0  0  0  0  0  0  0  0  0  0  # atno 1788 bound_to 1769
  138.4114  146.7924  169.5418 H   0  0  0  0  0  0  0  0  0  0  0  0  # atno 1874 bound_to 1868
  140.6528  148.0628  169.1718 H   0  0  0  0  0  0  0  0  0  0  0  0  # atno 1878 bound_to 1873
  140.2467  122.9769  169.7954 H   0  0  0  0  0  0  0  0  0  0  0  0  # atno 1883 bound_to 1867
  126.7499  131.0587  139.7648 H   0  0  0  0  0  0  0  0  0  0  0  0  # atno 2432 bound_to 2427
  144.4433  102.1394  177.8758 H   0  0  0  0  0  0  0  0  0  0  0  0  # atno 2461 bound_to 2452
  126.3787  135.4129  139.2546 H   0  0  0  0  0  0  0  0  0  0  0  0  # atno 2484 bound_to 2473
  137.4337  143.2892  140.1334 H   0  0  0  0  0  0  0  0  0  0  0  0  # atno 4466 bound_to 4459
  137.7106  142.4960  141.6626 H   0  0  0  0  0  0  0  0  0  0  0  0  # atno 4472 bound_to 4465
  153.2205  163.3466  171.9952 H   0  0  0  0  0  0  0  0  0  0  0  0  # atno 4479 bound_to 4458
  146.3085  165.0611  167.3968 H   0  0  0  0  0  0  0  0  0  0  0  0  # atno 4502 bound_to 4497
  156.8646  162.0472  166.3210 H   0  0  0  0  0  0  0  0  0  0  0  0  # atno 5151 bound_to 5142
  158.7423  163.9613  174.2570 H   0  0  0  0  0  0  0  0  0  0  0  0  # atno 5186 bound_to 5181
  146.2796  138.6983  106.8317 H   0  0  0  0  0  0  0  0  0  0  0  0  # atno 6490 bound_to 6474
  133.9910  121.5400  131.9752 LP  0  0  0  0  0  0  0  0  0  0  0  0  # atno 14724 bound_to 1565
  134.5304  121.3521  127.2133 LP  0  0  0  0  0  0  0  0  0  0  0  0  # atno 14725 bound_to 1568
  133.1053  122.3112  126.9917 LP  0  0  0  0  0  0  0  0  0  0  0  0  # atno 14726 bound_to 1568
  155.5616  162.2931  165.3781 LP  0  0  0  0  0  0  0  0  0  0  0  0  # atno 14737 bound_to 5142
  156.7526  161.2907  164.8849 LP  0  0  0  0  0  0  0  0  0  0  0  0  # atno 14738 bound_to 5142
  145.3983   99.8913  168.7426 LP  0  0  0  0  0  0  0  0  0  0  0  0  # atno 14749 bound_to 1661
  146.8266  100.6814  168.6931 LP  0  0  0  0  0  0  0  0  0  0  0  0  # atno 14750 bound_to 1661
  159.7602  165.1710  173.8712 LP  0  0  0  0  0  0  0  0  0  0  0  0  # atno 14757 bound_to 5181
  160.3465  163.7562  174.4380 LP  0  0  0  0  0  0  0  0  0  0  0  0  # atno 14758 bound_to 5181
  136.7013  134.0376   99.2311 LP  0  0  0  0  0  0  0  0  0  0  0  0  # atno 14793 bound_to 1769
  137.1717  134.6490   94.0965 LP  0  0  0  0  0  0  0  0  0  0  0  0  # atno 14794 bound_to 1772
  137.0412  133.2357   95.0893 LP  0  0  0  0  0  0  0  0  0  0  0  0  # atno 14795 bound_to 1772
  140.3437  123.7396  168.3610 LP  0  0  0  0  0  0  0  0  0  0  0  0  # atno 14814 bound_to 1867
  139.8809  122.1750  168.4273 LP  0  0  0  0  0  0  0  0  0  0  0  0  # atno 14815 bound_to 1867
  136.8797  147.6318  169.6187 LP  0  0  0  0  0  0  0  0  0  0  0  0  # atno 14816 bound_to 1868
  136.2039  150.3356  169.4230 LP  0  0  0  0  0  0  0  0  0  0  0  0  # atno 14817 bound_to 1871
  135.6813  149.4937  170.8435 LP  0  0  0  0  0  0  0  0  0  0  0  0  # atno 14818 bound_to 1871
  141.0781  149.1945  168.0827 LP  0  0  0  0  0  0  0  0  0  0  0  0  # atno 14819 bound_to 1873
  139.9634  148.0649  167.6979 LP  0  0  0  0  0  0  0  0  0  0  0  0  # atno 14820 bound_to 1873
  145.0140  138.8539  105.6477 LP  0  0  0  0  0  0  0  0  0  0  0  0  # atno 14839 bound_to 6474
  143.5378  138.0085  109.8561 LP  0  0  0  0  0  0  0  0  0  0  0  0  # atno 14840 bound_to 6477
  142.1829  137.1788  109.1662 LP  0  0  0  0  0  0  0  0  0  0  0  0  # atno 14841 bound_to 6477
  152.7312  162.4412  170.7348 LP  0  0  0  0  0  0  0  0  0  0  0  0  # atno 14852 bound_to 4458
  151.6543  162.9256  171.8628 LP  0  0  0  0  0  0  0  0  0  0  0  0  # atno 14853 bound_to 4458
  138.4800  144.4658  139.3658 LP  0  0  0  0  0  0  0  0  0  0  0  0  # atno 14854 bound_to 4459
  139.3049  143.7872  137.6949 LP  0  0  0  0  0  0  0  0  0  0  0  0  # atno 14855 bound_to 4462
  140.0627  142.3842  137.0186 LP  0  0  0  0  0  0  0  0  0  0  0  0  # atno 14856 bound_to 4462
  138.4337  141.3441  142.5562 LP  0  0  0  0  0  0  0  0  0  0  0  0  # atno 14857 bound_to 4465
  137.2503  140.9431  141.5049 LP  0  0  0  0  0  0  0  0  0  0  0  0  # atno 14858 bound_to 4465
  145.6455  166.5470  167.3618 LP  0  0  0  0  0  0  0  0  0  0  0  0  # atno 14869 bound_to 4497
  147.2389  166.3679  167.6712 LP  0  0  0  0  0  0  0  0  0  0  0  0  # atno 14870 bound_to 4497
  125.4176  142.5777  125.9300 LP  0  0  0  0  0  0  0  0  0  0  0  0  # atno 14877 bound_to 663 
  127.7501  144.6747  129.7810 LP  0  0  0  0  0  0  0  0  0  0  0  0  # atno 14878 bound_to 666 
  128.9834  144.6943  128.5650 LP  0  0  0  0  0  0  0  0  0  0  0  0  # atno 14879 bound_to 666 
  151.6540  116.2632  167.0789 LP  0  0  0  0  0  0  0  0  0  0  0  0  # atno 14882 bound_to 687 
  153.2499  116.0676  167.3641 LP  0  0  0  0  0  0  0  0  0  0  0  0  # atno 14883 bound_to 687 
  127.3628  132.6941  139.6857 LP  0  0  0  0  0  0  0  0  0  0  0  0  # atno 14894 bound_to 2427
  123.6223  134.1903  141.3125 LP  0  0  0  0  0  0  0  0  0  0  0  0  # atno 14895 bound_to 2430
  124.4860  135.6505  140.9632 LP  0  0  0  0  0  0  0  0  0  0  0  0  # atno 14896 bound_to 2430
  145.3598  102.6405  176.6284 LP  0  0  0  0  0  0  0  0  0  0  0  0  # atno 14899 bound_to 2452
  144.7158  101.1399  176.6212 LP  0  0  0  0  0  0  0  0  0  0  0  0  # atno 14900 bound_to 2452
  127.4506  136.7611  139.5401 LP  0  0  0  0  0  0  0  0  0  0  0  0  # atno 14903 bound_to 2473
  124.4645  138.2300  136.3272 LP  0  0  0  0  0  0  0  0  0  0  0  0  # atno 14904 bound_to 2476
  123.1889  137.9774  137.4714 LP  0  0  0  0  0  0  0  0  0  0  0  0  # atno 14905 bound_to 2476

> <Gold.Score>
     Fitness  S(hb_ext) S(vdw_ext)  S(hb_int)    S(int)      intcor
     34.36       0.86      25.02       0.00      -0.91      -0.75

> <Gold.Goldscore.Fitness>
34.3620

> <Gold.Goldscore.Internal.Vdw>
-1.0655

> <Gold.Goldscore.Internal.Torsion>
-0.5949

> <Gold.Goldscore.External.Vdw>
25.0225

> <Gold.Goldscore.Internal.HBond>
0.0000

> <Gold.Goldscore.External.HBond>
0.8614

> <Gold.Goldscore.Internal.Correction>
-0.7550

> <Gold.Goldscore.Hbonds>
donor molecule, donor type, donor heavy atom, donor atom, acceptor molecule, acceptor atom, score
      P1  H  1381  1389       L1    17  0.01
      L1  H     8    22       P1  1382  0.42

> <Gold.Goldscore.Internal.Vdw.Weighted>
-1.0655

> <Gold.Goldscore.Internal.Torsion.Weighted>
-0.5949

> <Gold.Goldscore.External.Vdw.Weighted>
34.4060

> <Gold.Goldscore.Internal.HBond.Weighted>
0.0000

> <Gold.Goldscore.External.HBond.Weighted>
0.8614

> <Gold.Goldscore.Internal.Correction.Weighted>
-0.7550

> <Gold.Rescore>
     Score     S(PLP)   S(hbond)     S(cho)   S(metal)  DE(clash)   DE(tors)     intcor
     35.94     -34.98       0.90       0.00       0.00       0.00       0.86       ----

> <Gold.PLP.Fitness>
35.9430

> <Gold.PLP.PLP>
-34.9765

> <Gold.PLP.part.hbond>
-2.1649

> <Gold.PLP.part.metal>
0.0000

> <Gold.PLP.part.buried>
-5.6184

> <Gold.PLP.part.nonpolar>
-29.7586

> <Gold.PLP.part.repulsive>
0.8109

> <Gold.PLP.ligand.clash>
0.0000

> <Gold.PLP.ligand.torsion>
0.8608

> <Gold.PLP.Chemscore.Hbond>
0.8960

> <Gold.PLP.Chemscore.CHOScore>
0.0000

> <Gold.PLP.Chemscore.Metal>
0.0000

> <Gold.Chemscore.Hbonds>
donor molecule, donor type, donor heavy atom, donor atom, acceptor molecule, acceptor atom, score
      L1  H     8    22       P1  1382  0.94

> <Gold.PLP.Chemscore.Internal.Correction>
   9.000000E+99

#       Name:                CT1002167954
#       Creating user name   hitesit
#       Creation time:       Sun Apr 16 22:56:46 2023


#       File generated by GOLD software.
#

@<TRIPOS>MOLECULE
CT1002167954|ligand_prepared|mol2|1|dock2
    29    30     1
SMALL
NO_CHARGES


@<TRIPOS>ATOM
      1 C1         142.5542 142.8066 169.9619 C.3            1 RES1               0.0000
      2 C2         143.9591 142.1972 170.1458 C.ar           1 RES1               0.0000
      3 C3         142.1182 143.3009 171.3381 C.2            1 RES1               0.0000
      4 C4         142.7013 143.9116 168.9218 C.2            1 RES1               0.0000
      5 C5         141.4997 141.8007 169.4445 C.3            1 RES1               0.0000
      6 C6         145.0418 143.0026 170.4862 C.ar           1 RES1               0.0000
      7 C7         144.1871 140.8336 169.9814 C.ar           1 RES1               0.0000
      8 N8         142.1227 144.6471 171.5565 N.am           1 RES1               0.0000
      9 O9         141.8129 142.5195 172.2306 O.2            1 RES1               0.0000
     10 N10        142.4870 145.2041 169.3234 N.am           1 RES1               0.0000
     11 O11        143.0171 143.6762 167.7620 O.2            1 RES1               0.0000
     12 C12        140.1269 142.4139 169.2178 C.3            1 RES1               0.0000
     13 C13        146.3061 142.4639 170.6588 C.ar           1 RES1               0.0000
     14 C14        145.4522 140.2969 170.1543 C.ar           1 RES1               0.0000
     15 C15        142.2344 145.6247 170.6007 C.2            1 RES1               0.0000
     16 C16        146.5120 141.1108 170.4935 C.ar           1 RES1               0.0000
     17 O17        142.1073 146.8101 170.8933 O.2            1 RES1               0.0000
     18 H18        141.8551 141.3714 168.4996 H              1 RES1               0.0000
     19 H19        141.4058 140.9831 170.1699 H              1 RES1               0.0000
     20 H20        144.8994 144.0700 170.6181 H              1 RES1               0.0000
     21 H21        143.3684 140.1743 169.7135 H              1 RES1               0.0000
     22 H22        142.0350 144.9554 172.5196 H              1 RES1               0.0000
     23 H23        142.5185 145.9189 168.6034 H              1 RES1               0.0000
     24 H24        139.4253 141.6656 168.8552 H              1 RES1               0.0000
     25 H25        139.7320 142.8284 170.1430 H              1 RES1               0.0000
     26 H26        140.1786 143.2143 168.4826 H              1 RES1               0.0000
     27 H27        147.1371 143.1090 170.9244 H              1 RES1               0.0000
     28 H28        145.6098 139.2316 170.0225 H              1 RES1               0.0000
     29 H29        147.5024 140.6890 170.6291 H              1 RES1               0.0000
@<TRIPOS>BOND
    1    1    2 1     
    2    1    3 1     
    3    1    4 1     
    4    1    5 1     
    5    2    6 ar    
    6    2    7 ar    
    7    3    8 1     
    8    3    9 2     
    9    4   10 1     
   10    4   11 2     
   11    5   12 1     
   12    5   18 1     
   13    5   19 1     
   14    6   13 ar    
   15    6   20 1     
   16    7   14 ar    
   17    7   21 1     
   18    8   15 1     
   19    8   22 1     
   20   10   15 1     
   21   10   23 1     
   22   12   24 1     
   23   12   25 1     
   24   12   26 1     
   25   13   16 ar    
   26   13   27 1     
   27   14   16 ar    
   28   14   28 1     
   29   15   17 2     
   30   16   29 1     
@<TRIPOS>SUBSTRUCTURE
      1 RES1           1
@<TRIPOS>SET
DONOR_HYDROGENS      STATIC     ATOMS    <user>   **** ""
2 22 23
ATOM$RED        STATIC     ATOMS    COLORGROUP SYSTEM
2 22 23
@<TRIPOS>COMMENT
> <Gold.Version>
2022.3.0

> <Gold.Id.Protein>
unknown|7rmh_cavity_clean|pdb

> <Gold.Protein.RotatedTorsions>
[ 1581 1565 1566 1567 ] final  -88.34 input  115.26 | X-H torsion
[ 5151 5142 5141 5139 ] final  -38.94 input   59.98 | X-H torsion
[ 1669 1661 1660 1658 ] final -162.90 input   59.97 | X-H torsion
[ 5186 5181 5180 5177 ] final   47.44 input   59.99 | X-H torsion
[ 1788 1769 1770 1771 ] final  -91.26 input  122.82 | X-H torsion
[ 1883 1867 1866 1863 ] final  147.15 input   59.99 | X-H torsion
[ 1874 1868 1869 1870 ] final -153.96 input   29.02 | X-H torsion
[ 1878 1873 1872 1869 ] final  -30.11 input   60.02 | X-H torsion
[ 6490 6474 6475 6476 ] final -126.06 input  103.68 | X-H torsion
[ 4479 4458 4456 4453 ] final  -71.67 input   59.98 | X-H torsion
[ 4466 4459 4460 4461 ] final   32.38 input   43.99 | X-H torsion
[ 4472 4465 4463 4460 ] final   60.90 input   60.01 | X-H torsion
[ 4502 4497 4496 4493 ] final    3.45 input   59.97 | X-H torsion
[  675  663  664  665 ] final   51.83 input  108.58 | X-H torsion
[  692  687  686  683 ] final  -16.39 input   59.99 | X-H torsion
[  713  708  707  706 ] final  145.78 input   60.01 | X-H torsion
[ 2432 2427 2428 2429 ] final  166.17 input   99.19 | X-H torsion
[ 2461 2452 2451 2449 ] final  113.10 input   60.00 | X-H torsion
[ 2484 2473 2474 2475 ] final -171.78 input  111.54 | X-H torsion
[ 1326 1317 1316 1315 ] final  -39.96 input   60.01 | X-H torsion
[ 14725 1568 1567 1566 ] final  143.16 input    0.00 | X-H torsion
[ 14794 1772 1771 1770 ] final  -58.29 input    0.00 | X-H torsion
[ 14817 1871 1870 1869 ] final  119.54 input    0.00 | X-H torsion
[ 14840 6477 6476 6475 ] final   28.30 input   -0.00 | X-H torsion
[ 14855 4462 4461 4460 ] final  -36.90 input    0.00 | X-H torsion
[ 14878  666  665  664 ] final -165.01 input   -0.00 | X-H torsion
[ 14895 2430 2429 2428 ] final -109.20 input    0.00 | X-H torsion
[ 14904 2476 2475 2474 ] final  125.77 input    0.00 | X-H torsion

> <Gold.Protein.ActiveResidues>
 LEU46   GLY47   ALA48   ASP49   ASN50   SER51   LYS53   VAL224  GLY225  GLY226 
 GLN227  ARG228  ASP229  GLU230  ARG231  ARG232  LYS233  TRP234  ILE235  GLN236 
 CYS237  PHE246  VAL247  VAL248  ASP249  ASP252  TYR253  ASN264  ARG265  LEU266 
 GLN267  GLU268  ALA269  LEU270  ASN271  LEU272  LYS274  SER275  ASN278  ASN279 
 ARG280  TRP281  ASP310  TYR311  PHE312  GLU344  ARG347  ILE348  ALA351  ILE18  
 TRP63   THR65   ASP66   SER67   ARG68   LEU69   TYR105  ALA106  PRO107  SER108 
 GLY109  ASN110  CYS149  ARG150  PHE151  ASP154  ASN155  GLN156  LEU192  ALA193 
 PRO194  ASP195  THR196  ARG197  LEU198  VAL200  ILE229  ASN230  ALA231  CYS233 
 PHE235 

> <Gold.Protein.RotatedAtoms>
  124.9725  143.6307  126.5276 H   0  0  0  0  0  0  0  0  0  0  0  0  # atno 675  bound_to 663 
  152.8865  115.7838  168.3937 H   0  0  0  0  0  0  0  0  0  0  0  0  # atno 692  bound_to 687 
  153.7593  121.6962  169.0023 H   0  0  0  0  0  0  0  0  0  0  0  0  # atno 713  bound_to 708 
  154.1608  122.4940  167.6067 H   0  0  0  0  0  0  0  0  0  0  0  0  # atno 714  bound_to 708 
  152.9430  121.3703  167.5980 H   0  0  0  0  0  0  0  0  0  0  0  0  # atno 715  bound_to 708 
  139.7493  135.7072  173.5452 H   0  0  0  0  0  0  0  0  0  0  0  0  # atno 1326 bound_to 1317
  140.6326  136.2172  174.8519 H   0  0  0  0  0  0  0  0  0  0  0  0  # atno 1327 bound_to 1317
  139.4104  137.1655  174.2563 H   0  0  0  0  0  0  0  0  0  0  0  0  # atno 1328 bound_to 1317
  133.9382  122.9006  131.2377 H   0  0  0  0  0  0  0  0  0  0  0  0  # atno 1581 bound_to 1565
  145.8208   99.8786  168.9987 H   0  0  0  0  0  0  0  0  0  0  0  0  # atno 1669 bound_to 1661
  137.4843  134.2217   98.7926 H   0  0  0  0  0  0  0  0  0  0  0  0  # atno 1788 bound_to 1769
  138.3872  146.7608  169.6837 H   0  0  0  0  0  0  0  0  0  0  0  0  # atno 1874 bound_to 1868
  140.6844  148.0954  169.1817 H   0  0  0  0  0  0  0  0  0  0  0  0  # atno 1878 bound_to 1873
  140.4116  123.6272  169.4734 H   0  0  0  0  0  0  0  0  0  0  0  0  # atno 1883 bound_to 1867
  126.8217  131.0508  139.8915 H   0  0  0  0  0  0  0  0  0  0  0  0  # atno 2432 bound_to 2427
  144.4172  101.1455  177.1549 H   0  0  0  0  0  0  0  0  0  0  0  0  # atno 2461 bound_to 2452
  127.7173  136.4388  139.2620 H   0  0  0  0  0  0  0  0  0  0  0  0  # atno 2484 bound_to 2473
  138.0014  143.5958  138.9005 H   0  0  0  0  0  0  0  0  0  0  0  0  # atno 4466 bound_to 4459
  137.2555  142.0676  141.3070 H   0  0  0  0  0  0  0  0  0  0  0  0  # atno 4472 bound_to 4465
  151.7506  163.0484  172.0194 H   0  0  0  0  0  0  0  0  0  0  0  0  # atno 4479 bound_to 4458
  147.1092  165.3902  167.5795 H   0  0  0  0  0  0  0  0  0  0  0  0  # atno 4502 bound_to 4497
  157.1873  161.3814  165.5027 H   0  0  0  0  0  0  0  0  0  0  0  0  # atno 5151 bound_to 5142
  158.8476  163.7775  174.3325 H   0  0  0  0  0  0  0  0  0  0  0  0  # atno 5186 bound_to 5181
  146.2930  139.0512  106.7532 H   0  0  0  0  0  0  0  0  0  0  0  0  # atno 6490 bound_to 6474
  133.2432  121.3774  131.7399 LP  0  0  0  0  0  0  0  0  0  0  0  0  # atno 14724 bound_to 1565
  133.2270  121.2953  126.7659 LP  0  0  0  0  0  0  0  0  0  0  0  0  # atno 14725 bound_to 1568
  134.4087  122.3680  127.4391 LP  0  0  0  0  0  0  0  0  0  0  0  0  # atno 14726 bound_to 1568
  156.2041  162.4223  166.2756 LP  0  0  0  0  0  0  0  0  0  0  0  0  # atno 14737 bound_to 5142
  155.7849  161.8323  164.8117 LP  0  0  0  0  0  0  0  0  0  0  0  0  # atno 14738 bound_to 5142
  146.7802  101.0028  168.3181 LP  0  0  0  0  0  0  0  0  0  0  0  0  # atno 14749 bound_to 1661
  145.2741  100.7515  167.7391 LP  0  0  0  0  0  0  0  0  0  0  0  0  # atno 14750 bound_to 1661
  159.5343  165.1738  173.8559 LP  0  0  0  0  0  0  0  0  0  0  0  0  # atno 14757 bound_to 5181
  160.4663  163.9384  174.3774 LP  0  0  0  0  0  0  0  0  0  0  0  0  # atno 14758 bound_to 5181
  136.1944  135.3904   98.9675 LP  0  0  0  0  0  0  0  0  0  0  0  0  # atno 14793 bound_to 1769
  137.7191  133.6175   95.1116 LP  0  0  0  0  0  0  0  0  0  0  0  0  # atno 14794 bound_to 1772
  136.4938  134.2673   94.0742 LP  0  0  0  0  0  0  0  0  0  0  0  0  # atno 14795 bound_to 1772
  140.1300  123.1571  167.9410 LP  0  0  0  0  0  0  0  0  0  0  0  0  # atno 14814 bound_to 1867
  139.9286  122.1027  169.1716 LP  0  0  0  0  0  0  0  0  0  0  0  0  # atno 14815 bound_to 1867
  136.9032  147.6626  169.4804 LP  0  0  0  0  0  0  0  0  0  0  0  0  # atno 14816 bound_to 1868
  135.6608  149.7216  170.9291 LP  0  0  0  0  0  0  0  0  0  0  0  0  # atno 14817 bound_to 1871
  136.2244  150.1077  169.3374 LP  0  0  0  0  0  0  0  0  0  0  0  0  # atno 14818 bound_to 1871
  141.0577  149.1937  168.0406 LP  0  0  0  0  0  0  0  0  0  0  0  0  # atno 14819 bound_to 1873
  139.9520  148.0329  167.7300 LP  0  0  0  0  0  0  0  0  0  0  0  0  # atno 14820 bound_to 1873
  145.0006  138.5006  105.7264 LP  0  0  0  0  0  0  0  0  0  0  0  0  # atno 14839 bound_to 6474
  142.8393  138.4466  109.6598 LP  0  0  0  0  0  0  0  0  0  0  0  0  # atno 14840 bound_to 6477
  142.8815  136.7408  109.3625 LP  0  0  0  0  0  0  0  0  0  0  0  0  # atno 14841 bound_to 6477
  153.3520  163.2700  171.8348 LP  0  0  0  0  0  0  0  0  0  0  0  0  # atno 14852 bound_to 4458
  152.5138  162.3971  170.7384 LP  0  0  0  0  0  0  0  0  0  0  0  0  # atno 14853 bound_to 4458
  137.9330  144.1704  140.5539 LP  0  0  0  0  0  0  0  0  0  0  0  0  # atno 14854 bound_to 4459
  138.9388  142.7089  137.5870 LP  0  0  0  0  0  0  0  0  0  0  0  0  # atno 14855 bound_to 4462
  140.4288  143.4625  137.1265 LP  0  0  0  0  0  0  0  0  0  0  0  0  # atno 14856 bound_to 4462
  138.4337  142.0571  142.4295 LP  0  0  0  0  0  0  0  0  0  0  0  0  # atno 14857 bound_to 4465
  137.7086  140.6616  141.9897 LP  0  0  0  0  0  0  0  0  0  0  0  0  # atno 14858 bound_to 4465
  145.5333  165.6668  167.2820 LP  0  0  0  0  0  0  0  0  0  0  0  0  # atno 14869 bound_to 4497
  146.5449  166.9167  167.5670 LP  0  0  0  0  0  0  0  0  0  0  0  0  # atno 14870 bound_to 4497
  125.4635  142.0105  126.9489 LP  0  0  0  0  0  0  0  0  0  0  0  0  # atno 14877 bound_to 663 
  127.9419  145.3291  129.5654 LP  0  0  0  0  0  0  0  0  0  0  0  0  # atno 14878 bound_to 666 
  128.7917  144.0399  128.7806 LP  0  0  0  0  0  0  0  0  0  0  0  0  # atno 14879 bound_to 666 
  151.4194  116.0783  167.7554 LP  0  0  0  0  0  0  0  0  0  0  0  0  # atno 14882 bound_to 687 
  152.7613  116.2568  166.8422 LP  0  0  0  0  0  0  0  0  0  0  0  0  # atno 14883 bound_to 687 
  127.2929  132.7018  139.5621 LP  0  0  0  0  0  0  0  0  0  0  0  0  # atno 14894 bound_to 2427
  124.2239  135.3238  140.3906 LP  0  0  0  0  0  0  0  0  0  0  0  0  # atno 14895 bound_to 2430
  123.8844  134.5170  141.8851 LP  0  0  0  0  0  0  0  0  0  0  0  0  # atno 14896 bound_to 2430
  144.7551  102.6379  177.7078 LP  0  0  0  0  0  0  0  0  0  0  0  0  # atno 14899 bound_to 2452
  145.3468  102.1439  176.2682 LP  0  0  0  0  0  0  0  0  0  0  0  0  # atno 14900 bound_to 2452
  126.1349  135.7527  139.5327 LP  0  0  0  0  0  0  0  0  0  0  0  0  # atno 14903 bound_to 2473
  123.4853  137.5338  136.3437 LP  0  0  0  0  0  0  0  0  0  0  0  0  # atno 14904 bound_to 2476
  124.1681  138.6736  137.4549 LP  0  0  0  0  0  0  0  0  0  0  0  0  # atno 14905 bound_to 2476

> <Gold.Score>
     Fitness  S(hb_ext) S(vdw_ext)  S(hb_int)    S(int)      intcor
     32.86       2.02      22.48       0.00      -0.06      -0.76

> <Gold.Goldscore.Fitness>
32.8619

> <Gold.Goldscore.Internal.Vdw>
-0.4418

> <Gold.Goldscore.Internal.Torsion>
-0.3731

> <Gold.Goldscore.External.Vdw>
22.4751

> <Gold.Goldscore.Internal.HBond>
0.0000

> <Gold.Goldscore.External.HBond>
2.0151

> <Gold.Goldscore.Internal.Correction>
-0.7585

> <Gold.Goldscore.Hbonds>
donor molecule, donor type, donor heavy atom, donor atom, acceptor molecule, acceptor atom, score
      P1  H  1873  1878       L1    17  0.76
      L1  H     8    22       P1  6894  0.24

> <Gold.Goldscore.Internal.Vdw.Weighted>
-0.4418

> <Gold.Goldscore.Internal.Torsion.Weighted>
-0.3731

> <Gold.Goldscore.External.Vdw.Weighted>
30.9033

> <Gold.Goldscore.Internal.HBond.Weighted>
0.0000

> <Gold.Goldscore.External.HBond.Weighted>
2.0151

> <Gold.Goldscore.Internal.Correction.Weighted>
-0.7585

> <Gold.Rescore>
     Score     S(PLP)   S(hbond)     S(cho)   S(metal)  DE(clash)   DE(tors)     intcor
     29.72     -24.73       1.68       0.00       0.00       0.00       0.02       ----

> <Gold.PLP.Fitness>
29.7244

> <Gold.PLP.PLP>
-24.7315

> <Gold.PLP.part.hbond>
-4.1884

> <Gold.PLP.part.metal>
0.0000

> <Gold.PLP.part.buried>
-0.6681

> <Gold.PLP.part.nonpolar>
-26.2591

> <Gold.PLP.part.repulsive>
5.6139

> <Gold.PLP.ligand.clash>
0.0000

> <Gold.PLP.ligand.torsion>
0.0175

> <Gold.PLP.Chemscore.Hbond>
1.6760

> <Gold.PLP.Chemscore.CHOScore>
0.0000

> <Gold.PLP.Chemscore.Metal>
0.0000

> <Gold.Chemscore.Hbonds>
donor molecule, donor type, donor heavy atom, donor atom, acceptor molecule, acceptor atom, score
      L1  H     8    22       P1  6894  0.93

> <Gold.PLP.Chemscore.Internal.Correction>
   9.000000E+99

#       Name:                CT1002167954
#       Creating user name   hitesit
#       Creation time:       Sun Apr 16 22:57:42 2023


#       File generated by GOLD software.
#

@<TRIPOS>MOLECULE
CT1002167954|ligand_prepared|mol2|1|dock5
    29    30     1
SMALL
NO_CHARGES


@<TRIPOS>ATOM
      1 C1         144.2134 145.1033 169.4465 C.3            1 RES1               0.0000
      2 C2         143.5539 144.2838 168.3185 C.ar           1 RES1               0.0000
      3 C3         144.0681 146.5700 169.0517 C.2            1 RES1               0.0000
      4 C4         143.4808 144.7290 170.7301 C.2            1 RES1               0.0000
      5 C5         145.7156 144.7950 169.6465 C.3            1 RES1               0.0000
      6 C6         144.2465 144.0114 167.1426 C.ar           1 RES1               0.0000
      7 C7         142.2570 143.7922 168.4403 C.ar           1 RES1               0.0000
      8 N8         143.1517 147.3189 169.7294 N.am           1 RES1               0.0000
      9 O9         144.7194 147.0521 168.1332 O.2            1 RES1               0.0000
     10 N10        142.7435 145.7003 171.3552 N.am           1 RES1               0.0000
     11 O11        143.5218 143.5973 171.1969 O.2            1 RES1               0.0000
     12 C12        146.2979 145.3841 170.9216 C.3            1 RES1               0.0000
     13 C13        143.6647 143.2718 166.1263 C.ar           1 RES1               0.0000
     14 C14        141.6770 143.0530 167.4226 C.ar           1 RES1               0.0000
     15 C15        142.5209 146.9700 170.8965 C.2            1 RES1               0.0000
     16 C16        142.3799 142.7917 166.2657 C.ar           1 RES1               0.0000
     17 O17        141.8009 147.7696 171.4876 O.2            1 RES1               0.0000
     18 H18        145.8533 143.7069 169.6653 H              1 RES1               0.0000
     19 H19        146.2742 145.1889 168.7884 H              1 RES1               0.0000
     20 H20        145.2576 144.3830 167.0139 H              1 RES1               0.0000
     21 H21        141.6847 143.9863 169.3410 H              1 RES1               0.0000
     22 H22        142.9133 148.2218 169.3317 H              1 RES1               0.0000
     23 H23        142.3217 145.4540 172.2451 H              1 RES1               0.0000
     24 H24        147.3538 145.1383 171.0129 H              1 RES1               0.0000
     25 H25        146.2008 146.4678 170.9254 H              1 RES1               0.0000
     26 H26        145.7823 144.9946 171.7970 H              1 RES1               0.0000
     27 H27        144.2217 143.0701 165.2172 H              1 RES1               0.0000
     28 H28        140.6653 142.6777 167.5364 H              1 RES1               0.0000
     29 H29        141.9246 142.2120 165.4696 H              1 RES1               0.0000
@<TRIPOS>BOND
    1    1    2 1     
    2    1    3 1     
    3    1    4 1     
    4    1    5 1     
    5    2    6 ar    
    6    2    7 ar    
    7    3    8 1     
    8    3    9 2     
    9    4   10 1     
   10    4   11 2     
   11    5   12 1     
   12    5   18 1     
   13    5   19 1     
   14    6   13 ar    
   15    6   20 1     
   16    7   14 ar    
   17    7   21 1     
   18    8   15 1     
   19    8   22 1     
   20   10   15 1     
   21   10   23 1     
   22   12   24 1     
   23   12   25 1     
   24   12   26 1     
   25   13   16 ar    
   26   13   27 1     
   27   14   16 ar    
   28   14   28 1     
   29   15   17 2     
   30   16   29 1     
@<TRIPOS>SUBSTRUCTURE
      1 RES1           1
@<TRIPOS>SET
DONOR_HYDROGENS      STATIC     ATOMS    <user>   **** ""
2 22 23
ATOM$RED        STATIC     ATOMS    COLORGROUP SYSTEM
2 22 23
@<TRIPOS>COMMENT
> <Gold.Version>
2022.3.0

> <Gold.Id.Protein>
unknown|7rmh_cavity_clean|pdb

> <Gold.Protein.RotatedTorsions>
[ 1581 1565 1566 1567 ] final  130.17 input  115.26 | X-H torsion
[ 5151 5142 5141 5139 ] final   73.29 input   59.98 | X-H torsion
[ 1669 1661 1660 1658 ] final  139.13 input   59.97 | X-H torsion
[ 5186 5181 5180 5177 ] final   86.99 input   59.99 | X-H torsion
[ 1788 1769 1770 1771 ] final   26.13 input  122.82 | X-H torsion
[ 1883 1867 1866 1863 ] final  -34.11 input   59.99 | X-H torsion
[ 1874 1868 1869 1870 ] final -151.89 input   29.02 | X-H torsion
[ 1878 1873 1872 1869 ] final  -37.63 input   60.02 | X-H torsion
[ 6490 6474 6475 6476 ] final   36.17 input  103.68 | X-H torsion
[ 4479 4458 4456 4453 ] final  172.15 input   59.98 | X-H torsion
[ 4466 4459 4460 4461 ] final   65.13 input   43.99 | X-H torsion
[ 4472 4465 4463 4460 ] final -136.88 input   60.01 | X-H torsion
[ 4502 4497 4496 4493 ] final    3.24 input   59.97 | X-H torsion
[  675  663  664  665 ] final  105.65 input  108.58 | X-H torsion
[  692  687  686  683 ] final   96.28 input   59.99 | X-H torsion
[  713  708  707  706 ] final    2.09 input   60.01 | X-H torsion
[ 2432 2427 2428 2429 ] final  -64.09 input   99.19 | X-H torsion
[ 2461 2452 2451 2449 ] final  103.22 input   60.00 | X-H torsion
[ 2484 2473 2474 2475 ] final  130.96 input  111.54 | X-H torsion
[ 1326 1317 1316 1315 ] final  107.23 input   60.01 | X-H torsion
[ 14725 1568 1567 1566 ] final    6.69 input    0.00 | X-H torsion
[ 14794 1772 1771 1770 ] final  104.71 input    0.00 | X-H torsion
[ 14817 1871 1870 1869 ] final -139.93 input    0.00 | X-H torsion
[ 14840 6477 6476 6475 ] final -147.46 input   -0.00 | X-H torsion
[ 14855 4462 4461 4460 ] final -110.11 input    0.00 | X-H torsion
[ 14878  666  665  664 ] final   38.71 input   -0.00 | X-H torsion
[ 14895 2430 2429 2428 ] final -157.70 input    0.00 | X-H torsion
[ 14904 2476 2475 2474 ] final -122.97 input    0.00 | X-H torsion

> <Gold.Protein.ActiveResidues>
 LEU46   GLY47   ALA48   ASP49   ASN50   SER51   LYS53   VAL224  GLY225  GLY226 
 GLN227  ARG228  ASP229  GLU230  ARG231  ARG232  LYS233  TRP234  ILE235  GLN236 
 CYS237  PHE246  VAL247  VAL248  ASP249  ASP252  TYR253  ASN264  ARG265  LEU266 
 GLN267  GLU268  ALA269  LEU270  ASN271  LEU272  LYS274  SER275  ASN278  ASN279 
 ARG280  TRP281  ASP310  TYR311  PHE312  GLU344  ARG347  ILE348  ALA351  ILE18  
 TRP63   THR65   ASP66   SER67   ARG68   LEU69   TYR105  ALA106  PRO107  SER108 
 GLY109  ASN110  CYS149  ARG150  PHE151  ASP154  ASN155  GLN156  LEU192  ALA193 
 PRO194  ASP195  THR196  ARG197  LEU198  VAL200  ILE229  ASN230  ALA231  CYS233 
 PHE235 

> <Gold.Protein.RotatedAtoms>
  125.2118  143.1612  125.9327 H   0  0  0  0  0  0  0  0  0  0  0  0  # atno 675  bound_to 663 
  152.8623  116.2293  166.9013 H   0  0  0  0  0  0  0  0  0  0  0  0  # atno 692  bound_to 687 
  153.0929  121.5960  167.3143 H   0  0  0  0  0  0  0  0  0  0  0  0  # atno 713  bound_to 708 
  153.4652  121.4483  168.9220 H   0  0  0  0  0  0  0  0  0  0  0  0  # atno 714  bound_to 708 
  154.3044  122.5152  167.9716 H   0  0  0  0  0  0  0  0  0  0  0  0  # atno 715  bound_to 708 
  140.4651  136.6183  174.9696 H   0  0  0  0  0  0  0  0  0  0  0  0  # atno 1326 bound_to 1317
  139.2343  136.9426  173.9078 H   0  0  0  0  0  0  0  0  0  0  0  0  # atno 1327 bound_to 1317
  140.0921  135.5304  173.7762 H   0  0  0  0  0  0  0  0  0  0  0  0  # atno 1328 bound_to 1317
  133.7806  121.3966  131.9489 H   0  0  0  0  0  0  0  0  0  0  0  0  # atno 1581 bound_to 1565
  146.6168  100.3130  168.9775 H   0  0  0  0  0  0  0  0  0  0  0  0  # atno 1669 bound_to 1661
  136.9549  135.6172   98.5235 H   0  0  0  0  0  0  0  0  0  0  0  0  # atno 1788 bound_to 1769
  138.3792  146.7556  169.7143 H   0  0  0  0  0  0  0  0  0  0  0  0  # atno 1874 bound_to 1868
  140.7663  148.1855  169.1976 H   0  0  0  0  0  0  0  0  0  0  0  0  # atno 1878 bound_to 1873
  139.8979  122.2882  168.2693 H   0  0  0  0  0  0  0  0  0  0  0  0  # atno 1883 bound_to 1867
  126.8564  132.4072  139.0383 H   0  0  0  0  0  0  0  0  0  0  0  0  # atno 2432 bound_to 2427
  144.3653  101.2064  177.2947 H   0  0  0  0  0  0  0  0  0  0  0  0  # atno 2461 bound_to 2452
  127.5408  135.6850  138.9266 H   0  0  0  0  0  0  0  0  0  0  0  0  # atno 2484 bound_to 2473
  137.6994  143.2792  139.1482 H   0  0  0  0  0  0  0  0  0  0  0  0  # atno 4466 bound_to 4459
  138.1896  140.9033  142.3999 H   0  0  0  0  0  0  0  0  0  0  0  0  # atno 4472 bound_to 4465
  153.3147  163.2935  171.8797 H   0  0  0  0  0  0  0  0  0  0  0  0  # atno 4479 bound_to 4458
  147.1071  165.3876  167.5789 H   0  0  0  0  0  0  0  0  0  0  0  0  # atno 4502 bound_to 4497
  155.8707  161.7506  164.7644 H   0  0  0  0  0  0  0  0  0  0  0  0  # atno 5151 bound_to 5142
  159.3634  163.4450  174.4897 H   0  0  0  0  0  0  0  0  0  0  0  0  # atno 5186 bound_to 5181
  145.0838  138.2620  105.8228 H   0  0  0  0  0  0  0  0  0  0  0  0  # atno 6490 bound_to 6474
  133.3968  122.8437  131.0465 LP  0  0  0  0  0  0  0  0  0  0  0  0  # atno 14724 bound_to 1565
  134.6423  121.7748  127.3612 LP  0  0  0  0  0  0  0  0  0  0  0  0  # atno 14725 bound_to 1568
  132.9933  121.8885  126.8437 LP  0  0  0  0  0  0  0  0  0  0  0  0  # atno 14726 bound_to 1568
  157.2195  161.4301  165.6161 LP  0  0  0  0  0  0  0  0  0  0  0  0  # atno 14737 bound_to 5142
  156.0959  162.4526  166.2149 LP  0  0  0  0  0  0  0  0  0  0  0  0  # atno 14738 bound_to 5142
  146.1267  101.2168  167.7164 LP  0  0  0  0  0  0  0  0  0  0  0  0  # atno 14749 bound_to 1661
  145.1257  100.0999  168.3622 LP  0  0  0  0  0  0  0  0  0  0  0  0  # atno 14750 bound_to 1661
  158.9555  164.9126  173.9169 LP  0  0  0  0  0  0  0  0  0  0  0  0  # atno 14757 bound_to 5181
  160.5257  164.5345  174.1580 LP  0  0  0  0  0  0  0  0  0  0  0  0  # atno 14758 bound_to 5181
  136.7084  134.0353   99.2287 LP  0  0  0  0  0  0  0  0  0  0  0  0  # atno 14793 bound_to 1769
  136.3638  134.0663   94.1650 LP  0  0  0  0  0  0  0  0  0  0  0  0  # atno 14794 bound_to 1772
  137.8491  133.8185   95.0208 LP  0  0  0  0  0  0  0  0  0  0  0  0  # atno 14795 bound_to 1772
  140.1922  122.7897  169.7893 LP  0  0  0  0  0  0  0  0  0  0  0  0  # atno 14814 bound_to 1867
  140.3837  123.8184  168.5357 LP  0  0  0  0  0  0  0  0  0  0  0  0  # atno 14815 bound_to 1867
  136.9111  147.6677  169.4506 LP  0  0  0  0  0  0  0  0  0  0  0  0  # atno 14816 bound_to 1868
  135.9615  150.7794  170.1775 LP  0  0  0  0  0  0  0  0  0  0  0  0  # atno 14817 bound_to 1871
  135.9237  149.0500  170.0890 LP  0  0  0  0  0  0  0  0  0  0  0  0  # atno 14818 bound_to 1871
  140.9979  149.1828  167.9329 LP  0  0  0  0  0  0  0  0  0  0  0  0  # atno 14819 bound_to 1873
  139.9292  147.9531  167.8217 LP  0  0  0  0  0  0  0  0  0  0  0  0  # atno 14820 bound_to 1873
  146.2115  139.2909  106.6580 LP  0  0  0  0  0  0  0  0  0  0  0  0  # atno 14839 bound_to 6474
  142.9411  136.7405  109.3861 LP  0  0  0  0  0  0  0  0  0  0  0  0  # atno 14840 bound_to 6477
  142.7796  138.4468  109.6362 LP  0  0  0  0  0  0  0  0  0  0  0  0  # atno 14841 bound_to 6477
  152.5757  162.4068  170.7329 LP  0  0  0  0  0  0  0  0  0  0  0  0  # atno 14852 bound_to 4458
  151.7150  163.0134  171.9810 LP  0  0  0  0  0  0  0  0  0  0  0  0  # atno 14853 bound_to 4458
  138.2240  144.4756  140.3152 LP  0  0  0  0  0  0  0  0  0  0  0  0  # atno 14854 bound_to 4459
  139.7425  142.2533  137.1252 LP  0  0  0  0  0  0  0  0  0  0  0  0  # atno 14855 bound_to 4462
  139.6250  143.9181  137.5883 LP  0  0  0  0  0  0  0  0  0  0  0  0  # atno 14856 bound_to 4462
  137.1109  141.4066  141.2903 LP  0  0  0  0  0  0  0  0  0  0  0  0  # atno 14857 bound_to 4465
  138.0908  142.4845  142.0283 LP  0  0  0  0  0  0  0  0  0  0  0  0  # atno 14858 bound_to 4465
  145.5321  165.6701  167.2820 LP  0  0  0  0  0  0  0  0  0  0  0  0  # atno 14869 bound_to 4497
  146.5482  166.9161  167.5676 LP  0  0  0  0  0  0  0  0  0  0  0  0  # atno 14870 bound_to 4497
  125.2273  142.4739  127.5361 LP  0  0  0  0  0  0  0  0  0  0  0  0  # atno 14877 bound_to 663 
  128.9358  144.3267  128.6269 LP  0  0  0  0  0  0  0  0  0  0  0  0  # atno 14878 bound_to 666 
  127.7978  145.0423  129.7191 LP  0  0  0  0  0  0  0  0  0  0  0  0  # atno 14879 bound_to 666 
  152.7876  115.7734  168.4612 LP  0  0  0  0  0  0  0  0  0  0  0  0  # atno 14882 bound_to 687 
  151.4175  116.1127  167.6399 LP  0  0  0  0  0  0  0  0  0  0  0  0  # atno 14883 bound_to 687 
  127.2590  131.3794  140.3940 LP  0  0  0  0  0  0  0  0  0  0  0  0  # atno 14894 bound_to 2427
  124.4863  135.6508  140.9652 LP  0  0  0  0  0  0  0  0  0  0  0  0  # atno 14895 bound_to 2430
  123.6220  134.1901  141.3105 LP  0  0  0  0  0  0  0  0  0  0  0  0  # atno 14896 bound_to 2430
  144.8485  102.7276  177.6100 LP  0  0  0  0  0  0  0  0  0  0  0  0  # atno 14899 bound_to 2452
  145.3057  101.9929  176.2251 LP  0  0  0  0  0  0  0  0  0  0  0  0  # atno 14900 bound_to 2452
  126.3084  136.4936  139.8624 LP  0  0  0  0  0  0  0  0  0  0  0  0  # atno 14903 bound_to 2473
  123.3437  138.1726  137.6148 LP  0  0  0  0  0  0  0  0  0  0  0  0  # atno 14904 bound_to 2476
  124.3097  138.0348  136.1838 LP  0  0  0  0  0  0  0  0  0  0  0  0  # atno 14905 bound_to 2476

> <Gold.Score>
     Fitness  S(hb_ext) S(vdw_ext)  S(hb_int)    S(int)      intcor
     32.42       1.96      22.79       0.00      -0.89      -0.76

> <Gold.Goldscore.Fitness>
32.4168

> <Gold.Goldscore.Internal.Vdw>
-1.0720

> <Gold.Goldscore.Internal.Torsion>
-0.5722

> <Gold.Goldscore.External.Vdw>
22.7917

> <Gold.Goldscore.Internal.HBond>
0.0000

> <Gold.Goldscore.External.HBond>
1.9639

> <Gold.Goldscore.Internal.Correction>
-0.7585

> <Gold.Goldscore.Hbonds>
donor molecule, donor type, donor heavy atom, donor atom, acceptor molecule, acceptor atom, score
      P1  H  1873  1878       L1    17  0.27
      L1  H    10    23       P1  6894  0.71

> <Gold.Goldscore.Internal.Vdw.Weighted>
-1.0720

> <Gold.Goldscore.Internal.Torsion.Weighted>
-0.5722

> <Gold.Goldscore.External.Vdw.Weighted>
31.3386

> <Gold.Goldscore.Internal.HBond.Weighted>
0.0000

> <Gold.Goldscore.External.HBond.Weighted>
1.9639

> <Gold.Goldscore.Internal.Correction.Weighted>
-0.7585

> <Gold.Rescore>
     Score     S(PLP)   S(hbond)     S(cho)   S(metal)  DE(clash)   DE(tors)     intcor
     30.65     -29.74       0.99       0.00       0.00       0.00       1.04       ----

> <Gold.PLP.Fitness>
30.6465

> <Gold.PLP.PLP>
-29.7411

> <Gold.PLP.part.hbond>
-1.2610

> <Gold.PLP.part.metal>
0.0000

> <Gold.PLP.part.buried>
-5.3818

> <Gold.PLP.part.nonpolar>
-24.8709

> <Gold.PLP.part.repulsive>
0.4856

> <Gold.PLP.ligand.clash>
0.0000

> <Gold.PLP.ligand.torsion>
1.0353

> <Gold.PLP.Chemscore.Hbond>
0.9920

> <Gold.PLP.Chemscore.CHOScore>
0.0000

> <Gold.PLP.Chemscore.Metal>
0.0000

> <Gold.Chemscore.Hbonds>
donor molecule, donor type, donor heavy atom, donor atom, acceptor molecule, acceptor atom, score
      L1  H    10    23       P1  6894  1.00

> <Gold.PLP.Chemscore.Internal.Correction>
   9.000000E+99

#       Name:                CT1002167954
#       Creating user name   hitesit
#       Creation time:       Sun Apr 16 22:57:04 2023


#       File generated by GOLD software.
#

@<TRIPOS>MOLECULE
CT1002167954|ligand_prepared|mol2|1|dock3
    29    30     1
SMALL
NO_CHARGES


@<TRIPOS>ATOM
      1 C1         142.6330 143.0904 169.9548 C.3            1 RES1               0.0000
      2 C2         144.0787 142.5947 170.1626 C.ar           1 RES1               0.0000
      3 C3         142.1441 143.5693 171.3185 C.2            1 RES1               0.0000
      4 C4         142.7061 144.1882 168.8993 C.2            1 RES1               0.0000
      5 C5         141.6657 141.9982 169.4419 C.3            1 RES1               0.0000
      6 C6         144.3823 141.2393 170.0767 C.ar           1 RES1               0.0000
      7 C7         145.1179 143.4795 170.4378 C.ar           1 RES1               0.0000
      8 N8         142.0417 144.9148 171.5162 N.am           1 RES1               0.0000
      9 O9         141.8900 142.7797 172.2197 O.2            1 RES1               0.0000
     10 N10        142.3876 145.4659 169.2787 N.am           1 RES1               0.0000
     11 O11        143.0526 143.9612 167.7466 O.2            1 RES1               0.0000
     12 C12        140.2703 142.5138 169.1272 C.3            1 RES1               0.0000
     13 C13        145.6784 140.7851 170.2564 C.ar           1 RES1               0.0000
     14 C14        146.4133 143.0232 170.6175 C.ar           1 RES1               0.0000
     15 C15        142.0884 145.8841 170.5467 C.2            1 RES1               0.0000
     16 C16        146.6947 141.6766 170.5265 C.ar           1 RES1               0.0000
     17 O17        141.8664 147.0603 170.8196 O.2            1 RES1               0.0000
     18 H18        142.0891 141.5491 168.5350 H              1 RES1               0.0000
     19 H19        141.5881 141.2104 170.2013 H              1 RES1               0.0000
     20 H20        143.5952 140.5226 169.8674 H              1 RES1               0.0000
     21 H21        144.9197 144.5432 170.5150 H              1 RES1               0.0000
     22 H22        141.9192 145.2294 172.4735 H              1 RES1               0.0000
     23 H23        142.3720 146.1704 168.5482 H              1 RES1               0.0000
     24 H24        139.6323 141.7074 168.7715 H              1 RES1               0.0000
     25 H25        139.8093 142.9447 170.0135 H              1 RES1               0.0000
     26 H26        140.3073 143.2815 168.3570 H              1 RES1               0.0000
     27 H27        145.8944 139.7242 170.1852 H              1 RES1               0.0000
     28 H28        147.2099 143.7283 170.8304 H              1 RES1               0.0000
     29 H29        147.7099 141.3206 170.6668 H              1 RES1               0.0000
@<TRIPOS>BOND
    1    1    2 1     
    2    1    3 1     
    3    1    4 1     
    4    1    5 1     
    5    2    6 ar    
    6    2    7 ar    
    7    3    8 1     
    8    3    9 2     
    9    4   10 1     
   10    4   11 2     
   11    5   12 1     
   12    5   18 1     
   13    5   19 1     
   14    6   13 ar    
   15    6   20 1     
   16    7   14 ar    
   17    7   21 1     
   18    8   15 1     
   19    8   22 1     
   20   10   15 1     
   21   10   23 1     
   22   12   24 1     
   23   12   25 1     
   24   12   26 1     
   25   13   16 ar    
   26   13   27 1     
   27   14   16 ar    
   28   14   28 1     
   29   15   17 2     
   30   16   29 1     
@<TRIPOS>SUBSTRUCTURE
      1 RES1           1
@<TRIPOS>SET
DONOR_HYDROGENS      STATIC     ATOMS    <user>   **** ""
2 22 23
ATOM$RED        STATIC     ATOMS    COLORGROUP SYSTEM
2 22 23
@<TRIPOS>COMMENT
> <Gold.Version>
2022.3.0

> <Gold.Id.Protein>
unknown|7rmh_cavity_clean|pdb

> <Gold.Protein.RotatedTorsions>
[ 1581 1565 1566 1567 ] final  -44.93 input  115.26 | X-H torsion
[ 5151 5142 5141 5139 ] final   97.13 input   59.98 | X-H torsion
[ 1669 1661 1660 1658 ] final   39.10 input   59.97 | X-H torsion
[ 5186 5181 5180 5177 ] final   40.43 input   59.99 | X-H torsion
[ 1788 1769 1770 1771 ] final  -44.40 input  122.82 | X-H torsion
[ 1883 1867 1866 1863 ] final   -7.43 input   59.99 | X-H torsion
[ 1874 1868 1869 1870 ] final -136.20 input   29.02 | X-H torsion
[ 1878 1873 1872 1869 ] final  -30.97 input   60.02 | X-H torsion
[ 6490 6474 6475 6476 ] final  115.35 input  103.68 | X-H torsion
[ 4479 4458 4456 4453 ] final   30.30 input   59.98 | X-H torsion
[ 4466 4459 4460 4461 ] final -148.82 input   43.99 | X-H torsion
[ 4472 4465 4463 4460 ] final   54.04 input   60.01 | X-H torsion
[ 4502 4497 4496 4493 ] final -127.36 input   59.97 | X-H torsion
[  675  663  664  665 ] final   77.31 input  108.58 | X-H torsion
[  692  687  686  683 ] final  -58.42 input   59.99 | X-H torsion
[  713  708  707  706 ] final -122.55 input   60.01 | X-H torsion
[ 2432 2427 2428 2429 ] final  -47.10 input   99.19 | X-H torsion
[ 2461 2452 2451 2449 ] final -106.14 input   60.00 | X-H torsion
[ 2484 2473 2474 2475 ] final  -34.85 input  111.54 | X-H torsion
[ 1326 1317 1316 1315 ] final   73.32 input   60.01 | X-H torsion
[ 14725 1568 1567 1566 ] final  -98.90 input    0.00 | X-H torsion
[ 14794 1772 1771 1770 ] final  -50.93 input    0.00 | X-H torsion
[ 14817 1871 1870 1869 ] final  -33.07 input    0.00 | X-H torsion
[ 14840 6477 6476 6475 ] final  152.47 input   -0.00 | X-H torsion
[ 14855 4462 4461 4460 ] final -134.20 input    0.00 | X-H torsion
[ 14878  666  665  664 ] final  -62.42 input   -0.00 | X-H torsion
[ 14895 2430 2429 2428 ] final   37.26 input    0.00 | X-H torsion
[ 14904 2476 2475 2474 ] final   15.17 input    0.00 | X-H torsion

> <Gold.Protein.ActiveResidues>
 LEU46   GLY47   ALA48   ASP49   ASN50   SER51   LYS53   VAL224  GLY225  GLY226 
 GLN227  ARG228  ASP229  GLU230  ARG231  ARG232  LYS233  TRP234  ILE235  GLN236 
 CYS237  PHE246  VAL247  VAL248  ASP249  ASP252  TYR253  ASN264  ARG265  LEU266 
 GLN267  GLU268  ALA269  LEU270  ASN271  LEU272  LYS274  SER275  ASN278  ASN279 
 ARG280  TRP281  ASP310  TYR311  PHE312  GLU344  ARG347  ILE348  ALA351  ILE18  
 TRP63   THR65   ASP66   SER67   ARG68   LEU69   TYR105  ALA106  PRO107  SER108 
 GLY109  ASN110  CYS149  ARG150  PHE151  ASP154  ASN155  GLN156  LEU192  ALA193 
 PRO194  ASP195  THR196  ARG197  LEU198  VAL200  ILE229  ASN230  ALA231  CYS233 
 PHE235 

> <Gold.Protein.RotatedAtoms>
  125.0707  143.4794  126.1850 H   0  0  0  0  0  0  0  0  0  0  0  0  # atno 675  bound_to 663 
  152.2356  115.7805  168.5567 H   0  0  0  0  0  0  0  0  0  0  0  0  # atno 692  bound_to 687 
  154.3193  122.5064  168.0470 H   0  0  0  0  0  0  0  0  0  0  0  0  # atno 713  bound_to 708 
  153.1339  121.6466  167.2716 H   0  0  0  0  0  0  0  0  0  0  0  0  # atno 714  bound_to 708 
  153.4091  121.4068  168.8880 H   0  0  0  0  0  0  0  0  0  0  0  0  # atno 715  bound_to 708 
  140.6504  136.1199  174.7996 H   0  0  0  0  0  0  0  0  0  0  0  0  # atno 1326 bound_to 1317
  139.4731  137.1947  174.3450 H   0  0  0  0  0  0  0  0  0  0  0  0  # atno 1327 bound_to 1317
  139.6683  135.7765  173.5094 H   0  0  0  0  0  0  0  0  0  0  0  0  # atno 1328 bound_to 1317
  133.3272  122.8280  131.0142 H   0  0  0  0  0  0  0  0  0  0  0  0  # atno 1581 bound_to 1565
  146.4076  101.2142  167.8814 H   0  0  0  0  0  0  0  0  0  0  0  0  # atno 1669 bound_to 1661
  137.6301  134.8467   98.4986 H   0  0  0  0  0  0  0  0  0  0  0  0  # atno 1788 bound_to 1769
  138.2879  146.7363  169.9372 H   0  0  0  0  0  0  0  0  0  0  0  0  # atno 1874 bound_to 1868
  140.6939  148.1055  169.1843 H   0  0  0  0  0  0  0  0  0  0  0  0  # atno 1878 bound_to 1873
  139.9747  122.6251  168.0098 H   0  0  0  0  0  0  0  0  0  0  0  0  # atno 1883 bound_to 1867
  127.0032  132.5766  139.1729 H   0  0  0  0  0  0  0  0  0  0  0  0  # atno 2432 bound_to 2427
  145.3775  102.4369  176.4350 H   0  0  0  0  0  0  0  0  0  0  0  0  # atno 2461 bound_to 2452
  126.1837  136.3210  139.8253 H   0  0  0  0  0  0  0  0  0  0  0  0  # atno 2484 bound_to 2473
  137.9412  144.1514  140.5945 H   0  0  0  0  0  0  0  0  0  0  0  0  # atno 4466 bound_to 4459
  137.3090  142.1598  141.3414 H   0  0  0  0  0  0  0  0  0  0  0  0  # atno 4472 bound_to 4465
  152.2297  162.3881  170.8150 H   0  0  0  0  0  0  0  0  0  0  0  0  # atno 4479 bound_to 4458
  145.4937  165.8394  167.2832 H   0  0  0  0  0  0  0  0  0  0  0  0  # atno 4502 bound_to 4497
  155.6550  161.9982  164.9685 H   0  0  0  0  0  0  0  0  0  0  0  0  # atno 5151 bound_to 5142
  158.7880  163.8680  174.2949 H   0  0  0  0  0  0  0  0  0  0  0  0  # atno 5186 bound_to 5181
  145.2638  139.3495  105.7109 H   0  0  0  0  0  0  0  0  0  0  0  0  # atno 6490 bound_to 6474
  133.8388  121.4482  131.9577 LP  0  0  0  0  0  0  0  0  0  0  0  0  # atno 14724 bound_to 1565
  133.5865  122.6546  127.2413 LP  0  0  0  0  0  0  0  0  0  0  0  0  # atno 14725 bound_to 1568
  134.0492  121.0087  126.9636 LP  0  0  0  0  0  0  0  0  0  0  0  0  # atno 14726 bound_to 1568
  157.0959  161.3046  165.2688 LP  0  0  0  0  0  0  0  0  0  0  0  0  # atno 14737 bound_to 5142
  156.4368  162.3286  166.3567 LP  0  0  0  0  0  0  0  0  0  0  0  0  # atno 14738 bound_to 5142
  145.0780  100.3052  168.1124 LP  0  0  0  0  0  0  0  0  0  0  0  0  # atno 14749 bound_to 1661
  146.3851  100.1036  169.0703 LP  0  0  0  0  0  0  0  0  0  0  0  0  # atno 14750 bound_to 1661
  159.6495  165.1787  173.8613 LP  0  0  0  0  0  0  0  0  0  0  0  0  # atno 14757 bound_to 5181
  160.4111  163.8424  174.4098 LP  0  0  0  0  0  0  0  0  0  0  0  0  # atno 14758 bound_to 5181
  136.0529  134.7835   99.2529 LP  0  0  0  0  0  0  0  0  0  0  0  0  # atno 14793 bound_to 1769
  137.6454  133.5383   95.1372 LP  0  0  0  0  0  0  0  0  0  0  0  0  # atno 14794 bound_to 1772
  136.5675  134.3465   94.0486 LP  0  0  0  0  0  0  0  0  0  0  0  0  # atno 14795 bound_to 1772
  140.0627  122.4101  169.6206 LP  0  0  0  0  0  0  0  0  0  0  0  0  # atno 14814 bound_to 1867
  140.4359  123.8588  168.9658 LP  0  0  0  0  0  0  0  0  0  0  0  0  # atno 14815 bound_to 1867
  137.0001  147.6865  169.2333 LP  0  0  0  0  0  0  0  0  0  0  0  0  # atno 14816 bound_to 1868
  136.2080  149.6979  169.3379 LP  0  0  0  0  0  0  0  0  0  0  0  0  # atno 14817 bound_to 1871
  135.6772  150.1314  170.9286 LP  0  0  0  0  0  0  0  0  0  0  0  0  # atno 14818 bound_to 1871
  141.0513  149.1931  168.0280 LP  0  0  0  0  0  0  0  0  0  0  0  0  # atno 14819 bound_to 1873
  139.9489  148.0233  167.7400 LP  0  0  0  0  0  0  0  0  0  0  0  0  # atno 14820 bound_to 1873
  146.0313  138.2019  106.7701 LP  0  0  0  0  0  0  0  0  0  0  0  0  # atno 14839 bound_to 6474
  142.2049  137.1433  109.1684 LP  0  0  0  0  0  0  0  0  0  0  0  0  # atno 14840 bound_to 6477
  143.5159  138.0440  109.8539 LP  0  0  0  0  0  0  0  0  0  0  0  0  # atno 14841 bound_to 6477
  151.9340  163.1962  172.1960 LP  0  0  0  0  0  0  0  0  0  0  0  0  # atno 14852 bound_to 4458
  153.4493  163.1359  171.5903 LP  0  0  0  0  0  0  0  0  0  0  0  0  # atno 14853 bound_to 4458
  137.9910  143.6350  138.9215 LP  0  0  0  0  0  0  0  0  0  0  0  0  # atno 14854 bound_to 4459
  140.0623  142.3839  137.0187 LP  0  0  0  0  0  0  0  0  0  0  0  0  # atno 14855 bound_to 4462
  139.3053  143.7874  137.6948 LP  0  0  0  0  0  0  0  0  0  0  0  0  # atno 14856 bound_to 4462
  138.4607  141.9566  142.4730 LP  0  0  0  0  0  0  0  0  0  0  0  0  # atno 14857 bound_to 4465
  137.6277  140.6692  141.9115 LP  0  0  0  0  0  0  0  0  0  0  0  0  # atno 14858 bound_to 4465
  146.7134  166.8698  167.5979 LP  0  0  0  0  0  0  0  0  0  0  0  0  # atno 14869 bound_to 4497
  146.9916  165.2614  167.5494 LP  0  0  0  0  0  0  0  0  0  0  0  0  # atno 14870 bound_to 4497
  125.3666  142.1598  127.2871 LP  0  0  0  0  0  0  0  0  0  0  0  0  # atno 14877 bound_to 663 
  128.0226  143.9801  129.5409 LP  0  0  0  0  0  0  0  0  0  0  0  0  # atno 14878 bound_to 666 
  128.7110  145.3889  128.8052 LP  0  0  0  0  0  0  0  0  0  0  0  0  # atno 14879 bound_to 666 
  151.6105  116.2509  167.1303 LP  0  0  0  0  0  0  0  0  0  0  0  0  # atno 14882 bound_to 687 
  153.2260  116.0874  167.3031 LP  0  0  0  0  0  0  0  0  0  0  0  0  # atno 14883 bound_to 687 
  127.1159  131.2143  140.2628 LP  0  0  0  0  0  0  0  0  0  0  0  0  # atno 14894 bound_to 2427
  123.6768  134.2426  141.5227 LP  0  0  0  0  0  0  0  0  0  0  0  0  # atno 14895 bound_to 2430
  124.4315  135.5983  140.7530 LP  0  0  0  0  0  0  0  0  0  0  0  0  # atno 14896 bound_to 2430
  144.5643  101.0917  176.8547 LP  0  0  0  0  0  0  0  0  0  0  0  0  # atno 14899 bound_to 2452
  144.5699  102.3889  177.8466 LP  0  0  0  0  0  0  0  0  0  0  0  0  # atno 14900 bound_to 2452
  127.6423  135.8685  138.9792 LP  0  0  0  0  0  0  0  0  0  0  0  0  # atno 14903 bound_to 2473
  124.5563  138.4426  136.5785 LP  0  0  0  0  0  0  0  0  0  0  0  0  # atno 14904 bound_to 2476
  123.0971  137.7648  137.2201 LP  0  0  0  0  0  0  0  0  0  0  0  0  # atno 14905 bound_to 2476

> <Gold.Score>
     Fitness  S(hb_ext) S(vdw_ext)  S(hb_int)    S(int)      intcor
     31.97       2.11      22.23       0.00      -0.70      -0.76

> <Gold.Goldscore.Fitness>
31.9731

> <Gold.Goldscore.Internal.Vdw>
-1.0613

> <Gold.Goldscore.Internal.Torsion>
-0.4018

> <Gold.Goldscore.External.Vdw>
22.2304

> <Gold.Goldscore.Internal.HBond>
0.0000

> <Gold.Goldscore.External.HBond>
2.1109

> <Gold.Goldscore.Internal.Correction>
-0.7585

> <Gold.Goldscore.Hbonds>
donor molecule, donor type, donor heavy atom, donor atom, acceptor molecule, acceptor atom, score
      P1  H  1873  1878       L1    17  0.85
      L1  H     8    22       P1  6894  0.20

> <Gold.Goldscore.Internal.Vdw.Weighted>
-1.0613

> <Gold.Goldscore.Internal.Torsion.Weighted>
-0.4018

> <Gold.Goldscore.External.Vdw.Weighted>
30.5668

> <Gold.Goldscore.Internal.HBond.Weighted>
0.0000

> <Gold.Goldscore.External.HBond.Weighted>
2.1109

> <Gold.Goldscore.Internal.Correction.Weighted>
-0.7585

> <Gold.Rescore>
     Score     S(PLP)   S(hbond)     S(cho)   S(metal)  DE(clash)   DE(tors)     intcor
     31.17     -26.02       1.79       0.00       0.00       0.00       0.10       ----

> <Gold.PLP.Fitness>
31.1713

> <Gold.PLP.PLP>
-26.0190

> <Gold.PLP.part.hbond>
-4.0000

> <Gold.PLP.part.metal>
0.0000

> <Gold.PLP.part.buried>
-1.5335

> <Gold.PLP.part.nonpolar>
-26.2140

> <Gold.PLP.part.repulsive>
4.9796

> <Gold.PLP.ligand.clash>
0.0000

> <Gold.PLP.ligand.torsion>
0.1032

> <Gold.PLP.Chemscore.Hbond>
1.7862

> <Gold.PLP.Chemscore.CHOScore>
0.0000

> <Gold.PLP.Chemscore.Metal>
0.0000

> <Gold.Chemscore.Hbonds>
donor molecule, donor type, donor heavy atom, donor atom, acceptor molecule, acceptor atom, score
      L1  H     8    22       P1  6894  0.91
      P1  H  1873  1878       L1    17  0.59

> <Gold.PLP.Chemscore.Internal.Correction>
   9.000000E+99

#       Name:                CT1002167954
#       Creating user name   hitesit
#       Creation time:       Sun Apr 16 22:59:17 2023


#       File generated by GOLD software.
#

@<TRIPOS>MOLECULE
CT1002167954|ligand_prepared|mol2|1|dock10
    29    30     1
SMALL
NO_CHARGES


@<TRIPOS>ATOM
      1 C1         142.5141 142.3089 169.1531 C.3            1 RES1               0.0000
      2 C2         143.8765 142.5272 169.8422 C.ar           1 RES1               0.0000
      3 C3         142.5831 143.0522 167.8223 C.2            1 RES1               0.0000
      4 C4         142.3428 140.8002 169.0149 C.2            1 RES1               0.0000
      5 C5         141.3120 142.8544 169.9586 C.3            1 RES1               0.0000
      6 C6         144.9080 141.6070 169.6804 C.ar           1 RES1               0.0000
      7 C7         144.1173 143.6431 170.6393 C.ar           1 RES1               0.0000
      8 N8         142.7087 142.3061 166.6877 N.am           1 RES1               0.0000
      9 O9         142.5675 144.2759 167.7723 O.2            1 RES1               0.0000
     10 N10        142.3219 140.2694 167.7517 N.am           1 RES1               0.0000
     11 O11        142.2424 140.0644 169.9889 O.2            1 RES1               0.0000
     12 C12        139.9612 142.4044 169.4247 C.3            1 RES1               0.0000
     13 C13        146.1367 141.7971 170.2907 C.ar           1 RES1               0.0000
     14 C14        145.3468 143.8311 171.2489 C.ar           1 RES1               0.0000
     15 C15        142.5279 140.9503 166.5829 C.2            1 RES1               0.0000
     16 C16        146.3571 142.9093 171.0749 C.ar           1 RES1               0.0000
     17 O17        142.5486 140.3940 165.4887 O.2            1 RES1               0.0000
     18 H18        141.4070 142.5258 171.0009 H              1 RES1               0.0000
     19 H19        141.3482 143.9508 169.9481 H              1 RES1               0.0000
     20 H20        144.7523 140.7245 169.0689 H              1 RES1               0.0000
     21 H21        143.3368 144.3809 170.7911 H              1 RES1               0.0000
     22 H22        142.9604 142.8020 165.8385 H              1 RES1               0.0000
     23 H23        142.1353 139.2745 167.6757 H              1 RES1               0.0000
     24 H24        139.1526 142.8151 170.0257 H              1 RES1               0.0000
     25 H25        139.8224 142.7360 168.3978 H              1 RES1               0.0000
     26 H26        139.8808 141.3195 169.4443 H              1 RES1               0.0000
     27 H27        146.9280 141.0679 170.1517 H              1 RES1               0.0000
     28 H28        145.5156 144.7076 171.8658 H              1 RES1               0.0000
     29 H29        147.3198 143.0581 171.5526 H              1 RES1               0.0000
@<TRIPOS>BOND
    1    1    2 1     
    2    1    3 1     
    3    1    4 1     
    4    1    5 1     
    5    2    6 ar    
    6    2    7 ar    
    7    3    8 1     
    8    3    9 2     
    9    4   10 1     
   10    4   11 2     
   11    5   12 1     
   12    5   18 1     
   13    5   19 1     
   14    6   13 ar    
   15    6   20 1     
   16    7   14 ar    
   17    7   21 1     
   18    8   15 1     
   19    8   22 1     
   20   10   15 1     
   21   10   23 1     
   22   12   24 1     
   23   12   25 1     
   24   12   26 1     
   25   13   16 ar    
   26   13   27 1     
   27   14   16 ar    
   28   14   28 1     
   29   15   17 2     
   30   16   29 1     
@<TRIPOS>SUBSTRUCTURE
      1 RES1           1
@<TRIPOS>SET
DONOR_HYDROGENS      STATIC     ATOMS    <user>   **** ""
2 22 23
ATOM$RED        STATIC     ATOMS    COLORGROUP SYSTEM
2 22 23
@<TRIPOS>COMMENT
> <Gold.Version>
2022.3.0

> <Gold.Id.Protein>
unknown|7rmh_cavity_clean|pdb

> <Gold.Protein.RotatedTorsions>
[ 1581 1565 1566 1567 ] final   72.12 input  115.26 | X-H torsion
[ 5151 5142 5141 5139 ] final   62.32 input   59.98 | X-H torsion
[ 1669 1661 1660 1658 ] final -139.84 input   59.97 | X-H torsion
[ 5186 5181 5180 5177 ] final  -22.61 input   59.99 | X-H torsion
[ 1788 1769 1770 1771 ] final    1.55 input  122.82 | X-H torsion
[ 1883 1867 1866 1863 ] final  -49.51 input   59.99 | X-H torsion
[ 1874 1868 1869 1870 ] final -162.58 input   29.02 | X-H torsion
[ 1878 1873 1872 1869 ] final   12.90 input   60.02 | X-H torsion
[ 6490 6474 6475 6476 ] final -153.93 input  103.68 | X-H torsion
[ 4479 4458 4456 4453 ] final  -27.89 input   59.98 | X-H torsion
[ 4466 4459 4460 4461 ] final -136.72 input   43.99 | X-H torsion
[ 4472 4465 4463 4460 ] final  -77.62 input   60.01 | X-H torsion
[ 4502 4497 4496 4493 ] final -153.89 input   59.97 | X-H torsion
[  675  663  664  665 ] final -160.22 input  108.58 | X-H torsion
[  692  687  686  683 ] final  112.57 input   59.99 | X-H torsion
[  713  708  707  706 ] final   48.09 input   60.01 | X-H torsion
[ 2432 2427 2428 2429 ] final  125.79 input   99.19 | X-H torsion
[ 2461 2452 2451 2449 ] final -112.20 input   60.00 | X-H torsion
[ 2484 2473 2474 2475 ] final -168.89 input  111.54 | X-H torsion
[ 1326 1317 1316 1315 ] final  177.99 input   60.01 | X-H torsion
[ 14725 1568 1567 1566 ] final  146.13 input    0.00 | X-H torsion
[ 14794 1772 1771 1770 ] final  140.04 input    0.00 | X-H torsion
[ 14817 1871 1870 1869 ] final -102.50 input    0.00 | X-H torsion
[ 14840 6477 6476 6475 ] final  129.67 input   -0.00 | X-H torsion
[ 14855 4462 4461 4460 ] final   96.45 input    0.00 | X-H torsion
[ 14878  666  665  664 ] final -141.10 input   -0.00 | X-H torsion
[ 14895 2430 2429 2428 ] final   51.19 input    0.00 | X-H torsion
[ 14904 2476 2475 2474 ] final -145.63 input    0.00 | X-H torsion

> <Gold.Protein.ActiveResidues>
 LEU46   GLY47   ALA48   ASP49   ASN50   SER51   LYS53   VAL224  GLY225  GLY226 
 GLN227  ARG228  ASP229  GLU230  ARG231  ARG232  LYS233  TRP234  ILE235  GLN236 
 CYS237  PHE246  VAL247  VAL248  ASP249  ASP252  TYR253  ASN264  ARG265  LEU266 
 GLN267  GLU268  ALA269  LEU270  ASN271  LEU272  LYS274  SER275  ASN278  ASN279 
 ARG280  TRP281  ASP310  TYR311  PHE312  GLU344  ARG347  ILE348  ALA351  ILE18  
 TRP63   THR65   ASP66   SER67   ARG68   LEU69   TYR105  ALA106  PRO107  SER108 
 GLY109  ASN110  CYS149  ARG150  PHE151  ASP154  ASN155  GLN156  LEU192  ALA193 
 PRO194  ASP195  THR196  ARG197  LEU198  VAL200  ILE229  ASN230  ALA231  CYS233 
 PHE235 

> <Gold.Protein.RotatedAtoms>
  125.5117  142.0325  126.4700 H   0  0  0  0  0  0  0  0  0  0  0  0  # atno 675  bound_to 663 
  152.6218  116.2762  166.7999 H   0  0  0  0  0  0  0  0  0  0  0  0  # atno 692  bound_to 687 
  152.9057  121.2317  167.9393 H   0  0  0  0  0  0  0  0  0  0  0  0  # atno 713  bound_to 708 
  154.0160  121.9538  168.9349 H   0  0  0  0  0  0  0  0  0  0  0  0  # atno 714  bound_to 708 
  153.9413  122.3744  167.3338 H   0  0  0  0  0  0  0  0  0  0  0  0  # atno 715  bound_to 708 
  139.6391  137.2173  174.5371 H   0  0  0  0  0  0  0  0  0  0  0  0  # atno 1326 bound_to 1317
  139.4973  135.9609  173.4652 H   0  0  0  0  0  0  0  0  0  0  0  0  # atno 1327 bound_to 1317
  140.6548  135.9125  174.6507 H   0  0  0  0  0  0  0  0  0  0  0  0  # atno 1328 bound_to 1317
  133.0069  121.4663  131.5823 H   0  0  0  0  0  0  0  0  0  0  0  0  # atno 1581 bound_to 1565
  145.4936   99.8753  168.8172 H   0  0  0  0  0  0  0  0  0  0  0  0  # atno 1669 bound_to 1661
  137.2788  135.4410   98.4410 H   0  0  0  0  0  0  0  0  0  0  0  0  # atno 1788 bound_to 1769
  138.4100  146.7888  169.5558 H   0  0  0  0  0  0  0  0  0  0  0  0  # atno 1874 bound_to 1868
  140.2198  147.7343  168.8287 H   0  0  0  0  0  0  0  0  0  0  0  0  # atno 1878 bound_to 1873
  139.8780  122.1558  168.4815 H   0  0  0  0  0  0  0  0  0  0  0  0  # atno 1883 bound_to 1867
  127.1735  131.2639  140.3435 H   0  0  0  0  0  0  0  0  0  0  0  0  # atno 2432 bound_to 2427
  145.3742  102.3559  176.3784 H   0  0  0  0  0  0  0  0  0  0  0  0  # atno 2461 bound_to 2452
  127.7050  136.4740  139.2861 H   0  0  0  0  0  0  0  0  0  0  0  0  # atno 2484 bound_to 2473
  138.0574  144.2869  140.5354 H   0  0  0  0  0  0  0  0  0  0  0  0  # atno 4466 bound_to 4459
  138.4815  141.7733  142.5223 H   0  0  0  0  0  0  0  0  0  0  0  0  # atno 4472 bound_to 4465
  151.6367  162.6629  171.4488 H   0  0  0  0  0  0  0  0  0  0  0  0  # atno 4479 bound_to 4458
  145.5176  166.2671  167.3158 H   0  0  0  0  0  0  0  0  0  0  0  0  # atno 4502 bound_to 4497
  156.0028  161.6413  164.7131 H   0  0  0  0  0  0  0  0  0  0  0  0  # atno 5151 bound_to 5142
  158.8505  164.7842  173.9558 H   0  0  0  0  0  0  0  0  0  0  0  0  # atno 5186 bound_to 5181
  146.1715  139.3966  106.5501 H   0  0  0  0  0  0  0  0  0  0  0  0  # atno 6490 bound_to 6474
  134.1511  122.7758  131.4039 LP  0  0  0  0  0  0  0  0  0  0  0  0  # atno 14724 bound_to 1565
  133.1980  121.3296  126.7652 LP  0  0  0  0  0  0  0  0  0  0  0  0  # atno 14725 bound_to 1568
  134.4377  122.3337  127.4397 LP  0  0  0  0  0  0  0  0  0  0  0  0  # atno 14726 bound_to 1568
  157.2295  161.5153  165.7746 LP  0  0  0  0  0  0  0  0  0  0  0  0  # atno 14737 bound_to 5142
  155.9528  162.4774  166.1081 LP  0  0  0  0  0  0  0  0  0  0  0  0  # atno 14738 bound_to 5142
  146.8381  100.7672  168.6065 LP  0  0  0  0  0  0  0  0  0  0  0  0  # atno 14749 bound_to 1661
  145.5458  100.9904  167.6335 LP  0  0  0  0  0  0  0  0  0  0  0  0  # atno 14750 bound_to 1661
  160.4685  164.6840  174.0984 LP  0  0  0  0  0  0  0  0  0  0  0  0  # atno 14757 bound_to 5181
  159.5292  163.4145  174.5141 LP  0  0  0  0  0  0  0  0  0  0  0  0  # atno 14758 bound_to 5181
  136.3939  134.2064   99.3088 LP  0  0  0  0  0  0  0  0  0  0  0  0  # atno 14793 bound_to 1769
  136.6935  134.4518   94.0272 LP  0  0  0  0  0  0  0  0  0  0  0  0  # atno 14794 bound_to 1772
  137.5194  133.4330   95.1586 LP  0  0  0  0  0  0  0  0  0  0  0  0  # atno 14795 bound_to 1772
  140.2654  123.0313  169.7976 LP  0  0  0  0  0  0  0  0  0  0  0  0  # atno 14814 bound_to 1867
  140.3305  123.7101  168.3138 LP  0  0  0  0  0  0  0  0  0  0  0  0  # atno 14815 bound_to 1867
  136.8811  147.6354  169.6051 LP  0  0  0  0  0  0  0  0  0  0  0  0  # atno 14816 bound_to 1868
  136.1297  150.6230  169.6714 LP  0  0  0  0  0  0  0  0  0  0  0  0  # atno 14817 bound_to 1871
  135.7555  149.2064  170.5951 LP  0  0  0  0  0  0  0  0  0  0  0  0  # atno 14818 bound_to 1871
  141.2148  149.0143  168.6893 LP  0  0  0  0  0  0  0  0  0  0  0  0  # atno 14819 bound_to 1873
  140.2630  148.5761  167.4368 LP  0  0  0  0  0  0  0  0  0  0  0  0  # atno 14820 bound_to 1873
  145.1223  138.1547  105.9298 LP  0  0  0  0  0  0  0  0  0  0  0  0  # atno 14839 bound_to 6474
  142.0738  137.4594  109.1746 LP  0  0  0  0  0  0  0  0  0  0  0  0  # atno 14840 bound_to 6477
  143.6469  137.7279  109.8477 LP  0  0  0  0  0  0  0  0  0  0  0  0  # atno 14841 bound_to 6477
  152.8186  163.4282  172.2644 LP  0  0  0  0  0  0  0  0  0  0  0  0  # atno 14852 bound_to 4458
  153.1621  162.6272  170.8835 LP  0  0  0  0  0  0  0  0  0  0  0  0  # atno 14853 bound_to 4458
  137.8790  143.5045  138.9784 LP  0  0  0  0  0  0  0  0  0  0  0  0  # atno 14854 bound_to 4459
  139.9871  143.8940  137.4251 LP  0  0  0  0  0  0  0  0  0  0  0  0  # atno 14855 bound_to 4462
  139.3804  142.2774  137.2884 LP  0  0  0  0  0  0  0  0  0  0  0  0  # atno 14856 bound_to 4462
  137.4962  140.7126  141.7791 LP  0  0  0  0  0  0  0  0  0  0  0  0  # atno 14857 bound_to 4465
  137.4115  142.3025  141.4163 LP  0  0  0  0  0  0  0  0  0  0  0  0  # atno 14858 bound_to 4465
  147.0681  166.6284  167.6537 LP  0  0  0  0  0  0  0  0  0  0  0  0  # atno 14869 bound_to 4497
  146.6128  165.0721  167.4608 LP  0  0  0  0  0  0  0  0  0  0  0  0  # atno 14870 bound_to 4497
  124.9312  143.5880  127.0058 LP  0  0  0  0  0  0  0  0  0  0  0  0  # atno 14877 bound_to 663 
  127.7970  145.0397  129.7200 LP  0  0  0  0  0  0  0  0  0  0  0  0  # atno 14878 bound_to 666 
  128.9366  144.3293  128.6260 LP  0  0  0  0  0  0  0  0  0  0  0  0  # atno 14879 bound_to 666 
  153.0049  115.8037  168.3088 LP  0  0  0  0  0  0  0  0  0  0  0  0  # atno 14882 bound_to 687 
  151.4425  116.0353  167.8944 LP  0  0  0  0  0  0  0  0  0  0  0  0  # atno 14883 bound_to 687 
  126.9499  132.4940  139.1215 LP  0  0  0  0  0  0  0  0  0  0  0  0  # atno 14894 bound_to 2427
  123.7510  134.3329  141.6973 LP  0  0  0  0  0  0  0  0  0  0  0  0  # atno 14895 bound_to 2430
  124.3573  135.5079  140.5784 LP  0  0  0  0  0  0  0  0  0  0  0  0  # atno 14896 bound_to 2430
  144.5163  101.0935  176.9420 LP  0  0  0  0  0  0  0  0  0  0  0  0  # atno 14899 bound_to 2452
  144.6213  102.4687  177.8163 LP  0  0  0  0  0  0  0  0  0  0  0  0  # atno 14900 bound_to 2452
  126.1471  135.7182  139.5091 LP  0  0  0  0  0  0  0  0  0  0  0  0  # atno 14903 bound_to 2473
  123.1675  137.9420  137.4372 LP  0  0  0  0  0  0  0  0  0  0  0  0  # atno 14904 bound_to 2476
  124.4859  138.2654  136.3614 LP  0  0  0  0  0  0  0  0  0  0  0  0  # atno 14905 bound_to 2476

> <Gold.Score>
     Fitness  S(hb_ext) S(vdw_ext)  S(hb_int)    S(int)      intcor
     31.94       1.79      22.39       0.00      -0.63      -0.75

> <Gold.Goldscore.Fitness>
31.9429

> <Gold.Goldscore.Internal.Vdw>
-0.8167

> <Gold.Goldscore.Internal.Torsion>
-0.5676

> <Gold.Goldscore.External.Vdw>
22.3901

> <Gold.Goldscore.Internal.HBond>
0.0000

> <Gold.Goldscore.External.HBond>
1.7858

> <Gold.Goldscore.Internal.Correction>
-0.7550

> <Gold.Goldscore.Hbonds>
donor molecule, donor type, donor heavy atom, donor atom, acceptor molecule, acceptor atom, score
      L1  H    10    23       P1  1382  0.89

> <Gold.Goldscore.Internal.Vdw.Weighted>
-0.8167

> <Gold.Goldscore.Internal.Torsion.Weighted>
-0.5676

> <Gold.Goldscore.External.Vdw.Weighted>
30.7864

> <Gold.Goldscore.Internal.HBond.Weighted>
0.0000

> <Gold.Goldscore.External.HBond.Weighted>
1.7858

> <Gold.Goldscore.Internal.Correction.Weighted>
-0.7550

> <Gold.Rescore>
     Score     S(PLP)   S(hbond)     S(cho)   S(metal)  DE(clash)   DE(tors)     intcor
     29.71     -28.88       1.00       0.00       0.00       2.13       0.02       ----

> <Gold.PLP.Fitness>
29.7122

> <Gold.PLP.PLP>
-28.8770

> <Gold.PLP.part.hbond>
-3.8185

> <Gold.PLP.part.metal>
0.0000

> <Gold.PLP.part.buried>
1.2097

> <Gold.PLP.part.nonpolar>
-27.9857

> <Gold.PLP.part.repulsive>
0.4982

> <Gold.PLP.ligand.clash>
2.1318

> <Gold.PLP.ligand.torsion>
0.0165

> <Gold.PLP.Chemscore.Hbond>
1.0000

> <Gold.PLP.Chemscore.CHOScore>
0.0000

> <Gold.PLP.Chemscore.Metal>
0.0000

> <Gold.Chemscore.Hbonds>
donor molecule, donor type, donor heavy atom, donor atom, acceptor molecule, acceptor atom, score
      L1  H    10    23       P1  1382  0.32

> <Gold.PLP.Chemscore.Internal.Correction>
   9.000000E+99

#       Name:                CT1002167954
#       Creating user name   hitesit
#       Creation time:       Sun Apr 16 22:58:00 2023


#       File generated by GOLD software.
#

@<TRIPOS>MOLECULE
CT1002167954|ligand_prepared|mol2|1|dock6
    29    30     1
SMALL
NO_CHARGES


@<TRIPOS>ATOM
      1 C1         143.5668 145.3504 170.5955 C.3            1 RES1               0.0000
      2 C2         142.5015 144.2954 170.2338 C.ar           1 RES1               0.0000
      3 C3         144.7417 145.1142 169.6509 C.2            1 RES1               0.0000
      4 C4         142.8961 146.7092 170.4265 C.2            1 RES1               0.0000
      5 C5         144.0786 145.2480 172.0512 C.3            1 RES1               0.0000
      6 C6         141.9239 144.2767 168.9678 C.ar           1 RES1               0.0000
      7 C7         142.0888 143.3345 171.1530 C.ar           1 RES1               0.0000
      8 N8         144.9271 146.0077 168.6375 N.am           1 RES1               0.0000
      9 O9         145.4706 144.1371 169.7697 O.2            1 RES1               0.0000
     10 N10        143.3633 147.5376 169.4399 N.am           1 RES1               0.0000
     11 O11        141.9565 147.0632 171.1279 O.2            1 RES1               0.0000
     12 C12        145.1175 146.2983 172.4112 C.3            1 RES1               0.0000
     13 C13        140.9705 143.3299 168.6318 C.ar           1 RES1               0.0000
     14 C14        141.1350 142.3887 170.8150 C.ar           1 RES1               0.0000
     15 C15        144.3282 147.2360 168.5178 C.2            1 RES1               0.0000
     16 C16        140.5757 142.3851 169.5549 C.ar           1 RES1               0.0000
     17 O17        144.6563 148.0134 167.6261 O.2            1 RES1               0.0000
     18 H18        143.2252 145.3471 172.7333 H              1 RES1               0.0000
     19 H19        144.5152 144.2531 172.2028 H              1 RES1               0.0000
     20 H20        142.2202 145.0139 168.2290 H              1 RES1               0.0000
     21 H21        142.5144 143.3188 172.1506 H              1 RES1               0.0000
     22 H22        145.5706 145.7377 167.9004 H              1 RES1               0.0000
     23 H23        142.9539 148.4650 169.3882 H              1 RES1               0.0000
     24 H24        145.4427 146.1814 173.4428 H              1 RES1               0.0000
     25 H25        145.9914 146.2126 171.7686 H              1 RES1               0.0000
     26 H26        144.7090 147.3002 172.2960 H              1 RES1               0.0000
     27 H27        140.5324 143.3322 167.6392 H              1 RES1               0.0000
     28 H28        140.8269 141.6473 171.5449 H              1 RES1               0.0000
     29 H29        139.8291 141.6433 169.2914 H              1 RES1               0.0000
@<TRIPOS>BOND
    1    1    2 1     
    2    1    3 1     
    3    1    4 1     
    4    1    5 1     
    5    2    6 ar    
    6    2    7 ar    
    7    3    8 1     
    8    3    9 2     
    9    4   10 1     
   10    4   11 2     
   11    5   12 1     
   12    5   18 1     
   13    5   19 1     
   14    6   13 ar    
   15    6   20 1     
   16    7   14 ar    
   17    7   21 1     
   18    8   15 1     
   19    8   22 1     
   20   10   15 1     
   21   10   23 1     
   22   12   24 1     
   23   12   25 1     
   24   12   26 1     
   25   13   16 ar    
   26   13   27 1     
   27   14   16 ar    
   28   14   28 1     
   29   15   17 2     
   30   16   29 1     
@<TRIPOS>SUBSTRUCTURE
      1 RES1           1
@<TRIPOS>SET
DONOR_HYDROGENS      STATIC     ATOMS    <user>   **** ""
2 22 23
ATOM$RED        STATIC     ATOMS    COLORGROUP SYSTEM
2 22 23
@<TRIPOS>COMMENT
> <Gold.Version>
2022.3.0

> <Gold.Id.Protein>
unknown|7rmh_cavity_clean|pdb

> <Gold.Protein.RotatedTorsions>
[ 1581 1565 1566 1567 ] final  139.33 input  115.26 | X-H torsion
[ 5151 5142 5141 5139 ] final  -95.28 input   59.98 | X-H torsion
[ 1669 1661 1660 1658 ] final -124.97 input   59.97 | X-H torsion
[ 5186 5181 5180 5177 ] final -154.96 input   59.99 | X-H torsion
[ 1788 1769 1770 1771 ] final   94.59 input  122.82 | X-H torsion
[ 1883 1867 1866 1863 ] final   14.74 input   59.99 | X-H torsion
[ 1874 1868 1869 1870 ] final  149.36 input   29.02 | X-H torsion
[ 1878 1873 1872 1869 ] final  -33.39 input   60.02 | X-H torsion
[ 6490 6474 6475 6476 ] final  -20.03 input  103.68 | X-H torsion
[ 4479 4458 4456 4453 ] final   41.41 input   59.98 | X-H torsion
[ 4466 4459 4460 4461 ] final   76.17 input   43.99 | X-H torsion
[ 4472 4465 4463 4460 ] final  103.28 input   60.01 | X-H torsion
[ 4502 4497 4496 4493 ] final -137.87 input   59.97 | X-H torsion
[  675  663  664  665 ] final  -91.95 input  108.58 | X-H torsion
[  692  687  686  683 ] final  -99.77 input   59.99 | X-H torsion
[  713  708  707  706 ] final   -1.31 input   60.01 | X-H torsion
[ 2432 2427 2428 2429 ] final  104.21 input   99.19 | X-H torsion
[ 2461 2452 2451 2449 ] final  -73.33 input   60.00 | X-H torsion
[ 2484 2473 2474 2475 ] final  135.57 input  111.54 | X-H torsion
[ 1326 1317 1316 1315 ] final  153.84 input   60.01 | X-H torsion
[ 14725 1568 1567 1566 ] final  -36.46 input    0.00 | X-H torsion
[ 14794 1772 1771 1770 ] final -104.15 input    0.00 | X-H torsion
[ 14817 1871 1870 1869 ] final -125.77 input    0.00 | X-H torsion
[ 14840 6477 6476 6475 ] final   58.11 input   -0.00 | X-H torsion
[ 14855 4462 4461 4460 ] final   83.70 input    0.00 | X-H torsion
[ 14878  666  665  664 ] final -103.55 input   -0.00 | X-H torsion
[ 14895 2430 2429 2428 ] final   52.65 input    0.00 | X-H torsion
[ 14904 2476 2475 2474 ] final  -93.67 input    0.00 | X-H torsion

> <Gold.Protein.ActiveResidues>
 LEU46   GLY47   ALA48   ASP49   ASN50   SER51   LYS53   VAL224  GLY225  GLY226 
 GLN227  ARG228  ASP229  GLU230  ARG231  ARG232  LYS233  TRP234  ILE235  GLN236 
 CYS237  PHE246  VAL247  VAL248  ASP249  ASP252  TYR253  ASN264  ARG265  LEU266 
 GLN267  GLU268  ALA269  LEU270  ASN271  LEU272  LYS274  SER275  ASN278  ASN279 
 ARG280  TRP281  ASP310  TYR311  PHE312  GLU344  ARG347  ILE348  ALA351  ILE18  
 TRP63   THR65   ASP66   SER67   ARG68   LEU69   TYR105  ALA106  PRO107  SER108 
 GLY109  ASN110  CYS149  ARG150  PHE151  ASP154  ASN155  GLN156  LEU192  ALA193 
 PRO194  ASP195  THR196  ARG197  LEU198  VAL200  ILE229  ASN230  ALA231  CYS233 
 PHE235 

> <Gold.Protein.RotatedAtoms>
  125.3071  142.2531  127.4082 H   0  0  0  0  0  0  0  0  0  0  0  0  # atno 675  bound_to 663 
  151.6542  115.9064  168.2689 H   0  0  0  0  0  0  0  0  0  0  0  0  # atno 692  bound_to 687 
  153.1226  121.6331  167.2830 H   0  0  0  0  0  0  0  0  0  0  0  0  # atno 713  bound_to 708 
  153.4239  121.4174  168.8980 H   0  0  0  0  0  0  0  0  0  0  0  0  # atno 714  bound_to 708 
  154.3159  122.5089  168.0270 H   0  0  0  0  0  0  0  0  0  0  0  0  # atno 715  bound_to 708 
  139.9379  137.1311  174.7893 H   0  0  0  0  0  0  0  0  0  0  0  0  # atno 1326 bound_to 1317
  139.2954  136.3046  173.5042 H   0  0  0  0  0  0  0  0  0  0  0  0  # atno 1327 bound_to 1317
  140.5579  135.6553  174.3597 H   0  0  0  0  0  0  0  0  0  0  0  0  # atno 1328 bound_to 1317
  133.9061  121.4574  131.9711 H   0  0  0  0  0  0  0  0  0  0  0  0  # atno 1581 bound_to 1565
  145.3191   99.9305  168.6586 H   0  0  0  0  0  0  0  0  0  0  0  0  # atno 1669 bound_to 1661
  136.1237  135.3387   99.0017 H   0  0  0  0  0  0  0  0  0  0  0  0  # atno 1788 bound_to 1769
  138.2236  147.0952  168.9301 H   0  0  0  0  0  0  0  0  0  0  0  0  # atno 1874 bound_to 1868
  140.7205  148.1341  169.1905 H   0  0  0  0  0  0  0  0  0  0  0  0  # atno 1878 bound_to 1873
  140.0689  122.9637  167.9312 H   0  0  0  0  0  0  0  0  0  0  0  0  # atno 1883 bound_to 1867
  127.3492  131.5131  140.4734 H   0  0  0  0  0  0  0  0  0  0  0  0  # atno 2432 bound_to 2427
  145.2931  102.7659  176.8400 H   0  0  0  0  0  0  0  0  0  0  0  0  # atno 2461 bound_to 2452
  127.5829  135.7405  138.9394 H   0  0  0  0  0  0  0  0  0  0  0  0  # atno 2484 bound_to 2473
  137.6132  143.2120  139.2806 H   0  0  0  0  0  0  0  0  0  0  0  0  # atno 4466 bound_to 4459
  137.1173  141.4051  141.2936 H   0  0  0  0  0  0  0  0  0  0  0  0  # atno 4472 bound_to 4465
  152.4028  162.3911  170.7615 H   0  0  0  0  0  0  0  0  0  0  0  0  # atno 4479 bound_to 4458
  145.4797  166.0101  167.2915 H   0  0  0  0  0  0  0  0  0  0  0  0  # atno 4502 bound_to 4497
  157.0334  161.8835  166.2135 H   0  0  0  0  0  0  0  0  0  0  0  0  # atno 5151 bound_to 5142
  160.5270  164.5032  174.1673 H   0  0  0  0  0  0  0  0  0  0  0  0  # atno 5186 bound_to 5181
  145.5804  137.9201  106.3768 H   0  0  0  0  0  0  0  0  0  0  0  0  # atno 6490 bound_to 6474
  133.2744  122.7844  131.0248 LP  0  0  0  0  0  0  0  0  0  0  0  0  # atno 14724 bound_to 1565
  134.4124  122.3637  127.4392 LP  0  0  0  0  0  0  0  0  0  0  0  0  # atno 14725 bound_to 1568
  133.2232  121.2996  126.7657 LP  0  0  0  0  0  0  0  0  0  0  0  0  # atno 14726 bound_to 1568
  155.6117  162.3972  165.6115 LP  0  0  0  0  0  0  0  0  0  0  0  0  # atno 14737 bound_to 5142
  156.5324  161.3515  164.7597 LP  0  0  0  0  0  0  0  0  0  0  0  0  # atno 14738 bound_to 5142
  146.8005  100.5935  168.7737 LP  0  0  0  0  0  0  0  0  0  0  0  0  # atno 14749 bound_to 1661
  145.7592  101.1084  167.6260 LP  0  0  0  0  0  0  0  0  0  0  0  0  # atno 14750 bound_to 1661
  159.3307  163.4478  174.4891 LP  0  0  0  0  0  0  0  0  0  0  0  0  # atno 14757 bound_to 5181
  158.9788  164.9337  173.9105 LP  0  0  0  0  0  0  0  0  0  0  0  0  # atno 14758 bound_to 5181
  137.5155  134.3058   98.7645 LP  0  0  0  0  0  0  0  0  0  0  0  0  # atno 14793 bound_to 1769
  137.9179  134.1746   94.7869 LP  0  0  0  0  0  0  0  0  0  0  0  0  # atno 14794 bound_to 1772
  136.2950  133.7102   94.3989 LP  0  0  0  0  0  0  0  0  0  0  0  0  # atno 14795 bound_to 1772
  139.9694  122.1816  169.3550 LP  0  0  0  0  0  0  0  0  0  0  0  0  # atno 14814 bound_to 1867
  140.4343  123.7463  169.3105 LP  0  0  0  0  0  0  0  0  0  0  0  0  # atno 14815 bound_to 1867
  137.0628  147.3366  170.2151 LP  0  0  0  0  0  0  0  0  0  0  0  0  # atno 14816 bound_to 1868
  136.0302  150.7618  169.9761 LP  0  0  0  0  0  0  0  0  0  0  0  0  # atno 14817 bound_to 1871
  135.8550  149.0675  170.2904 LP  0  0  0  0  0  0  0  0  0  0  0  0  # atno 14818 bound_to 1871
  141.0326  149.1905  167.9929 LP  0  0  0  0  0  0  0  0  0  0  0  0  # atno 14819 bound_to 1873
  139.9407  147.9971  167.7689 LP  0  0  0  0  0  0  0  0  0  0  0  0  # atno 14820 bound_to 1873
  145.7142  139.6333  106.1032 LP  0  0  0  0  0  0  0  0  0  0  0  0  # atno 14839 bound_to 6474
  142.4410  138.3509  109.4843 LP  0  0  0  0  0  0  0  0  0  0  0  0  # atno 14840 bound_to 6477
  143.2797  136.8364  109.5380 LP  0  0  0  0  0  0  0  0  0  0  0  0  # atno 14841 bound_to 6477
  151.8095  163.1069  172.0969 LP  0  0  0  0  0  0  0  0  0  0  0  0  # atno 14852 bound_to 4458
  153.3995  163.2221  171.7432 LP  0  0  0  0  0  0  0  0  0  0  0  0  # atno 14853 bound_to 4458
  138.3071  144.5403  140.1876 LP  0  0  0  0  0  0  0  0  0  0  0  0  # atno 14854 bound_to 4459
  139.8167  143.9281  137.5075 LP  0  0  0  0  0  0  0  0  0  0  0  0  # atno 14855 bound_to 4462
  139.5509  142.2433  137.2060 LP  0  0  0  0  0  0  0  0  0  0  0  0  # atno 14856 bound_to 4462
  138.0890  142.4853  142.0265 LP  0  0  0  0  0  0  0  0  0  0  0  0  # atno 14857 bound_to 4465
  138.1925  140.9005  142.4062 LP  0  0  0  0  0  0  0  0  0  0  0  0  # atno 14858 bound_to 4465
  146.8666  166.7943  167.6239 LP  0  0  0  0  0  0  0  0  0  0  0  0  # atno 14869 bound_to 4497
  146.8524  165.1650  167.5151 LP  0  0  0  0  0  0  0  0  0  0  0  0  # atno 14870 bound_to 4497
  125.1332  143.3704  126.0796 LP  0  0  0  0  0  0  0  0  0  0  0  0  # atno 14877 bound_to 663 
  127.7706  144.4848  129.7686 LP  0  0  0  0  0  0  0  0  0  0  0  0  # atno 14878 bound_to 666 
  128.9630  144.8841  128.5775 LP  0  0  0  0  0  0  0  0  0  0  0  0  # atno 14879 bound_to 666 
  152.1747  116.3151  166.7828 LP  0  0  0  0  0  0  0  0  0  0  0  0  # atno 14882 bound_to 687 
  153.2475  115.8964  167.9405 LP  0  0  0  0  0  0  0  0  0  0  0  0  # atno 14883 bound_to 687 
  126.7786  132.2511  138.9948 LP  0  0  0  0  0  0  0  0  0  0  0  0  # atno 14894 bound_to 2427
  123.7599  134.3445  141.7138 LP  0  0  0  0  0  0  0  0  0  0  0  0  # atno 14895 bound_to 2430
  124.3484  135.4963  140.5619 LP  0  0  0  0  0  0  0  0  0  0  0  0  # atno 14896 bound_to 2430
  144.8626  101.2482  176.4422 LP  0  0  0  0  0  0  0  0  0  0  0  0  # atno 14899 bound_to 2452
  144.3567  101.9010  177.8510 LP  0  0  0  0  0  0  0  0  0  0  0  0  # atno 14900 bound_to 2452
  126.2671  136.4391  139.8498 LP  0  0  0  0  0  0  0  0  0  0  0  0  # atno 14903 bound_to 2473
  123.6768  138.4499  137.6788 LP  0  0  0  0  0  0  0  0  0  0  0  0  # atno 14904 bound_to 2476
  123.9766  137.7575  136.1198 LP  0  0  0  0  0  0  0  0  0  0  0  0  # atno 14905 bound_to 2476

> <Gold.Score>
     Fitness  S(hb_ext) S(vdw_ext)  S(hb_int)    S(int)      intcor
     31.06       0.94      21.93       0.00      -0.03      -0.76

> <Gold.Goldscore.Fitness>
31.0642

> <Gold.Goldscore.Internal.Vdw>
-0.4177

> <Gold.Goldscore.Internal.Torsion>
-0.3676

> <Gold.Goldscore.External.Vdw>
21.9314

> <Gold.Goldscore.Internal.HBond>
0.0000

> <Gold.Goldscore.External.HBond>
0.9354

> <Gold.Goldscore.Internal.Correction>
-0.7585

> <Gold.Goldscore.Hbonds>
donor molecule, donor type, donor heavy atom, donor atom, acceptor molecule, acceptor atom, score
      P1  H  1873  1878       L1    11  0.47

> <Gold.Goldscore.Internal.Vdw.Weighted>
-0.4177

> <Gold.Goldscore.Internal.Torsion.Weighted>
-0.3676

> <Gold.Goldscore.External.Vdw.Weighted>
30.1557

> <Gold.Goldscore.Internal.HBond.Weighted>
0.0000

> <Gold.Goldscore.External.HBond.Weighted>
0.9354

> <Gold.Goldscore.Internal.Correction.Weighted>
-0.7585

> <Gold.Rescore>
     Score     S(PLP)   S(hbond)     S(cho)   S(metal)  DE(clash)   DE(tors)     intcor
     22.19     -19.52       0.89       0.00       0.00       0.00       0.01       ----

> <Gold.PLP.Fitness>
22.1853

> <Gold.PLP.PLP>
-19.5151

> <Gold.PLP.part.hbond>
-0.8814

> <Gold.PLP.part.metal>
0.0000

> <Gold.PLP.part.buried>
-2.4151

> <Gold.PLP.part.nonpolar>
-22.5213

> <Gold.PLP.part.repulsive>
4.9162

> <Gold.PLP.ligand.clash>
0.0000

> <Gold.PLP.ligand.torsion>
0.0056

> <Gold.PLP.Chemscore.Hbond>
0.8938

> <Gold.PLP.Chemscore.CHOScore>
0.0000

> <Gold.PLP.Chemscore.Metal>
0.0000

> <Gold.PLP.Chemscore.Internal.Correction>
   9.000000E+99

