#       Name:                CT1002167954
#       Creating user name   hitesit
#       Creation time:       Sun Apr 16 22:57:04 2023


#       File generated by GOLD software.
#

@<TRIPOS>MOLECULE
CT1002167954|ligand_prepared|mol2|1|dock3
    29    30     1
SMALL
NO_CHARGES


@<TRIPOS>ATOM
      1 C1         142.6330 143.0904 169.9548 C.3            1 RES1               0.0000
      2 C2         144.0787 142.5947 170.1626 C.ar           1 RES1               0.0000
      3 C3         142.1441 143.5693 171.3185 C.2            1 RES1               0.0000
      4 C4         142.7061 144.1882 168.8993 C.2            1 RES1               0.0000
      5 C5         141.6657 141.9982 169.4419 C.3            1 RES1               0.0000
      6 C6         144.3823 141.2393 170.0767 C.ar           1 RES1               0.0000
      7 C7         145.1179 143.4795 170.4378 C.ar           1 RES1               0.0000
      8 N8         142.0417 144.9148 171.5162 N.am           1 RES1               0.0000
      9 O9         141.8900 142.7797 172.2197 O.2            1 RES1               0.0000
     10 N10        142.3876 145.4659 169.2787 N.am           1 RES1               0.0000
     11 O11        143.0526 143.9612 167.7466 O.2            1 RES1               0.0000
     12 C12        140.2703 142.5138 169.1272 C.3            1 RES1               0.0000
     13 C13        145.6784 140.7851 170.2564 C.ar           1 RES1               0.0000
     14 C14        146.4133 143.0232 170.6175 C.ar           1 RES1               0.0000
     15 C15        142.0884 145.8841 170.5467 C.2            1 RES1               0.0000
     16 C16        146.6947 141.6766 170.5265 C.ar           1 RES1               0.0000
     17 O17        141.8664 147.0603 170.8196 O.2            1 RES1               0.0000
     18 H18        142.0891 141.5491 168.5350 H              1 RES1               0.0000
     19 H19        141.5881 141.2104 170.2013 H              1 RES1               0.0000
     20 H20        143.5952 140.5226 169.8674 H              1 RES1               0.0000
     21 H21        144.9197 144.5432 170.5150 H              1 RES1               0.0000
     22 H22        141.9192 145.2294 172.4735 H              1 RES1               0.0000
     23 H23        142.3720 146.1704 168.5482 H              1 RES1               0.0000
     24 H24        139.6323 141.7074 168.7715 H              1 RES1               0.0000
     25 H25        139.8093 142.9447 170.0135 H              1 RES1               0.0000
     26 H26        140.3073 143.2815 168.3570 H              1 RES1               0.0000
     27 H27        145.8944 139.7242 170.1852 H              1 RES1               0.0000
     28 H28        147.2099 143.7283 170.8304 H              1 RES1               0.0000
     29 H29        147.7099 141.3206 170.6668 H              1 RES1               0.0000
@<TRIPOS>BOND
    1    1    2 1     
    2    1    3 1     
    3    1    4 1     
    4    1    5 1     
    5    2    6 ar    
    6    2    7 ar    
    7    3    8 1     
    8    3    9 2     
    9    4   10 1     
   10    4   11 2     
   11    5   12 1     
   12    5   18 1     
   13    5   19 1     
   14    6   13 ar    
   15    6   20 1     
   16    7   14 ar    
   17    7   21 1     
   18    8   15 1     
   19    8   22 1     
   20   10   15 1     
   21   10   23 1     
   22   12   24 1     
   23   12   25 1     
   24   12   26 1     
   25   13   16 ar    
   26   13   27 1     
   27   14   16 ar    
   28   14   28 1     
   29   15   17 2     
   30   16   29 1     
@<TRIPOS>SUBSTRUCTURE
      1 RES1           1
@<TRIPOS>SET
DONOR_HYDROGENS      STATIC     ATOMS    <user>   **** ""
2 22 23
ATOM$RED        STATIC     ATOMS    COLORGROUP SYSTEM
2 22 23
@<TRIPOS>COMMENT
> <Gold.Version>
2022.3.0

> <Gold.Id.Protein>
unknown|7rmh_cavity_clean|pdb

> <Gold.Protein.RotatedTorsions>
[ 1581 1565 1566 1567 ] final  -44.93 input  115.26 | X-H torsion
[ 5151 5142 5141 5139 ] final   97.13 input   59.98 | X-H torsion
[ 1669 1661 1660 1658 ] final   39.10 input   59.97 | X-H torsion
[ 5186 5181 5180 5177 ] final   40.43 input   59.99 | X-H torsion
[ 1788 1769 1770 1771 ] final  -44.40 input  122.82 | X-H torsion
[ 1883 1867 1866 1863 ] final   -7.43 input   59.99 | X-H torsion
[ 1874 1868 1869 1870 ] final -136.20 input   29.02 | X-H torsion
[ 1878 1873 1872 1869 ] final  -30.97 input   60.02 | X-H torsion
[ 6490 6474 6475 6476 ] final  115.35 input  103.68 | X-H torsion
[ 4479 4458 4456 4453 ] final   30.30 input   59.98 | X-H torsion
[ 4466 4459 4460 4461 ] final -148.82 input   43.99 | X-H torsion
[ 4472 4465 4463 4460 ] final   54.04 input   60.01 | X-H torsion
[ 4502 4497 4496 4493 ] final -127.36 input   59.97 | X-H torsion
[  675  663  664  665 ] final   77.31 input  108.58 | X-H torsion
[  692  687  686  683 ] final  -58.42 input   59.99 | X-H torsion
[  713  708  707  706 ] final -122.55 input   60.01 | X-H torsion
[ 2432 2427 2428 2429 ] final  -47.10 input   99.19 | X-H torsion
[ 2461 2452 2451 2449 ] final -106.14 input   60.00 | X-H torsion
[ 2484 2473 2474 2475 ] final  -34.85 input  111.54 | X-H torsion
[ 1326 1317 1316 1315 ] final   73.32 input   60.01 | X-H torsion
[ 14725 1568 1567 1566 ] final  -98.90 input    0.00 | X-H torsion
[ 14794 1772 1771 1770 ] final  -50.93 input    0.00 | X-H torsion
[ 14817 1871 1870 1869 ] final  -33.07 input    0.00 | X-H torsion
[ 14840 6477 6476 6475 ] final  152.47 input   -0.00 | X-H torsion
[ 14855 4462 4461 4460 ] final -134.20 input    0.00 | X-H torsion
[ 14878  666  665  664 ] final  -62.42 input   -0.00 | X-H torsion
[ 14895 2430 2429 2428 ] final   37.26 input    0.00 | X-H torsion
[ 14904 2476 2475 2474 ] final   15.17 input    0.00 | X-H torsion

> <Gold.Protein.ActiveResidues>
 LEU46   GLY47   ALA48   ASP49   ASN50   SER51   LYS53   VAL224  GLY225  GLY226 
 GLN227  ARG228  ASP229  GLU230  ARG231  ARG232  LYS233  TRP234  ILE235  GLN236 
 CYS237  PHE246  VAL247  VAL248  ASP249  ASP252  TYR253  ASN264  ARG265  LEU266 
 GLN267  GLU268  ALA269  LEU270  ASN271  LEU272  LYS274  SER275  ASN278  ASN279 
 ARG280  TRP281  ASP310  TYR311  PHE312  GLU344  ARG347  ILE348  ALA351  ILE18  
 TRP63   THR65   ASP66   SER67   ARG68   LEU69   TYR105  ALA106  PRO107  SER108 
 GLY109  ASN110  CYS149  ARG150  PHE151  ASP154  ASN155  GLN156  LEU192  ALA193 
 PRO194  ASP195  THR196  ARG197  LEU198  VAL200  ILE229  ASN230  ALA231  CYS233 
 PHE235 

> <Gold.Protein.RotatedAtoms>
  125.0707  143.4794  126.1850 H   0  0  0  0  0  0  0  0  0  0  0  0  # atno 675  bound_to 663 
  152.2356  115.7805  168.5567 H   0  0  0  0  0  0  0  0  0  0  0  0  # atno 692  bound_to 687 
  154.3193  122.5064  168.0470 H   0  0  0  0  0  0  0  0  0  0  0  0  # atno 713  bound_to 708 
  153.1339  121.6466  167.2716 H   0  0  0  0  0  0  0  0  0  0  0  0  # atno 714  bound_to 708 
  153.4091  121.4068  168.8880 H   0  0  0  0  0  0  0  0  0  0  0  0  # atno 715  bound_to 708 
  140.6504  136.1199  174.7996 H   0  0  0  0  0  0  0  0  0  0  0  0  # atno 1326 bound_to 1317
  139.4731  137.1947  174.3450 H   0  0  0  0  0  0  0  0  0  0  0  0  # atno 1327 bound_to 1317
  139.6683  135.7765  173.5094 H   0  0  0  0  0  0  0  0  0  0  0  0  # atno 1328 bound_to 1317
  133.3272  122.8280  131.0142 H   0  0  0  0  0  0  0  0  0  0  0  0  # atno 1581 bound_to 1565
  146.4076  101.2142  167.8814 H   0  0  0  0  0  0  0  0  0  0  0  0  # atno 1669 bound_to 1661
  137.6301  134.8467   98.4986 H   0  0  0  0  0  0  0  0  0  0  0  0  # atno 1788 bound_to 1769
  138.2879  146.7363  169.9372 H   0  0  0  0  0  0  0  0  0  0  0  0  # atno 1874 bound_to 1868
  140.6939  148.1055  169.1843 H   0  0  0  0  0  0  0  0  0  0  0  0  # atno 1878 bound_to 1873
  139.9747  122.6251  168.0098 H   0  0  0  0  0  0  0  0  0  0  0  0  # atno 1883 bound_to 1867
  127.0032  132.5766  139.1729 H   0  0  0  0  0  0  0  0  0  0  0  0  # atno 2432 bound_to 2427
  145.3775  102.4369  176.4350 H   0  0  0  0  0  0  0  0  0  0  0  0  # atno 2461 bound_to 2452
  126.1837  136.3210  139.8253 H   0  0  0  0  0  0  0  0  0  0  0  0  # atno 2484 bound_to 2473
  137.9412  144.1514  140.5945 H   0  0  0  0  0  0  0  0  0  0  0  0  # atno 4466 bound_to 4459
  137.3090  142.1598  141.3414 H   0  0  0  0  0  0  0  0  0  0  0  0  # atno 4472 bound_to 4465
  152.2297  162.3881  170.8150 H   0  0  0  0  0  0  0  0  0  0  0  0  # atno 4479 bound_to 4458
  145.4937  165.8394  167.2832 H   0  0  0  0  0  0  0  0  0  0  0  0  # atno 4502 bound_to 4497
  155.6550  161.9982  164.9685 H   0  0  0  0  0  0  0  0  0  0  0  0  # atno 5151 bound_to 5142
  158.7880  163.8680  174.2949 H   0  0  0  0  0  0  0  0  0  0  0  0  # atno 5186 bound_to 5181
  145.2638  139.3495  105.7109 H   0  0  0  0  0  0  0  0  0  0  0  0  # atno 6490 bound_to 6474
  133.8388  121.4482  131.9577 LP  0  0  0  0  0  0  0  0  0  0  0  0  # atno 14724 bound_to 1565
  133.5865  122.6546  127.2413 LP  0  0  0  0  0  0  0  0  0  0  0  0  # atno 14725 bound_to 1568
  134.0492  121.0087  126.9636 LP  0  0  0  0  0  0  0  0  0  0  0  0  # atno 14726 bound_to 1568
  157.0959  161.3046  165.2688 LP  0  0  0  0  0  0  0  0  0  0  0  0  # atno 14737 bound_to 5142
  156.4368  162.3286  166.3567 LP  0  0  0  0  0  0  0  0  0  0  0  0  # atno 14738 bound_to 5142
  145.0780  100.3052  168.1124 LP  0  0  0  0  0  0  0  0  0  0  0  0  # atno 14749 bound_to 1661
  146.3851  100.1036  169.0703 LP  0  0  0  0  0  0  0  0  0  0  0  0  # atno 14750 bound_to 1661
  159.6495  165.1787  173.8613 LP  0  0  0  0  0  0  0  0  0  0  0  0  # atno 14757 bound_to 5181
  160.4111  163.8424  174.4098 LP  0  0  0  0  0  0  0  0  0  0  0  0  # atno 14758 bound_to 5181
  136.0529  134.7835   99.2529 LP  0  0  0  0  0  0  0  0  0  0  0  0  # atno 14793 bound_to 1769
  137.6454  133.5383   95.1372 LP  0  0  0  0  0  0  0  0  0  0  0  0  # atno 14794 bound_to 1772
  136.5675  134.3465   94.0486 LP  0  0  0  0  0  0  0  0  0  0  0  0  # atno 14795 bound_to 1772
  140.0627  122.4101  169.6206 LP  0  0  0  0  0  0  0  0  0  0  0  0  # atno 14814 bound_to 1867
  140.4359  123.8588  168.9658 LP  0  0  0  0  0  0  0  0  0  0  0  0  # atno 14815 bound_to 1867
  137.0001  147.6865  169.2333 LP  0  0  0  0  0  0  0  0  0  0  0  0  # atno 14816 bound_to 1868
  136.2080  149.6979  169.3379 LP  0  0  0  0  0  0  0  0  0  0  0  0  # atno 14817 bound_to 1871
  135.6772  150.1314  170.9286 LP  0  0  0  0  0  0  0  0  0  0  0  0  # atno 14818 bound_to 1871
  141.0513  149.1931  168.0280 LP  0  0  0  0  0  0  0  0  0  0  0  0  # atno 14819 bound_to 1873
  139.9489  148.0233  167.7400 LP  0  0  0  0  0  0  0  0  0  0  0  0  # atno 14820 bound_to 1873
  146.0313  138.2019  106.7701 LP  0  0  0  0  0  0  0  0  0  0  0  0  # atno 14839 bound_to 6474
  142.2049  137.1433  109.1684 LP  0  0  0  0  0  0  0  0  0  0  0  0  # atno 14840 bound_to 6477
  143.5159  138.0440  109.8539 LP  0  0  0  0  0  0  0  0  0  0  0  0  # atno 14841 bound_to 6477
  151.9340  163.1962  172.1960 LP  0  0  0  0  0  0  0  0  0  0  0  0  # atno 14852 bound_to 4458
  153.4493  163.1359  171.5903 LP  0  0  0  0  0  0  0  0  0  0  0  0  # atno 14853 bound_to 4458
  137.9910  143.6350  138.9215 LP  0  0  0  0  0  0  0  0  0  0  0  0  # atno 14854 bound_to 4459
  140.0623  142.3839  137.0187 LP  0  0  0  0  0  0  0  0  0  0  0  0  # atno 14855 bound_to 4462
  139.3053  143.7874  137.6948 LP  0  0  0  0  0  0  0  0  0  0  0  0  # atno 14856 bound_to 4462
  138.4607  141.9566  142.4730 LP  0  0  0  0  0  0  0  0  0  0  0  0  # atno 14857 bound_to 4465
  137.6277  140.6692  141.9115 LP  0  0  0  0  0  0  0  0  0  0  0  0  # atno 14858 bound_to 4465
  146.7134  166.8698  167.5979 LP  0  0  0  0  0  0  0  0  0  0  0  0  # atno 14869 bound_to 4497
  146.9916  165.2614  167.5494 LP  0  0  0  0  0  0  0  0  0  0  0  0  # atno 14870 bound_to 4497
  125.3666  142.1598  127.2871 LP  0  0  0  0  0  0  0  0  0  0  0  0  # atno 14877 bound_to 663 
  128.0226  143.9801  129.5409 LP  0  0  0  0  0  0  0  0  0  0  0  0  # atno 14878 bound_to 666 
  128.7110  145.3889  128.8052 LP  0  0  0  0  0  0  0  0  0  0  0  0  # atno 14879 bound_to 666 
  151.6105  116.2509  167.1303 LP  0  0  0  0  0  0  0  0  0  0  0  0  # atno 14882 bound_to 687 
  153.2260  116.0874  167.3031 LP  0  0  0  0  0  0  0  0  0  0  0  0  # atno 14883 bound_to 687 
  127.1159  131.2143  140.2628 LP  0  0  0  0  0  0  0  0  0  0  0  0  # atno 14894 bound_to 2427
  123.6768  134.2426  141.5227 LP  0  0  0  0  0  0  0  0  0  0  0  0  # atno 14895 bound_to 2430
  124.4315  135.5983  140.7530 LP  0  0  0  0  0  0  0  0  0  0  0  0  # atno 14896 bound_to 2430
  144.5643  101.0917  176.8547 LP  0  0  0  0  0  0  0  0  0  0  0  0  # atno 14899 bound_to 2452
  144.5699  102.3889  177.8466 LP  0  0  0  0  0  0  0  0  0  0  0  0  # atno 14900 bound_to 2452
  127.6423  135.8685  138.9792 LP  0  0  0  0  0  0  0  0  0  0  0  0  # atno 14903 bound_to 2473
  124.5563  138.4426  136.5785 LP  0  0  0  0  0  0  0  0  0  0  0  0  # atno 14904 bound_to 2476
  123.0971  137.7648  137.2201 LP  0  0  0  0  0  0  0  0  0  0  0  0  # atno 14905 bound_to 2476

> <Gold.Score>
     Fitness  S(hb_ext) S(vdw_ext)  S(hb_int)    S(int)      intcor
     31.97       2.11      22.23       0.00      -0.70      -0.76

> <Gold.Goldscore.Fitness>
31.9731

> <Gold.Goldscore.Internal.Vdw>
-1.0613

> <Gold.Goldscore.Internal.Torsion>
-0.4018

> <Gold.Goldscore.External.Vdw>
22.2304

> <Gold.Goldscore.Internal.HBond>
0.0000

> <Gold.Goldscore.External.HBond>
2.1109

> <Gold.Goldscore.Internal.Correction>
-0.7585

> <Gold.Goldscore.Hbonds>
donor molecule, donor type, donor heavy atom, donor atom, acceptor molecule, acceptor atom, score
      P1  H  1873  1878       L1    17  0.85
      L1  H     8    22       P1  6894  0.20

> <Gold.Goldscore.Internal.Vdw.Weighted>
-1.0613

> <Gold.Goldscore.Internal.Torsion.Weighted>
-0.4018

> <Gold.Goldscore.External.Vdw.Weighted>
30.5668

> <Gold.Goldscore.Internal.HBond.Weighted>
0.0000

> <Gold.Goldscore.External.HBond.Weighted>
2.1109

> <Gold.Goldscore.Internal.Correction.Weighted>
-0.7585

> <Gold.Rescore>
     Score     S(PLP)   S(hbond)     S(cho)   S(metal)  DE(clash)   DE(tors)     intcor
     31.17     -26.02       1.79       0.00       0.00       0.00       0.10       ----

> <Gold.PLP.Fitness>
31.1713

> <Gold.PLP.PLP>
-26.0190

> <Gold.PLP.part.hbond>
-4.0000

> <Gold.PLP.part.metal>
0.0000

> <Gold.PLP.part.buried>
-1.5335

> <Gold.PLP.part.nonpolar>
-26.2140

> <Gold.PLP.part.repulsive>
4.9796

> <Gold.PLP.ligand.clash>
0.0000

> <Gold.PLP.ligand.torsion>
0.1032

> <Gold.PLP.Chemscore.Hbond>
1.7862

> <Gold.PLP.Chemscore.CHOScore>
0.0000

> <Gold.PLP.Chemscore.Metal>
0.0000

> <Gold.Chemscore.Hbonds>
donor molecule, donor type, donor heavy atom, donor atom, acceptor molecule, acceptor atom, score
      L1  H     8    22       P1  6894  0.91
      P1  H  1873  1878       L1    17  0.59

> <Gold.PLP.Chemscore.Internal.Correction>
   9.000000E+99

