#       Name:                CT1002167954
#       Creating user name   hitesit
#       Creation time:       Sun Apr 16 22:59:17 2023


#       File generated by GOLD software.
#

@<TRIPOS>MOLECULE
CT1002167954|ligand_prepared|mol2|1|dock10
    29    30     1
SMALL
NO_CHARGES


@<TRIPOS>ATOM
      1 C1         142.5141 142.3089 169.1531 C.3            1 RES1               0.0000
      2 C2         143.8765 142.5272 169.8422 C.ar           1 RES1               0.0000
      3 C3         142.5831 143.0522 167.8223 C.2            1 RES1               0.0000
      4 C4         142.3428 140.8002 169.0149 C.2            1 RES1               0.0000
      5 C5         141.3120 142.8544 169.9586 C.3            1 RES1               0.0000
      6 C6         144.9080 141.6070 169.6804 C.ar           1 RES1               0.0000
      7 C7         144.1173 143.6431 170.6393 C.ar           1 RES1               0.0000
      8 N8         142.7087 142.3061 166.6877 N.am           1 RES1               0.0000
      9 O9         142.5675 144.2759 167.7723 O.2            1 RES1               0.0000
     10 N10        142.3219 140.2694 167.7517 N.am           1 RES1               0.0000
     11 O11        142.2424 140.0644 169.9889 O.2            1 RES1               0.0000
     12 C12        139.9612 142.4044 169.4247 C.3            1 RES1               0.0000
     13 C13        146.1367 141.7971 170.2907 C.ar           1 RES1               0.0000
     14 C14        145.3468 143.8311 171.2489 C.ar           1 RES1               0.0000
     15 C15        142.5279 140.9503 166.5829 C.2            1 RES1               0.0000
     16 C16        146.3571 142.9093 171.0749 C.ar           1 RES1               0.0000
     17 O17        142.5486 140.3940 165.4887 O.2            1 RES1               0.0000
     18 H18        141.4070 142.5258 171.0009 H              1 RES1               0.0000
     19 H19        141.3482 143.9508 169.9481 H              1 RES1               0.0000
     20 H20        144.7523 140.7245 169.0689 H              1 RES1               0.0000
     21 H21        143.3368 144.3809 170.7911 H              1 RES1               0.0000
     22 H22        142.9604 142.8020 165.8385 H              1 RES1               0.0000
     23 H23        142.1353 139.2745 167.6757 H              1 RES1               0.0000
     24 H24        139.1526 142.8151 170.0257 H              1 RES1               0.0000
     25 H25        139.8224 142.7360 168.3978 H              1 RES1               0.0000
     26 H26        139.8808 141.3195 169.4443 H              1 RES1               0.0000
     27 H27        146.9280 141.0679 170.1517 H              1 RES1               0.0000
     28 H28        145.5156 144.7076 171.8658 H              1 RES1               0.0000
     29 H29        147.3198 143.0581 171.5526 H              1 RES1               0.0000
@<TRIPOS>BOND
    1    1    2 1     
    2    1    3 1     
    3    1    4 1     
    4    1    5 1     
    5    2    6 ar    
    6    2    7 ar    
    7    3    8 1     
    8    3    9 2     
    9    4   10 1     
   10    4   11 2     
   11    5   12 1     
   12    5   18 1     
   13    5   19 1     
   14    6   13 ar    
   15    6   20 1     
   16    7   14 ar    
   17    7   21 1     
   18    8   15 1     
   19    8   22 1     
   20   10   15 1     
   21   10   23 1     
   22   12   24 1     
   23   12   25 1     
   24   12   26 1     
   25   13   16 ar    
   26   13   27 1     
   27   14   16 ar    
   28   14   28 1     
   29   15   17 2     
   30   16   29 1     
@<TRIPOS>SUBSTRUCTURE
      1 RES1           1
@<TRIPOS>SET
DONOR_HYDROGENS      STATIC     ATOMS    <user>   **** ""
2 22 23
ATOM$RED        STATIC     ATOMS    COLORGROUP SYSTEM
2 22 23
@<TRIPOS>COMMENT
> <Gold.Version>
2022.3.0

> <Gold.Id.Protein>
unknown|7rmh_cavity_clean|pdb

> <Gold.Protein.RotatedTorsions>
[ 1581 1565 1566 1567 ] final   72.12 input  115.26 | X-H torsion
[ 5151 5142 5141 5139 ] final   62.32 input   59.98 | X-H torsion
[ 1669 1661 1660 1658 ] final -139.84 input   59.97 | X-H torsion
[ 5186 5181 5180 5177 ] final  -22.61 input   59.99 | X-H torsion
[ 1788 1769 1770 1771 ] final    1.55 input  122.82 | X-H torsion
[ 1883 1867 1866 1863 ] final  -49.51 input   59.99 | X-H torsion
[ 1874 1868 1869 1870 ] final -162.58 input   29.02 | X-H torsion
[ 1878 1873 1872 1869 ] final   12.90 input   60.02 | X-H torsion
[ 6490 6474 6475 6476 ] final -153.93 input  103.68 | X-H torsion
[ 4479 4458 4456 4453 ] final  -27.89 input   59.98 | X-H torsion
[ 4466 4459 4460 4461 ] final -136.72 input   43.99 | X-H torsion
[ 4472 4465 4463 4460 ] final  -77.62 input   60.01 | X-H torsion
[ 4502 4497 4496 4493 ] final -153.89 input   59.97 | X-H torsion
[  675  663  664  665 ] final -160.22 input  108.58 | X-H torsion
[  692  687  686  683 ] final  112.57 input   59.99 | X-H torsion
[  713  708  707  706 ] final   48.09 input   60.01 | X-H torsion
[ 2432 2427 2428 2429 ] final  125.79 input   99.19 | X-H torsion
[ 2461 2452 2451 2449 ] final -112.20 input   60.00 | X-H torsion
[ 2484 2473 2474 2475 ] final -168.89 input  111.54 | X-H torsion
[ 1326 1317 1316 1315 ] final  177.99 input   60.01 | X-H torsion
[ 14725 1568 1567 1566 ] final  146.13 input    0.00 | X-H torsion
[ 14794 1772 1771 1770 ] final  140.04 input    0.00 | X-H torsion
[ 14817 1871 1870 1869 ] final -102.50 input    0.00 | X-H torsion
[ 14840 6477 6476 6475 ] final  129.67 input   -0.00 | X-H torsion
[ 14855 4462 4461 4460 ] final   96.45 input    0.00 | X-H torsion
[ 14878  666  665  664 ] final -141.10 input   -0.00 | X-H torsion
[ 14895 2430 2429 2428 ] final   51.19 input    0.00 | X-H torsion
[ 14904 2476 2475 2474 ] final -145.63 input    0.00 | X-H torsion

> <Gold.Protein.ActiveResidues>
 LEU46   GLY47   ALA48   ASP49   ASN50   SER51   LYS53   VAL224  GLY225  GLY226 
 GLN227  ARG228  ASP229  GLU230  ARG231  ARG232  LYS233  TRP234  ILE235  GLN236 
 CYS237  PHE246  VAL247  VAL248  ASP249  ASP252  TYR253  ASN264  ARG265  LEU266 
 GLN267  GLU268  ALA269  LEU270  ASN271  LEU272  LYS274  SER275  ASN278  ASN279 
 ARG280  TRP281  ASP310  TYR311  PHE312  GLU344  ARG347  ILE348  ALA351  ILE18  
 TRP63   THR65   ASP66   SER67   ARG68   LEU69   TYR105  ALA106  PRO107  SER108 
 GLY109  ASN110  CYS149  ARG150  PHE151  ASP154  ASN155  GLN156  LEU192  ALA193 
 PRO194  ASP195  THR196  ARG197  LEU198  VAL200  ILE229  ASN230  ALA231  CYS233 
 PHE235 

> <Gold.Protein.RotatedAtoms>
  125.5117  142.0325  126.4700 H   0  0  0  0  0  0  0  0  0  0  0  0  # atno 675  bound_to 663 
  152.6218  116.2762  166.7999 H   0  0  0  0  0  0  0  0  0  0  0  0  # atno 692  bound_to 687 
  152.9057  121.2317  167.9393 H   0  0  0  0  0  0  0  0  0  0  0  0  # atno 713  bound_to 708 
  154.0160  121.9538  168.9349 H   0  0  0  0  0  0  0  0  0  0  0  0  # atno 714  bound_to 708 
  153.9413  122.3744  167.3338 H   0  0  0  0  0  0  0  0  0  0  0  0  # atno 715  bound_to 708 
  139.6391  137.2173  174.5371 H   0  0  0  0  0  0  0  0  0  0  0  0  # atno 1326 bound_to 1317
  139.4973  135.9609  173.4652 H   0  0  0  0  0  0  0  0  0  0  0  0  # atno 1327 bound_to 1317
  140.6548  135.9125  174.6507 H   0  0  0  0  0  0  0  0  0  0  0  0  # atno 1328 bound_to 1317
  133.0069  121.4663  131.5823 H   0  0  0  0  0  0  0  0  0  0  0  0  # atno 1581 bound_to 1565
  145.4936   99.8753  168.8172 H   0  0  0  0  0  0  0  0  0  0  0  0  # atno 1669 bound_to 1661
  137.2788  135.4410   98.4410 H   0  0  0  0  0  0  0  0  0  0  0  0  # atno 1788 bound_to 1769
  138.4100  146.7888  169.5558 H   0  0  0  0  0  0  0  0  0  0  0  0  # atno 1874 bound_to 1868
  140.2198  147.7343  168.8287 H   0  0  0  0  0  0  0  0  0  0  0  0  # atno 1878 bound_to 1873
  139.8780  122.1558  168.4815 H   0  0  0  0  0  0  0  0  0  0  0  0  # atno 1883 bound_to 1867
  127.1735  131.2639  140.3435 H   0  0  0  0  0  0  0  0  0  0  0  0  # atno 2432 bound_to 2427
  145.3742  102.3559  176.3784 H   0  0  0  0  0  0  0  0  0  0  0  0  # atno 2461 bound_to 2452
  127.7050  136.4740  139.2861 H   0  0  0  0  0  0  0  0  0  0  0  0  # atno 2484 bound_to 2473
  138.0574  144.2869  140.5354 H   0  0  0  0  0  0  0  0  0  0  0  0  # atno 4466 bound_to 4459
  138.4815  141.7733  142.5223 H   0  0  0  0  0  0  0  0  0  0  0  0  # atno 4472 bound_to 4465
  151.6367  162.6629  171.4488 H   0  0  0  0  0  0  0  0  0  0  0  0  # atno 4479 bound_to 4458
  145.5176  166.2671  167.3158 H   0  0  0  0  0  0  0  0  0  0  0  0  # atno 4502 bound_to 4497
  156.0028  161.6413  164.7131 H   0  0  0  0  0  0  0  0  0  0  0  0  # atno 5151 bound_to 5142
  158.8505  164.7842  173.9558 H   0  0  0  0  0  0  0  0  0  0  0  0  # atno 5186 bound_to 5181
  146.1715  139.3966  106.5501 H   0  0  0  0  0  0  0  0  0  0  0  0  # atno 6490 bound_to 6474
  134.1511  122.7758  131.4039 LP  0  0  0  0  0  0  0  0  0  0  0  0  # atno 14724 bound_to 1565
  133.1980  121.3296  126.7652 LP  0  0  0  0  0  0  0  0  0  0  0  0  # atno 14725 bound_to 1568
  134.4377  122.3337  127.4397 LP  0  0  0  0  0  0  0  0  0  0  0  0  # atno 14726 bound_to 1568
  157.2295  161.5153  165.7746 LP  0  0  0  0  0  0  0  0  0  0  0  0  # atno 14737 bound_to 5142
  155.9528  162.4774  166.1081 LP  0  0  0  0  0  0  0  0  0  0  0  0  # atno 14738 bound_to 5142
  146.8381  100.7672  168.6065 LP  0  0  0  0  0  0  0  0  0  0  0  0  # atno 14749 bound_to 1661
  145.5458  100.9904  167.6335 LP  0  0  0  0  0  0  0  0  0  0  0  0  # atno 14750 bound_to 1661
  160.4685  164.6840  174.0984 LP  0  0  0  0  0  0  0  0  0  0  0  0  # atno 14757 bound_to 5181
  159.5292  163.4145  174.5141 LP  0  0  0  0  0  0  0  0  0  0  0  0  # atno 14758 bound_to 5181
  136.3939  134.2064   99.3088 LP  0  0  0  0  0  0  0  0  0  0  0  0  # atno 14793 bound_to 1769
  136.6935  134.4518   94.0272 LP  0  0  0  0  0  0  0  0  0  0  0  0  # atno 14794 bound_to 1772
  137.5194  133.4330   95.1586 LP  0  0  0  0  0  0  0  0  0  0  0  0  # atno 14795 bound_to 1772
  140.2654  123.0313  169.7976 LP  0  0  0  0  0  0  0  0  0  0  0  0  # atno 14814 bound_to 1867
  140.3305  123.7101  168.3138 LP  0  0  0  0  0  0  0  0  0  0  0  0  # atno 14815 bound_to 1867
  136.8811  147.6354  169.6051 LP  0  0  0  0  0  0  0  0  0  0  0  0  # atno 14816 bound_to 1868
  136.1297  150.6230  169.6714 LP  0  0  0  0  0  0  0  0  0  0  0  0  # atno 14817 bound_to 1871
  135.7555  149.2064  170.5951 LP  0  0  0  0  0  0  0  0  0  0  0  0  # atno 14818 bound_to 1871
  141.2148  149.0143  168.6893 LP  0  0  0  0  0  0  0  0  0  0  0  0  # atno 14819 bound_to 1873
  140.2630  148.5761  167.4368 LP  0  0  0  0  0  0  0  0  0  0  0  0  # atno 14820 bound_to 1873
  145.1223  138.1547  105.9298 LP  0  0  0  0  0  0  0  0  0  0  0  0  # atno 14839 bound_to 6474
  142.0738  137.4594  109.1746 LP  0  0  0  0  0  0  0  0  0  0  0  0  # atno 14840 bound_to 6477
  143.6469  137.7279  109.8477 LP  0  0  0  0  0  0  0  0  0  0  0  0  # atno 14841 bound_to 6477
  152.8186  163.4282  172.2644 LP  0  0  0  0  0  0  0  0  0  0  0  0  # atno 14852 bound_to 4458
  153.1621  162.6272  170.8835 LP  0  0  0  0  0  0  0  0  0  0  0  0  # atno 14853 bound_to 4458
  137.8790  143.5045  138.9784 LP  0  0  0  0  0  0  0  0  0  0  0  0  # atno 14854 bound_to 4459
  139.9871  143.8940  137.4251 LP  0  0  0  0  0  0  0  0  0  0  0  0  # atno 14855 bound_to 4462
  139.3804  142.2774  137.2884 LP  0  0  0  0  0  0  0  0  0  0  0  0  # atno 14856 bound_to 4462
  137.4962  140.7126  141.7791 LP  0  0  0  0  0  0  0  0  0  0  0  0  # atno 14857 bound_to 4465
  137.4115  142.3025  141.4163 LP  0  0  0  0  0  0  0  0  0  0  0  0  # atno 14858 bound_to 4465
  147.0681  166.6284  167.6537 LP  0  0  0  0  0  0  0  0  0  0  0  0  # atno 14869 bound_to 4497
  146.6128  165.0721  167.4608 LP  0  0  0  0  0  0  0  0  0  0  0  0  # atno 14870 bound_to 4497
  124.9312  143.5880  127.0058 LP  0  0  0  0  0  0  0  0  0  0  0  0  # atno 14877 bound_to 663 
  127.7970  145.0397  129.7200 LP  0  0  0  0  0  0  0  0  0  0  0  0  # atno 14878 bound_to 666 
  128.9366  144.3293  128.6260 LP  0  0  0  0  0  0  0  0  0  0  0  0  # atno 14879 bound_to 666 
  153.0049  115.8037  168.3088 LP  0  0  0  0  0  0  0  0  0  0  0  0  # atno 14882 bound_to 687 
  151.4425  116.0353  167.8944 LP  0  0  0  0  0  0  0  0  0  0  0  0  # atno 14883 bound_to 687 
  126.9499  132.4940  139.1215 LP  0  0  0  0  0  0  0  0  0  0  0  0  # atno 14894 bound_to 2427
  123.7510  134.3329  141.6973 LP  0  0  0  0  0  0  0  0  0  0  0  0  # atno 14895 bound_to 2430
  124.3573  135.5079  140.5784 LP  0  0  0  0  0  0  0  0  0  0  0  0  # atno 14896 bound_to 2430
  144.5163  101.0935  176.9420 LP  0  0  0  0  0  0  0  0  0  0  0  0  # atno 14899 bound_to 2452
  144.6213  102.4687  177.8163 LP  0  0  0  0  0  0  0  0  0  0  0  0  # atno 14900 bound_to 2452
  126.1471  135.7182  139.5091 LP  0  0  0  0  0  0  0  0  0  0  0  0  # atno 14903 bound_to 2473
  123.1675  137.9420  137.4372 LP  0  0  0  0  0  0  0  0  0  0  0  0  # atno 14904 bound_to 2476
  124.4859  138.2654  136.3614 LP  0  0  0  0  0  0  0  0  0  0  0  0  # atno 14905 bound_to 2476

> <Gold.Score>
     Fitness  S(hb_ext) S(vdw_ext)  S(hb_int)    S(int)      intcor
     31.94       1.79      22.39       0.00      -0.63      -0.75

> <Gold.Goldscore.Fitness>
31.9429

> <Gold.Goldscore.Internal.Vdw>
-0.8167

> <Gold.Goldscore.Internal.Torsion>
-0.5676

> <Gold.Goldscore.External.Vdw>
22.3901

> <Gold.Goldscore.Internal.HBond>
0.0000

> <Gold.Goldscore.External.HBond>
1.7858

> <Gold.Goldscore.Internal.Correction>
-0.7550

> <Gold.Goldscore.Hbonds>
donor molecule, donor type, donor heavy atom, donor atom, acceptor molecule, acceptor atom, score
      L1  H    10    23       P1  1382  0.89

> <Gold.Goldscore.Internal.Vdw.Weighted>
-0.8167

> <Gold.Goldscore.Internal.Torsion.Weighted>
-0.5676

> <Gold.Goldscore.External.Vdw.Weighted>
30.7864

> <Gold.Goldscore.Internal.HBond.Weighted>
0.0000

> <Gold.Goldscore.External.HBond.Weighted>
1.7858

> <Gold.Goldscore.Internal.Correction.Weighted>
-0.7550

> <Gold.Rescore>
     Score     S(PLP)   S(hbond)     S(cho)   S(metal)  DE(clash)   DE(tors)     intcor
     29.71     -28.88       1.00       0.00       0.00       2.13       0.02       ----

> <Gold.PLP.Fitness>
29.7122

> <Gold.PLP.PLP>
-28.8770

> <Gold.PLP.part.hbond>
-3.8185

> <Gold.PLP.part.metal>
0.0000

> <Gold.PLP.part.buried>
1.2097

> <Gold.PLP.part.nonpolar>
-27.9857

> <Gold.PLP.part.repulsive>
0.4982

> <Gold.PLP.ligand.clash>
2.1318

> <Gold.PLP.ligand.torsion>
0.0165

> <Gold.PLP.Chemscore.Hbond>
1.0000

> <Gold.PLP.Chemscore.CHOScore>
0.0000

> <Gold.PLP.Chemscore.Metal>
0.0000

> <Gold.Chemscore.Hbonds>
donor molecule, donor type, donor heavy atom, donor atom, acceptor molecule, acceptor atom, score
      L1  H    10    23       P1  1382  0.32

> <Gold.PLP.Chemscore.Internal.Correction>
   9.000000E+99

