#       Name:                CT1002167954
#       Creating user name   hitesit
#       Creation time:       Sun Apr 16 22:58:39 2023


#       File generated by GOLD software.
#

@<TRIPOS>MOLECULE
CT1002167954|ligand_prepared|mol2|1|dock8
    29    30     1
SMALL
NO_CHARGES


@<TRIPOS>ATOM
      1 C1         143.0351 140.9537 169.0411 C.3            1 RES1               0.0000
      2 C2         144.2901 140.3064 169.6613 C.ar           1 RES1               0.0000
      3 C3         142.4293 139.9078 168.1099 C.2            1 RES1               0.0000
      4 C4         142.1350 141.3435 170.2083 C.2            1 RES1               0.0000
      5 C5         143.3316 142.2299 168.2195 C.3            1 RES1               0.0000
      6 C6         145.3346 141.0955 170.1337 C.ar           1 RES1               0.0000
      7 C7         144.4164 138.9241 169.7703 C.ar           1 RES1               0.0000
      8 N8         141.2882 139.2828 168.5189 N.am           1 RES1               0.0000
      9 O9         142.9663 139.6075 167.0508 O.2            1 RES1               0.0000
     10 N10        140.9320 140.6996 170.3343 N.am           1 RES1               0.0000
     11 O11        142.4640 142.1906 171.0296 O.2            1 RES1               0.0000
     12 C12        142.1569 142.7046 167.3787 C.3            1 RES1               0.0000
     13 C13        146.4632 140.5236 170.6972 C.ar           1 RES1               0.0000
     14 C14        145.5460 138.3542 170.3340 C.ar           1 RES1               0.0000
     15 C15        140.4813 139.6653 169.5602 C.2            1 RES1               0.0000
     16 C16        146.5695 139.1528 170.7982 C.ar           1 RES1               0.0000
     17 O17        139.4115 139.1006 169.7694 O.2            1 RES1               0.0000
     18 H18        143.6208 143.0337 168.9078 H              1 RES1               0.0000
     19 H19        144.1835 142.0333 167.5568 H              1 RES1               0.0000
     20 H20        145.2698 142.1760 170.0605 H              1 RES1               0.0000
     21 H21        143.6242 138.2761 169.4108 H              1 RES1               0.0000
     22 H22        141.0091 138.4545 168.0029 H              1 RES1               0.0000
     23 H23        140.3152 141.0213 171.0736 H              1 RES1               0.0000
     24 H24        142.4184 143.6025 166.8227 H              1 RES1               0.0000
     25 H25        141.8589 141.9390 166.6654 H              1 RES1               0.0000
     26 H26        141.2996 142.9335 168.0083 H              1 RES1               0.0000
     27 H27        147.2665 141.1565 171.0598 H              1 RES1               0.0000
     28 H28        145.6257 137.2749 170.4108 H              1 RES1               0.0000
     29 H29        147.4535 138.7051 171.2400 H              1 RES1               0.0000
@<TRIPOS>BOND
    1    1    2 1     
    2    1    3 1     
    3    1    4 1     
    4    1    5 1     
    5    2    6 ar    
    6    2    7 ar    
    7    3    8 1     
    8    3    9 2     
    9    4   10 1     
   10    4   11 2     
   11    5   12 1     
   12    5   18 1     
   13    5   19 1     
   14    6   13 ar    
   15    6   20 1     
   16    7   14 ar    
   17    7   21 1     
   18    8   15 1     
   19    8   22 1     
   20   10   15 1     
   21   10   23 1     
   22   12   24 1     
   23   12   25 1     
   24   12   26 1     
   25   13   16 ar    
   26   13   27 1     
   27   14   16 ar    
   28   14   28 1     
   29   15   17 2     
   30   16   29 1     
@<TRIPOS>SUBSTRUCTURE
      1 RES1           1
@<TRIPOS>SET
DONOR_HYDROGENS      STATIC     ATOMS    <user>   **** ""
2 22 23
ATOM$RED        STATIC     ATOMS    COLORGROUP SYSTEM
2 22 23
@<TRIPOS>COMMENT
> <Gold.Version>
2022.3.0

> <Gold.Id.Protein>
unknown|7rmh_cavity_clean|pdb

> <Gold.Protein.RotatedTorsions>
[ 1581 1565 1566 1567 ] final  -33.06 input  115.26 | X-H torsion
[ 5151 5142 5141 5139 ] final -111.16 input   59.98 | X-H torsion
[ 1669 1661 1660 1658 ] final  -12.40 input   59.97 | X-H torsion
[ 5186 5181 5180 5177 ] final   33.66 input   59.99 | X-H torsion
[ 1788 1769 1770 1771 ] final   25.61 input  122.82 | X-H torsion
[ 1883 1867 1866 1863 ] final -166.03 input   59.99 | X-H torsion
[ 1874 1868 1869 1870 ] final -163.51 input   29.02 | X-H torsion
[ 1878 1873 1872 1869 ] final  -27.26 input   60.02 | X-H torsion
[ 6490 6474 6475 6476 ] final -102.05 input  103.68 | X-H torsion
[ 4479 4458 4456 4453 ] final -178.16 input   59.98 | X-H torsion
[ 4466 4459 4460 4461 ] final  134.91 input   43.99 | X-H torsion
[ 4472 4465 4463 4460 ] final   15.73 input   60.01 | X-H torsion
[ 4502 4497 4496 4493 ] final  -52.94 input   59.97 | X-H torsion
[  675  663  664  665 ] final  -32.82 input  108.58 | X-H torsion
[  692  687  686  683 ] final  -62.58 input   59.99 | X-H torsion
[  713  708  707  706 ] final   29.67 input   60.01 | X-H torsion
[ 2432 2427 2428 2429 ] final  175.63 input   99.19 | X-H torsion
[ 2461 2452 2451 2449 ] final   31.09 input   60.00 | X-H torsion
[ 2484 2473 2474 2475 ] final   41.65 input  111.54 | X-H torsion
[ 1326 1317 1316 1315 ] final  -40.31 input   60.01 | X-H torsion
[ 14725 1568 1567 1566 ] final   37.61 input    0.00 | X-H torsion
[ 14794 1772 1771 1770 ] final  175.12 input    0.00 | X-H torsion
[ 14817 1871 1870 1869 ] final  -76.68 input    0.00 | X-H torsion
[ 14840 6477 6476 6475 ] final  -30.30 input   -0.00 | X-H torsion
[ 14855 4462 4461 4460 ] final   45.76 input    0.00 | X-H torsion
[ 14878  666  665  664 ] final -116.23 input   -0.00 | X-H torsion
[ 14895 2430 2429 2428 ] final   22.44 input    0.00 | X-H torsion
[ 14904 2476 2475 2474 ] final   37.92 input    0.00 | X-H torsion

> <Gold.Protein.ActiveResidues>
 LEU46   GLY47   ALA48   ASP49   ASN50   SER51   LYS53   VAL224  GLY225  GLY226 
 GLN227  ARG228  ASP229  GLU230  ARG231  ARG232  LYS233  TRP234  ILE235  GLN236 
 CYS237  PHE246  VAL247  VAL248  ASP249  ASP252  TYR253  ASN264  ARG265  LEU266 
 GLN267  GLU268  ALA269  LEU270  ASN271  LEU272  LYS274  SER275  ASN278  ASN279 
 ARG280  TRP281  ASP310  TYR311  PHE312  GLU344  ARG347  ILE348  ALA351  ILE18  
 TRP63   THR65   ASP66   SER67   ARG68   LEU69   TYR105  ALA106  PRO107  SER108 
 GLY109  ASN110  CYS149  ARG150  PHE151  ASP154  ASN155  GLN156  LEU192  ALA193 
 PRO194  ASP195  THR196  ARG197  LEU198  VAL200  ILE229  ASN230  ALA231  CYS233 
 PHE235 

> <Gold.Protein.RotatedAtoms>
  125.0190  143.0561  127.5597 H   0  0  0  0  0  0  0  0  0  0  0  0  # atno 675  bound_to 663 
  152.1687  115.7880  168.5472 H   0  0  0  0  0  0  0  0  0  0  0  0  # atno 692  bound_to 687 
  152.9287  121.3403  167.6539 H   0  0  0  0  0  0  0  0  0  0  0  0  # atno 713  bound_to 708 
  153.8067  121.7400  169.0010 H   0  0  0  0  0  0  0  0  0  0  0  0  # atno 714  bound_to 708 
  154.1274  122.4794  167.5531 H   0  0  0  0  0  0  0  0  0  0  0  0  # atno 715  bound_to 708 
  139.7450  135.7106  173.5432 H   0  0  0  0  0  0  0  0  0  0  0  0  # atno 1326 bound_to 1317
  140.6337  136.2121  174.8494 H   0  0  0  0  0  0  0  0  0  0  0  0  # atno 1327 bound_to 1317
  139.4135  137.1673  174.2609 H   0  0  0  0  0  0  0  0  0  0  0  0  # atno 1328 bound_to 1317
  133.1711  122.7338  130.9963 H   0  0  0  0  0  0  0  0  0  0  0  0  # atno 1581 bound_to 1565
  145.6514  101.0515  167.6302 H   0  0  0  0  0  0  0  0  0  0  0  0  # atno 1669 bound_to 1661
  136.9622  135.6150   98.5211 H   0  0  0  0  0  0  0  0  0  0  0  0  # atno 1788 bound_to 1769
  138.4114  146.7924  169.5418 H   0  0  0  0  0  0  0  0  0  0  0  0  # atno 1874 bound_to 1868
  140.6528  148.0628  169.1718 H   0  0  0  0  0  0  0  0  0  0  0  0  # atno 1878 bound_to 1873
  140.2467  122.9769  169.7954 H   0  0  0  0  0  0  0  0  0  0  0  0  # atno 1883 bound_to 1867
  126.7499  131.0587  139.7648 H   0  0  0  0  0  0  0  0  0  0  0  0  # atno 2432 bound_to 2427
  144.4433  102.1394  177.8758 H   0  0  0  0  0  0  0  0  0  0  0  0  # atno 2461 bound_to 2452
  126.3787  135.4129  139.2546 H   0  0  0  0  0  0  0  0  0  0  0  0  # atno 2484 bound_to 2473
  137.4337  143.2892  140.1334 H   0  0  0  0  0  0  0  0  0  0  0  0  # atno 4466 bound_to 4459
  137.7106  142.4960  141.6626 H   0  0  0  0  0  0  0  0  0  0  0  0  # atno 4472 bound_to 4465
  153.2205  163.3466  171.9952 H   0  0  0  0  0  0  0  0  0  0  0  0  # atno 4479 bound_to 4458
  146.3085  165.0611  167.3968 H   0  0  0  0  0  0  0  0  0  0  0  0  # atno 4502 bound_to 4497
  156.8646  162.0472  166.3210 H   0  0  0  0  0  0  0  0  0  0  0  0  # atno 5151 bound_to 5142
  158.7423  163.9613  174.2570 H   0  0  0  0  0  0  0  0  0  0  0  0  # atno 5186 bound_to 5181
  146.2796  138.6983  106.8317 H   0  0  0  0  0  0  0  0  0  0  0  0  # atno 6490 bound_to 6474
  133.9910  121.5400  131.9752 LP  0  0  0  0  0  0  0  0  0  0  0  0  # atno 14724 bound_to 1565
  134.5304  121.3521  127.2133 LP  0  0  0  0  0  0  0  0  0  0  0  0  # atno 14725 bound_to 1568
  133.1053  122.3112  126.9917 LP  0  0  0  0  0  0  0  0  0  0  0  0  # atno 14726 bound_to 1568
  155.5616  162.2931  165.3781 LP  0  0  0  0  0  0  0  0  0  0  0  0  # atno 14737 bound_to 5142
  156.7526  161.2907  164.8849 LP  0  0  0  0  0  0  0  0  0  0  0  0  # atno 14738 bound_to 5142
  145.3983   99.8913  168.7426 LP  0  0  0  0  0  0  0  0  0  0  0  0  # atno 14749 bound_to 1661
  146.8266  100.6814  168.6931 LP  0  0  0  0  0  0  0  0  0  0  0  0  # atno 14750 bound_to 1661
  159.7602  165.1710  173.8712 LP  0  0  0  0  0  0  0  0  0  0  0  0  # atno 14757 bound_to 5181
  160.3465  163.7562  174.4380 LP  0  0  0  0  0  0  0  0  0  0  0  0  # atno 14758 bound_to 5181
  136.7013  134.0376   99.2311 LP  0  0  0  0  0  0  0  0  0  0  0  0  # atno 14793 bound_to 1769
  137.1717  134.6490   94.0965 LP  0  0  0  0  0  0  0  0  0  0  0  0  # atno 14794 bound_to 1772
  137.0412  133.2357   95.0893 LP  0  0  0  0  0  0  0  0  0  0  0  0  # atno 14795 bound_to 1772
  140.3437  123.7396  168.3610 LP  0  0  0  0  0  0  0  0  0  0  0  0  # atno 14814 bound_to 1867
  139.8809  122.1750  168.4273 LP  0  0  0  0  0  0  0  0  0  0  0  0  # atno 14815 bound_to 1867
  136.8797  147.6318  169.6187 LP  0  0  0  0  0  0  0  0  0  0  0  0  # atno 14816 bound_to 1868
  136.2039  150.3356  169.4230 LP  0  0  0  0  0  0  0  0  0  0  0  0  # atno 14817 bound_to 1871
  135.6813  149.4937  170.8435 LP  0  0  0  0  0  0  0  0  0  0  0  0  # atno 14818 bound_to 1871
  141.0781  149.1945  168.0827 LP  0  0  0  0  0  0  0  0  0  0  0  0  # atno 14819 bound_to 1873
  139.9634  148.0649  167.6979 LP  0  0  0  0  0  0  0  0  0  0  0  0  # atno 14820 bound_to 1873
  145.0140  138.8539  105.6477 LP  0  0  0  0  0  0  0  0  0  0  0  0  # atno 14839 bound_to 6474
  143.5378  138.0085  109.8561 LP  0  0  0  0  0  0  0  0  0  0  0  0  # atno 14840 bound_to 6477
  142.1829  137.1788  109.1662 LP  0  0  0  0  0  0  0  0  0  0  0  0  # atno 14841 bound_to 6477
  152.7312  162.4412  170.7348 LP  0  0  0  0  0  0  0  0  0  0  0  0  # atno 14852 bound_to 4458
  151.6543  162.9256  171.8628 LP  0  0  0  0  0  0  0  0  0  0  0  0  # atno 14853 bound_to 4458
  138.4800  144.4658  139.3658 LP  0  0  0  0  0  0  0  0  0  0  0  0  # atno 14854 bound_to 4459
  139.3049  143.7872  137.6949 LP  0  0  0  0  0  0  0  0  0  0  0  0  # atno 14855 bound_to 4462
  140.0627  142.3842  137.0186 LP  0  0  0  0  0  0  0  0  0  0  0  0  # atno 14856 bound_to 4462
  138.4337  141.3441  142.5562 LP  0  0  0  0  0  0  0  0  0  0  0  0  # atno 14857 bound_to 4465
  137.2503  140.9431  141.5049 LP  0  0  0  0  0  0  0  0  0  0  0  0  # atno 14858 bound_to 4465
  145.6455  166.5470  167.3618 LP  0  0  0  0  0  0  0  0  0  0  0  0  # atno 14869 bound_to 4497
  147.2389  166.3679  167.6712 LP  0  0  0  0  0  0  0  0  0  0  0  0  # atno 14870 bound_to 4497
  125.4176  142.5777  125.9300 LP  0  0  0  0  0  0  0  0  0  0  0  0  # atno 14877 bound_to 663 
  127.7501  144.6747  129.7810 LP  0  0  0  0  0  0  0  0  0  0  0  0  # atno 14878 bound_to 666 
  128.9834  144.6943  128.5650 LP  0  0  0  0  0  0  0  0  0  0  0  0  # atno 14879 bound_to 666 
  151.6540  116.2632  167.0789 LP  0  0  0  0  0  0  0  0  0  0  0  0  # atno 14882 bound_to 687 
  153.2499  116.0676  167.3641 LP  0  0  0  0  0  0  0  0  0  0  0  0  # atno 14883 bound_to 687 
  127.3628  132.6941  139.6857 LP  0  0  0  0  0  0  0  0  0  0  0  0  # atno 14894 bound_to 2427
  123.6223  134.1903  141.3125 LP  0  0  0  0  0  0  0  0  0  0  0  0  # atno 14895 bound_to 2430
  124.4860  135.6505  140.9632 LP  0  0  0  0  0  0  0  0  0  0  0  0  # atno 14896 bound_to 2430
  145.3598  102.6405  176.6284 LP  0  0  0  0  0  0  0  0  0  0  0  0  # atno 14899 bound_to 2452
  144.7158  101.1399  176.6212 LP  0  0  0  0  0  0  0  0  0  0  0  0  # atno 14900 bound_to 2452
  127.4506  136.7611  139.5401 LP  0  0  0  0  0  0  0  0  0  0  0  0  # atno 14903 bound_to 2473
  124.4645  138.2300  136.3272 LP  0  0  0  0  0  0  0  0  0  0  0  0  # atno 14904 bound_to 2476
  123.1889  137.9774  137.4714 LP  0  0  0  0  0  0  0  0  0  0  0  0  # atno 14905 bound_to 2476

> <Gold.Score>
     Fitness  S(hb_ext) S(vdw_ext)  S(hb_int)    S(int)      intcor
     34.36       0.86      25.02       0.00      -0.91      -0.75

> <Gold.Goldscore.Fitness>
34.3620

> <Gold.Goldscore.Internal.Vdw>
-1.0655

> <Gold.Goldscore.Internal.Torsion>
-0.5949

> <Gold.Goldscore.External.Vdw>
25.0225

> <Gold.Goldscore.Internal.HBond>
0.0000

> <Gold.Goldscore.External.HBond>
0.8614

> <Gold.Goldscore.Internal.Correction>
-0.7550

> <Gold.Goldscore.Hbonds>
donor molecule, donor type, donor heavy atom, donor atom, acceptor molecule, acceptor atom, score
      P1  H  1381  1389       L1    17  0.01
      L1  H     8    22       P1  1382  0.42

> <Gold.Goldscore.Internal.Vdw.Weighted>
-1.0655

> <Gold.Goldscore.Internal.Torsion.Weighted>
-0.5949

> <Gold.Goldscore.External.Vdw.Weighted>
34.4060

> <Gold.Goldscore.Internal.HBond.Weighted>
0.0000

> <Gold.Goldscore.External.HBond.Weighted>
0.8614

> <Gold.Goldscore.Internal.Correction.Weighted>
-0.7550

> <Gold.Rescore>
     Score     S(PLP)   S(hbond)     S(cho)   S(metal)  DE(clash)   DE(tors)     intcor
     35.94     -34.98       0.90       0.00       0.00       0.00       0.86       ----

> <Gold.PLP.Fitness>
35.9430

> <Gold.PLP.PLP>
-34.9765

> <Gold.PLP.part.hbond>
-2.1649

> <Gold.PLP.part.metal>
0.0000

> <Gold.PLP.part.buried>
-5.6184

> <Gold.PLP.part.nonpolar>
-29.7586

> <Gold.PLP.part.repulsive>
0.8109

> <Gold.PLP.ligand.clash>
0.0000

> <Gold.PLP.ligand.torsion>
0.8608

> <Gold.PLP.Chemscore.Hbond>
0.8960

> <Gold.PLP.Chemscore.CHOScore>
0.0000

> <Gold.PLP.Chemscore.Metal>
0.0000

> <Gold.Chemscore.Hbonds>
donor molecule, donor type, donor heavy atom, donor atom, acceptor molecule, acceptor atom, score
      L1  H     8    22       P1  1382  0.94

> <Gold.PLP.Chemscore.Internal.Correction>
   9.000000E+99

