#       Name:                CT1002167954
#       Creating user name   hitesit
#       Creation time:       Sun Apr 16 22:57:42 2023


#       File generated by GOLD software.
#

@<TRIPOS>MOLECULE
CT1002167954|ligand_prepared|mol2|1|dock5
    29    30     1
SMALL
NO_CHARGES


@<TRIPOS>ATOM
      1 C1         144.2134 145.1033 169.4465 C.3            1 RES1               0.0000
      2 C2         143.5539 144.2838 168.3185 C.ar           1 RES1               0.0000
      3 C3         144.0681 146.5700 169.0517 C.2            1 RES1               0.0000
      4 C4         143.4808 144.7290 170.7301 C.2            1 RES1               0.0000
      5 C5         145.7156 144.7950 169.6465 C.3            1 RES1               0.0000
      6 C6         144.2465 144.0114 167.1426 C.ar           1 RES1               0.0000
      7 C7         142.2570 143.7922 168.4403 C.ar           1 RES1               0.0000
      8 N8         143.1517 147.3189 169.7294 N.am           1 RES1               0.0000
      9 O9         144.7194 147.0521 168.1332 O.2            1 RES1               0.0000
     10 N10        142.7435 145.7003 171.3552 N.am           1 RES1               0.0000
     11 O11        143.5218 143.5973 171.1969 O.2            1 RES1               0.0000
     12 C12        146.2979 145.3841 170.9216 C.3            1 RES1               0.0000
     13 C13        143.6647 143.2718 166.1263 C.ar           1 RES1               0.0000
     14 C14        141.6770 143.0530 167.4226 C.ar           1 RES1               0.0000
     15 C15        142.5209 146.9700 170.8965 C.2            1 RES1               0.0000
     16 C16        142.3799 142.7917 166.2657 C.ar           1 RES1               0.0000
     17 O17        141.8009 147.7696 171.4876 O.2            1 RES1               0.0000
     18 H18        145.8533 143.7069 169.6653 H              1 RES1               0.0000
     19 H19        146.2742 145.1889 168.7884 H              1 RES1               0.0000
     20 H20        145.2576 144.3830 167.0139 H              1 RES1               0.0000
     21 H21        141.6847 143.9863 169.3410 H              1 RES1               0.0000
     22 H22        142.9133 148.2218 169.3317 H              1 RES1               0.0000
     23 H23        142.3217 145.4540 172.2451 H              1 RES1               0.0000
     24 H24        147.3538 145.1383 171.0129 H              1 RES1               0.0000
     25 H25        146.2008 146.4678 170.9254 H              1 RES1               0.0000
     26 H26        145.7823 144.9946 171.7970 H              1 RES1               0.0000
     27 H27        144.2217 143.0701 165.2172 H              1 RES1               0.0000
     28 H28        140.6653 142.6777 167.5364 H              1 RES1               0.0000
     29 H29        141.9246 142.2120 165.4696 H              1 RES1               0.0000
@<TRIPOS>BOND
    1    1    2 1     
    2    1    3 1     
    3    1    4 1     
    4    1    5 1     
    5    2    6 ar    
    6    2    7 ar    
    7    3    8 1     
    8    3    9 2     
    9    4   10 1     
   10    4   11 2     
   11    5   12 1     
   12    5   18 1     
   13    5   19 1     
   14    6   13 ar    
   15    6   20 1     
   16    7   14 ar    
   17    7   21 1     
   18    8   15 1     
   19    8   22 1     
   20   10   15 1     
   21   10   23 1     
   22   12   24 1     
   23   12   25 1     
   24   12   26 1     
   25   13   16 ar    
   26   13   27 1     
   27   14   16 ar    
   28   14   28 1     
   29   15   17 2     
   30   16   29 1     
@<TRIPOS>SUBSTRUCTURE
      1 RES1           1
@<TRIPOS>SET
DONOR_HYDROGENS      STATIC     ATOMS    <user>   **** ""
2 22 23
ATOM$RED        STATIC     ATOMS    COLORGROUP SYSTEM
2 22 23
@<TRIPOS>COMMENT
> <Gold.Version>
2022.3.0

> <Gold.Id.Protein>
unknown|7rmh_cavity_clean|pdb

> <Gold.Protein.RotatedTorsions>
[ 1581 1565 1566 1567 ] final  130.17 input  115.26 | X-H torsion
[ 5151 5142 5141 5139 ] final   73.29 input   59.98 | X-H torsion
[ 1669 1661 1660 1658 ] final  139.13 input   59.97 | X-H torsion
[ 5186 5181 5180 5177 ] final   86.99 input   59.99 | X-H torsion
[ 1788 1769 1770 1771 ] final   26.13 input  122.82 | X-H torsion
[ 1883 1867 1866 1863 ] final  -34.11 input   59.99 | X-H torsion
[ 1874 1868 1869 1870 ] final -151.89 input   29.02 | X-H torsion
[ 1878 1873 1872 1869 ] final  -37.63 input   60.02 | X-H torsion
[ 6490 6474 6475 6476 ] final   36.17 input  103.68 | X-H torsion
[ 4479 4458 4456 4453 ] final  172.15 input   59.98 | X-H torsion
[ 4466 4459 4460 4461 ] final   65.13 input   43.99 | X-H torsion
[ 4472 4465 4463 4460 ] final -136.88 input   60.01 | X-H torsion
[ 4502 4497 4496 4493 ] final    3.24 input   59.97 | X-H torsion
[  675  663  664  665 ] final  105.65 input  108.58 | X-H torsion
[  692  687  686  683 ] final   96.28 input   59.99 | X-H torsion
[  713  708  707  706 ] final    2.09 input   60.01 | X-H torsion
[ 2432 2427 2428 2429 ] final  -64.09 input   99.19 | X-H torsion
[ 2461 2452 2451 2449 ] final  103.22 input   60.00 | X-H torsion
[ 2484 2473 2474 2475 ] final  130.96 input  111.54 | X-H torsion
[ 1326 1317 1316 1315 ] final  107.23 input   60.01 | X-H torsion
[ 14725 1568 1567 1566 ] final    6.69 input    0.00 | X-H torsion
[ 14794 1772 1771 1770 ] final  104.71 input    0.00 | X-H torsion
[ 14817 1871 1870 1869 ] final -139.93 input    0.00 | X-H torsion
[ 14840 6477 6476 6475 ] final -147.46 input   -0.00 | X-H torsion
[ 14855 4462 4461 4460 ] final -110.11 input    0.00 | X-H torsion
[ 14878  666  665  664 ] final   38.71 input   -0.00 | X-H torsion
[ 14895 2430 2429 2428 ] final -157.70 input    0.00 | X-H torsion
[ 14904 2476 2475 2474 ] final -122.97 input    0.00 | X-H torsion

> <Gold.Protein.ActiveResidues>
 LEU46   GLY47   ALA48   ASP49   ASN50   SER51   LYS53   VAL224  GLY225  GLY226 
 GLN227  ARG228  ASP229  GLU230  ARG231  ARG232  LYS233  TRP234  ILE235  GLN236 
 CYS237  PHE246  VAL247  VAL248  ASP249  ASP252  TYR253  ASN264  ARG265  LEU266 
 GLN267  GLU268  ALA269  LEU270  ASN271  LEU272  LYS274  SER275  ASN278  ASN279 
 ARG280  TRP281  ASP310  TYR311  PHE312  GLU344  ARG347  ILE348  ALA351  ILE18  
 TRP63   THR65   ASP66   SER67   ARG68   LEU69   TYR105  ALA106  PRO107  SER108 
 GLY109  ASN110  CYS149  ARG150  PHE151  ASP154  ASN155  GLN156  LEU192  ALA193 
 PRO194  ASP195  THR196  ARG197  LEU198  VAL200  ILE229  ASN230  ALA231  CYS233 
 PHE235 

> <Gold.Protein.RotatedAtoms>
  125.2118  143.1612  125.9327 H   0  0  0  0  0  0  0  0  0  0  0  0  # atno 675  bound_to 663 
  152.8623  116.2293  166.9013 H   0  0  0  0  0  0  0  0  0  0  0  0  # atno 692  bound_to 687 
  153.0929  121.5960  167.3143 H   0  0  0  0  0  0  0  0  0  0  0  0  # atno 713  bound_to 708 
  153.4652  121.4483  168.9220 H   0  0  0  0  0  0  0  0  0  0  0  0  # atno 714  bound_to 708 
  154.3044  122.5152  167.9716 H   0  0  0  0  0  0  0  0  0  0  0  0  # atno 715  bound_to 708 
  140.4651  136.6183  174.9696 H   0  0  0  0  0  0  0  0  0  0  0  0  # atno 1326 bound_to 1317
  139.2343  136.9426  173.9078 H   0  0  0  0  0  0  0  0  0  0  0  0  # atno 1327 bound_to 1317
  140.0921  135.5304  173.7762 H   0  0  0  0  0  0  0  0  0  0  0  0  # atno 1328 bound_to 1317
  133.7806  121.3966  131.9489 H   0  0  0  0  0  0  0  0  0  0  0  0  # atno 1581 bound_to 1565
  146.6168  100.3130  168.9775 H   0  0  0  0  0  0  0  0  0  0  0  0  # atno 1669 bound_to 1661
  136.9549  135.6172   98.5235 H   0  0  0  0  0  0  0  0  0  0  0  0  # atno 1788 bound_to 1769
  138.3792  146.7556  169.7143 H   0  0  0  0  0  0  0  0  0  0  0  0  # atno 1874 bound_to 1868
  140.7663  148.1855  169.1976 H   0  0  0  0  0  0  0  0  0  0  0  0  # atno 1878 bound_to 1873
  139.8979  122.2882  168.2693 H   0  0  0  0  0  0  0  0  0  0  0  0  # atno 1883 bound_to 1867
  126.8564  132.4072  139.0383 H   0  0  0  0  0  0  0  0  0  0  0  0  # atno 2432 bound_to 2427
  144.3653  101.2064  177.2947 H   0  0  0  0  0  0  0  0  0  0  0  0  # atno 2461 bound_to 2452
  127.5408  135.6850  138.9266 H   0  0  0  0  0  0  0  0  0  0  0  0  # atno 2484 bound_to 2473
  137.6994  143.2792  139.1482 H   0  0  0  0  0  0  0  0  0  0  0  0  # atno 4466 bound_to 4459
  138.1896  140.9033  142.3999 H   0  0  0  0  0  0  0  0  0  0  0  0  # atno 4472 bound_to 4465
  153.3147  163.2935  171.8797 H   0  0  0  0  0  0  0  0  0  0  0  0  # atno 4479 bound_to 4458
  147.1071  165.3876  167.5789 H   0  0  0  0  0  0  0  0  0  0  0  0  # atno 4502 bound_to 4497
  155.8707  161.7506  164.7644 H   0  0  0  0  0  0  0  0  0  0  0  0  # atno 5151 bound_to 5142
  159.3634  163.4450  174.4897 H   0  0  0  0  0  0  0  0  0  0  0  0  # atno 5186 bound_to 5181
  145.0838  138.2620  105.8228 H   0  0  0  0  0  0  0  0  0  0  0  0  # atno 6490 bound_to 6474
  133.3968  122.8437  131.0465 LP  0  0  0  0  0  0  0  0  0  0  0  0  # atno 14724 bound_to 1565
  134.6423  121.7748  127.3612 LP  0  0  0  0  0  0  0  0  0  0  0  0  # atno 14725 bound_to 1568
  132.9933  121.8885  126.8437 LP  0  0  0  0  0  0  0  0  0  0  0  0  # atno 14726 bound_to 1568
  157.2195  161.4301  165.6161 LP  0  0  0  0  0  0  0  0  0  0  0  0  # atno 14737 bound_to 5142
  156.0959  162.4526  166.2149 LP  0  0  0  0  0  0  0  0  0  0  0  0  # atno 14738 bound_to 5142
  146.1267  101.2168  167.7164 LP  0  0  0  0  0  0  0  0  0  0  0  0  # atno 14749 bound_to 1661
  145.1257  100.0999  168.3622 LP  0  0  0  0  0  0  0  0  0  0  0  0  # atno 14750 bound_to 1661
  158.9555  164.9126  173.9169 LP  0  0  0  0  0  0  0  0  0  0  0  0  # atno 14757 bound_to 5181
  160.5257  164.5345  174.1580 LP  0  0  0  0  0  0  0  0  0  0  0  0  # atno 14758 bound_to 5181
  136.7084  134.0353   99.2287 LP  0  0  0  0  0  0  0  0  0  0  0  0  # atno 14793 bound_to 1769
  136.3638  134.0663   94.1650 LP  0  0  0  0  0  0  0  0  0  0  0  0  # atno 14794 bound_to 1772
  137.8491  133.8185   95.0208 LP  0  0  0  0  0  0  0  0  0  0  0  0  # atno 14795 bound_to 1772
  140.1922  122.7897  169.7893 LP  0  0  0  0  0  0  0  0  0  0  0  0  # atno 14814 bound_to 1867
  140.3837  123.8184  168.5357 LP  0  0  0  0  0  0  0  0  0  0  0  0  # atno 14815 bound_to 1867
  136.9111  147.6677  169.4506 LP  0  0  0  0  0  0  0  0  0  0  0  0  # atno 14816 bound_to 1868
  135.9615  150.7794  170.1775 LP  0  0  0  0  0  0  0  0  0  0  0  0  # atno 14817 bound_to 1871
  135.9237  149.0500  170.0890 LP  0  0  0  0  0  0  0  0  0  0  0  0  # atno 14818 bound_to 1871
  140.9979  149.1828  167.9329 LP  0  0  0  0  0  0  0  0  0  0  0  0  # atno 14819 bound_to 1873
  139.9292  147.9531  167.8217 LP  0  0  0  0  0  0  0  0  0  0  0  0  # atno 14820 bound_to 1873
  146.2115  139.2909  106.6580 LP  0  0  0  0  0  0  0  0  0  0  0  0  # atno 14839 bound_to 6474
  142.9411  136.7405  109.3861 LP  0  0  0  0  0  0  0  0  0  0  0  0  # atno 14840 bound_to 6477
  142.7796  138.4468  109.6362 LP  0  0  0  0  0  0  0  0  0  0  0  0  # atno 14841 bound_to 6477
  152.5757  162.4068  170.7329 LP  0  0  0  0  0  0  0  0  0  0  0  0  # atno 14852 bound_to 4458
  151.7150  163.0134  171.9810 LP  0  0  0  0  0  0  0  0  0  0  0  0  # atno 14853 bound_to 4458
  138.2240  144.4756  140.3152 LP  0  0  0  0  0  0  0  0  0  0  0  0  # atno 14854 bound_to 4459
  139.7425  142.2533  137.1252 LP  0  0  0  0  0  0  0  0  0  0  0  0  # atno 14855 bound_to 4462
  139.6250  143.9181  137.5883 LP  0  0  0  0  0  0  0  0  0  0  0  0  # atno 14856 bound_to 4462
  137.1109  141.4066  141.2903 LP  0  0  0  0  0  0  0  0  0  0  0  0  # atno 14857 bound_to 4465
  138.0908  142.4845  142.0283 LP  0  0  0  0  0  0  0  0  0  0  0  0  # atno 14858 bound_to 4465
  145.5321  165.6701  167.2820 LP  0  0  0  0  0  0  0  0  0  0  0  0  # atno 14869 bound_to 4497
  146.5482  166.9161  167.5676 LP  0  0  0  0  0  0  0  0  0  0  0  0  # atno 14870 bound_to 4497
  125.2273  142.4739  127.5361 LP  0  0  0  0  0  0  0  0  0  0  0  0  # atno 14877 bound_to 663 
  128.9358  144.3267  128.6269 LP  0  0  0  0  0  0  0  0  0  0  0  0  # atno 14878 bound_to 666 
  127.7978  145.0423  129.7191 LP  0  0  0  0  0  0  0  0  0  0  0  0  # atno 14879 bound_to 666 
  152.7876  115.7734  168.4612 LP  0  0  0  0  0  0  0  0  0  0  0  0  # atno 14882 bound_to 687 
  151.4175  116.1127  167.6399 LP  0  0  0  0  0  0  0  0  0  0  0  0  # atno 14883 bound_to 687 
  127.2590  131.3794  140.3940 LP  0  0  0  0  0  0  0  0  0  0  0  0  # atno 14894 bound_to 2427
  124.4863  135.6508  140.9652 LP  0  0  0  0  0  0  0  0  0  0  0  0  # atno 14895 bound_to 2430
  123.6220  134.1901  141.3105 LP  0  0  0  0  0  0  0  0  0  0  0  0  # atno 14896 bound_to 2430
  144.8485  102.7276  177.6100 LP  0  0  0  0  0  0  0  0  0  0  0  0  # atno 14899 bound_to 2452
  145.3057  101.9929  176.2251 LP  0  0  0  0  0  0  0  0  0  0  0  0  # atno 14900 bound_to 2452
  126.3084  136.4936  139.8624 LP  0  0  0  0  0  0  0  0  0  0  0  0  # atno 14903 bound_to 2473
  123.3437  138.1726  137.6148 LP  0  0  0  0  0  0  0  0  0  0  0  0  # atno 14904 bound_to 2476
  124.3097  138.0348  136.1838 LP  0  0  0  0  0  0  0  0  0  0  0  0  # atno 14905 bound_to 2476

> <Gold.Score>
     Fitness  S(hb_ext) S(vdw_ext)  S(hb_int)    S(int)      intcor
     32.42       1.96      22.79       0.00      -0.89      -0.76

> <Gold.Goldscore.Fitness>
32.4168

> <Gold.Goldscore.Internal.Vdw>
-1.0720

> <Gold.Goldscore.Internal.Torsion>
-0.5722

> <Gold.Goldscore.External.Vdw>
22.7917

> <Gold.Goldscore.Internal.HBond>
0.0000

> <Gold.Goldscore.External.HBond>
1.9639

> <Gold.Goldscore.Internal.Correction>
-0.7585

> <Gold.Goldscore.Hbonds>
donor molecule, donor type, donor heavy atom, donor atom, acceptor molecule, acceptor atom, score
      P1  H  1873  1878       L1    17  0.27
      L1  H    10    23       P1  6894  0.71

> <Gold.Goldscore.Internal.Vdw.Weighted>
-1.0720

> <Gold.Goldscore.Internal.Torsion.Weighted>
-0.5722

> <Gold.Goldscore.External.Vdw.Weighted>
31.3386

> <Gold.Goldscore.Internal.HBond.Weighted>
0.0000

> <Gold.Goldscore.External.HBond.Weighted>
1.9639

> <Gold.Goldscore.Internal.Correction.Weighted>
-0.7585

> <Gold.Rescore>
     Score     S(PLP)   S(hbond)     S(cho)   S(metal)  DE(clash)   DE(tors)     intcor
     30.65     -29.74       0.99       0.00       0.00       0.00       1.04       ----

> <Gold.PLP.Fitness>
30.6465

> <Gold.PLP.PLP>
-29.7411

> <Gold.PLP.part.hbond>
-1.2610

> <Gold.PLP.part.metal>
0.0000

> <Gold.PLP.part.buried>
-5.3818

> <Gold.PLP.part.nonpolar>
-24.8709

> <Gold.PLP.part.repulsive>
0.4856

> <Gold.PLP.ligand.clash>
0.0000

> <Gold.PLP.ligand.torsion>
1.0353

> <Gold.PLP.Chemscore.Hbond>
0.9920

> <Gold.PLP.Chemscore.CHOScore>
0.0000

> <Gold.PLP.Chemscore.Metal>
0.0000

> <Gold.Chemscore.Hbonds>
donor molecule, donor type, donor heavy atom, donor atom, acceptor molecule, acceptor atom, score
      L1  H    10    23       P1  6894  1.00

> <Gold.PLP.Chemscore.Internal.Correction>
   9.000000E+99

