#       Name:                CT1002167954
#       Creating user name   hitesit
#       Creation time:       Sun Apr 16 22:57:22 2023


#       File generated by GOLD software.
#

@<TRIPOS>MOLECULE
CT1002167954|ligand_prepared|mol2|1|dock4
    29    30     1
SMALL
NO_CHARGES


@<TRIPOS>ATOM
      1 C1         137.1249 132.0056 169.4055 C.3            1 RES1               0.0000
      2 C2         135.9238 132.4100 168.5265 C.ar           1 RES1               0.0000
      3 C3         138.1553 133.1220 169.2630 C.2            1 RES1               0.0000
      4 C4         136.5810 131.8378 170.8200 C.2            1 RES1               0.0000
      5 C5         137.7850 130.6715 168.9862 C.3            1 RES1               0.0000
      6 C6         135.4508 133.7188 168.5317 C.ar           1 RES1               0.0000
      7 C7         135.2815 131.4877 167.7047 C.ar           1 RES1               0.0000
      8 N8         138.3147 133.9729 170.3168 N.am           1 RES1               0.0000
      9 O9         138.7899 133.2774 168.2270 O.2            1 RES1               0.0000
     10 N10        137.0153 132.7110 171.7827 N.am           1 RES1               0.0000
     11 O11        135.7675 130.9679 171.1059 O.2            1 RES1               0.0000
     12 C12        139.0864 130.3756 169.7149 C.3            1 RES1               0.0000
     13 C13        134.3764 134.0928 167.7417 C.ar           1 RES1               0.0000
     14 C14        134.2070 131.8638 166.9156 C.ar           1 RES1               0.0000
     15 C15        137.8340 133.7900 171.5885 C.2            1 RES1               0.0000
     16 C16        133.7541 133.1658 166.9329 C.ar           1 RES1               0.0000
     17 O17        138.1364 134.5617 172.4940 O.2            1 RES1               0.0000
     18 H18        137.0796 129.8532 169.1768 H              1 RES1               0.0000
     19 H19        137.9828 130.6991 167.9075 H              1 RES1               0.0000
     20 H20        135.9262 134.4615 169.1636 H              1 RES1               0.0000
     21 H21        135.6199 130.4576 167.6758 H              1 RES1               0.0000
     22 H22        138.8399 134.8240 170.1432 H              1 RES1               0.0000
     23 H23        136.6991 132.5407 172.7321 H              1 RES1               0.0000
     24 H24        139.5073 129.4287 169.3834 H              1 RES1               0.0000
     25 H25        139.8199 131.1568 169.5270 H              1 RES1               0.0000
     26 H26        138.9221 130.3160 170.7888 H              1 RES1               0.0000
     27 H27        134.0229 135.1184 167.7599 H              1 RES1               0.0000
     28 H28        133.7199 131.1308 166.2811 H              1 RES1               0.0000
     29 H29        132.9127 133.4592 166.3139 H              1 RES1               0.0000
@<TRIPOS>BOND
    1    1    2 1     
    2    1    3 1     
    3    1    4 1     
    4    1    5 1     
    5    2    6 ar    
    6    2    7 ar    
    7    3    8 1     
    8    3    9 2     
    9    4   10 1     
   10    4   11 2     
   11    5   12 1     
   12    5   18 1     
   13    5   19 1     
   14    6   13 ar    
   15    6   20 1     
   16    7   14 ar    
   17    7   21 1     
   18    8   15 1     
   19    8   22 1     
   20   10   15 1     
   21   10   23 1     
   22   12   24 1     
   23   12   25 1     
   24   12   26 1     
   25   13   16 ar    
   26   13   27 1     
   27   14   16 ar    
   28   14   28 1     
   29   15   17 2     
   30   16   29 1     
@<TRIPOS>SUBSTRUCTURE
      1 RES1           1
@<TRIPOS>SET
DONOR_HYDROGENS      STATIC     ATOMS    <user>   **** ""
2 22 23
ATOM$RED        STATIC     ATOMS    COLORGROUP SYSTEM
2 22 23
@<TRIPOS>COMMENT
> <Gold.Version>
2022.3.0

> <Gold.Id.Protein>
unknown|7rmh_cavity_clean|pdb

> <Gold.Protein.RotatedTorsions>
[ 1581 1565 1566 1567 ] final -113.74 input  115.26 | X-H torsion
[ 5151 5142 5141 5139 ] final  130.09 input   59.98 | X-H torsion
[ 1669 1661 1660 1658 ] final   94.25 input   59.97 | X-H torsion
[ 5186 5181 5180 5177 ] final   86.58 input   59.99 | X-H torsion
[ 1788 1769 1770 1771 ] final  -31.94 input  122.82 | X-H torsion
[ 1883 1867 1866 1863 ] final  115.40 input   59.99 | X-H torsion
[ 1874 1868 1869 1870 ] final -109.14 input   29.02 | X-H torsion
[ 1878 1873 1872 1869 ] final  143.06 input   60.02 | X-H torsion
[ 6490 6474 6475 6476 ] final -102.79 input  103.68 | X-H torsion
[ 4479 4458 4456 4453 ] final  -46.35 input   59.98 | X-H torsion
[ 4466 4459 4460 4461 ] final  103.19 input   43.99 | X-H torsion
[ 4472 4465 4463 4460 ] final  -59.09 input   60.01 | X-H torsion
[ 4502 4497 4496 4493 ] final  105.36 input   59.97 | X-H torsion
[  675  663  664  665 ] final  -54.42 input  108.58 | X-H torsion
[  692  687  686  683 ] final   57.18 input   59.99 | X-H torsion
[  713  708  707  706 ] final    2.18 input   60.01 | X-H torsion
[ 2432 2427 2428 2429 ] final   93.14 input   99.19 | X-H torsion
[ 2461 2452 2451 2449 ] final   90.39 input   60.00 | X-H torsion
[ 2484 2473 2474 2475 ] final  -30.50 input  111.54 | X-H torsion
[ 1326 1317 1316 1315 ] final  -60.69 input   60.01 | X-H torsion
[ 14725 1568 1567 1566 ] final -101.83 input    0.00 | X-H torsion
[ 14794 1772 1771 1770 ] final  -80.91 input    0.00 | X-H torsion
[ 14817 1871 1870 1869 ] final -145.00 input    0.00 | X-H torsion
[ 14840 6477 6476 6475 ] final  -26.69 input   -0.00 | X-H torsion
[ 14855 4462 4461 4460 ] final  112.28 input    0.00 | X-H torsion
[ 14878  666  665  664 ] final   40.70 input   -0.00 | X-H torsion
[ 14895 2430 2429 2428 ] final  155.98 input    0.00 | X-H torsion
[ 14904 2476 2475 2474 ] final   83.54 input    0.00 | X-H torsion

> <Gold.Protein.ActiveResidues>
 LEU46   GLY47   ALA48   ASP49   ASN50   SER51   LYS53   VAL224  GLY225  GLY226 
 GLN227  ARG228  ASP229  GLU230  ARG231  ARG232  LYS233  TRP234  ILE235  GLN236 
 CYS237  PHE246  VAL247  VAL248  ASP249  ASP252  TYR253  ASN264  ARG265  LEU266 
 GLN267  GLU268  ALA269  LEU270  ASN271  LEU272  LYS274  SER275  ASN278  ASN279 
 ARG280  TRP281  ASP310  TYR311  PHE312  GLU344  ARG347  ILE348  ALA351  ILE18  
 TRP63   THR65   ASP66   SER67   ARG68   LEU69   TYR105  ALA106  PRO107  SER108 
 GLY109  ASN110  CYS149  ARG150  PHE151  ASP154  ASN155  GLN156  LEU192  ALA193 
 PRO194  ASP195  THR196  ARG197  LEU198  VAL200  ILE229  ASN230  ALA231  CYS233 
 PHE235 

> <Gold.Protein.RotatedAtoms>
  125.1155  142.7453  127.6085 H   0  0  0  0  0  0  0  0  0  0  0  0  # atno 675  bound_to 663 
  153.2443  116.0637  167.3691 H   0  0  0  0  0  0  0  0  0  0  0  0  # atno 692  bound_to 687 
  153.0922  121.5951  167.3151 H   0  0  0  0  0  0  0  0  0  0  0  0  # atno 713  bound_to 708 
  153.4662  121.4491  168.9226 H   0  0  0  0  0  0  0  0  0  0  0  0  # atno 714  bound_to 708 
  154.3041  122.5153  167.9703 H   0  0  0  0  0  0  0  0  0  0  0  0  # atno 715  bound_to 708 
  139.5111  135.9434  173.4671 H   0  0  0  0  0  0  0  0  0  0  0  0  # atno 1326 bound_to 1317
  140.6564  135.9286  174.6654 H   0  0  0  0  0  0  0  0  0  0  0  0  # atno 1327 bound_to 1317
  139.6246  137.2178  174.5208 H   0  0  0  0  0  0  0  0  0  0  0  0  # atno 1328 bound_to 1317
  134.2259  122.7393  131.4441 H   0  0  0  0  0  0  0  0  0  0  0  0  # atno 1581 bound_to 1565
  146.8295  100.8319  168.5347 H   0  0  0  0  0  0  0  0  0  0  0  0  # atno 1669 bound_to 1661
  137.5791  135.0275   98.4558 H   0  0  0  0  0  0  0  0  0  0  0  0  # atno 1788 bound_to 1769
  138.0223  146.7873  170.2511 H   0  0  0  0  0  0  0  0  0  0  0  0  # atno 1874 bound_to 1868
  140.3691  148.7041  167.4433 H   0  0  0  0  0  0  0  0  0  0  0  0  # atno 1878 bound_to 1873
  140.4341  123.8462  169.0108 H   0  0  0  0  0  0  0  0  0  0  0  0  # atno 1883 bound_to 1867
  127.4249  131.6639  140.5000 H   0  0  0  0  0  0  0  0  0  0  0  0  # atno 2432 bound_to 2427
  144.3189  101.3191  177.4647 H   0  0  0  0  0  0  0  0  0  0  0  0  # atno 2461 bound_to 2452
  126.1570  136.2632  139.8049 H   0  0  0  0  0  0  0  0  0  0  0  0  # atno 2484 bound_to 2473
  137.4645  143.1551  139.6657 H   0  0  0  0  0  0  0  0  0  0  0  0  # atno 4466 bound_to 4459
  138.4307  142.0538  142.4243 H   0  0  0  0  0  0  0  0  0  0  0  0  # atno 4472 bound_to 4465
  151.6206  162.8208  171.7037 H   0  0  0  0  0  0  0  0  0  0  0  0  # atno 4479 bound_to 4458
  146.8183  166.8150  167.6135 H   0  0  0  0  0  0  0  0  0  0  0  0  # atno 4502 bound_to 4497
  155.5683  162.2979  165.3982 H   0  0  0  0  0  0  0  0  0  0  0  0  # atno 5151 bound_to 5142
  159.3568  163.4466  174.4887 H   0  0  0  0  0  0  0  0  0  0  0  0  # atno 5186 bound_to 5181
  146.2817  138.7094  106.8308 H   0  0  0  0  0  0  0  0  0  0  0  0  # atno 6490 bound_to 6474
  132.9627  121.5347  131.5386 LP  0  0  0  0  0  0  0  0  0  0  0  0  # atno 14724 bound_to 1565
  133.5464  122.6448  127.2254 LP  0  0  0  0  0  0  0  0  0  0  0  0  # atno 14725 bound_to 1568
  134.0893  121.0185  126.9795 LP  0  0  0  0  0  0  0  0  0  0  0  0  # atno 14726 bound_to 1568
  156.7361  161.2939  164.8731 LP  0  0  0  0  0  0  0  0  0  0  0  0  # atno 14737 bound_to 5142
  156.8839  162.0374  166.3195 LP  0  0  0  0  0  0  0  0  0  0  0  0  # atno 14738 bound_to 5142
  145.4679  100.9346  167.6499 LP  0  0  0  0  0  0  0  0  0  0  0  0  # atno 14749 bound_to 1661
  145.5702   99.8593  168.8746 LP  0  0  0  0  0  0  0  0  0  0  0  0  # atno 14750 bound_to 1661
  158.9604  164.9171  173.9155 LP  0  0  0  0  0  0  0  0  0  0  0  0  # atno 14757 bound_to 5181
  160.5274  164.5284  174.1604 LP  0  0  0  0  0  0  0  0  0  0  0  0  # atno 14758 bound_to 5181
  136.1023  134.6080   99.2945 LP  0  0  0  0  0  0  0  0  0  0  0  0  # atno 14793 bound_to 1769
  137.8782  133.8882   94.9821 LP  0  0  0  0  0  0  0  0  0  0  0  0  # atno 14794 bound_to 1772
  136.3347  133.9966   94.2037 LP  0  0  0  0  0  0  0  0  0  0  0  0  # atno 14795 bound_to 1772
  139.9863  122.6638  167.9861 LP  0  0  0  0  0  0  0  0  0  0  0  0  # atno 14814 bound_to 1867
  140.0497  122.3755  169.5922 LP  0  0  0  0  0  0  0  0  0  0  0  0  # atno 14815 bound_to 1867
  137.2590  147.6368  168.9273 LP  0  0  0  0  0  0  0  0  0  0  0  0  # atno 14816 bound_to 1868
  135.9364  150.7728  170.2496 LP  0  0  0  0  0  0  0  0  0  0  0  0  # atno 14817 bound_to 1871
  135.9488  149.0565  170.0169 LP  0  0  0  0  0  0  0  0  0  0  0  0  # atno 14818 bound_to 1871
  140.1272  147.6945  168.6962 LP  0  0  0  0  0  0  0  0  0  0  0  0  # atno 14819 bound_to 1873
  141.2001  148.9188  168.8257 LP  0  0  0  0  0  0  0  0  0  0  0  0  # atno 14820 bound_to 1873
  145.0119  138.8428  105.6486 LP  0  0  0  0  0  0  0  0  0  0  0  0  # atno 14839 bound_to 6474
  143.5088  138.0547  109.8531 LP  0  0  0  0  0  0  0  0  0  0  0  0  # atno 14840 bound_to 6477
  142.2119  137.1327  109.1692 LP  0  0  0  0  0  0  0  0  0  0  0  0  # atno 14841 bound_to 6477
  153.0840  163.3954  172.1233 LP  0  0  0  0  0  0  0  0  0  0  0  0  # atno 14852 bound_to 4458
  152.9127  162.5008  170.7679 LP  0  0  0  0  0  0  0  0  0  0  0  0  # atno 14853 bound_to 4458
  138.4503  144.5951  139.8165 LP  0  0  0  0  0  0  0  0  0  0  0  0  # atno 14854 bound_to 4459
  140.1769  143.7966  137.3186 LP  0  0  0  0  0  0  0  0  0  0  0  0  # atno 14855 bound_to 4462
  139.1906  142.3748  137.3950 LP  0  0  0  0  0  0  0  0  0  0  0  0  # atno 14856 bound_to 4462
  137.7087  140.6616  141.9897 LP  0  0  0  0  0  0  0  0  0  0  0  0  # atno 14857 bound_to 4465
  137.2501  142.0710  141.3043 LP  0  0  0  0  0  0  0  0  0  0  0  0  # atno 14858 bound_to 4465
  146.8971  165.1918  167.5259 LP  0  0  0  0  0  0  0  0  0  0  0  0  # atno 14869 bound_to 4497
  145.4740  165.9570  167.2889 LP  0  0  0  0  0  0  0  0  0  0  0  0  # atno 14870 bound_to 4497
  125.3224  142.8844  125.8819 LP  0  0  0  0  0  0  0  0  0  0  0  0  # atno 14877 bound_to 663 
  128.9438  144.3543  128.6180 LP  0  0  0  0  0  0  0  0  0  0  0  0  # atno 14878 bound_to 666 
  127.7898  145.0146  129.7281 LP  0  0  0  0  0  0  0  0  0  0  0  0  # atno 14879 bound_to 666 
  152.1636  115.7891  168.5538 LP  0  0  0  0  0  0  0  0  0  0  0  0  # atno 14882 bound_to 687 
  151.6566  116.2639  167.0760 LP  0  0  0  0  0  0  0  0  0  0  0  0  # atno 14883 bound_to 687 
  126.7048  132.1041  138.9689 LP  0  0  0  0  0  0  0  0  0  0  0  0  # atno 14894 bound_to 2427
  124.4653  135.5026  141.6298 LP  0  0  0  0  0  0  0  0  0  0  0  0  # atno 14895 bound_to 2430
  123.6430  134.3382  140.6459 LP  0  0  0  0  0  0  0  0  0  0  0  0  # atno 14896 bound_to 2430
  144.9691  102.8105  177.4583 LP  0  0  0  0  0  0  0  0  0  0  0  0  # atno 14899 bound_to 2452
  145.2318  101.7966  176.2055 LP  0  0  0  0  0  0  0  0  0  0  0  0  # atno 14900 bound_to 2452
  127.6685  135.9253  138.9992 LP  0  0  0  0  0  0  0  0  0  0  0  0  # atno 14903 bound_to 2473
  124.0115  137.7811  136.1171 LP  0  0  0  0  0  0  0  0  0  0  0  0  # atno 14904 bound_to 2476
  123.6419  138.4264  137.6814 LP  0  0  0  0  0  0  0  0  0  0  0  0  # atno 14905 bound_to 2476

> <Gold.Score>
     Fitness  S(hb_ext) S(vdw_ext)  S(hb_int)    S(int)      intcor
     37.43       7.47      21.88       0.00      -0.13      -0.76

> <Gold.Goldscore.Fitness>
37.4284

> <Gold.Goldscore.Internal.Vdw>
-0.4045

> <Gold.Goldscore.Internal.Torsion>
-0.4869

> <Gold.Goldscore.External.Vdw>
21.8826

> <Gold.Goldscore.Internal.HBond>
0.0000

> <Gold.Goldscore.External.HBond>
7.4726

> <Gold.Goldscore.Internal.Correction>
-0.7585

> <Gold.Goldscore.Hbonds>
donor molecule, donor type, donor heavy atom, donor atom, acceptor molecule, acceptor atom, score
      P1  H  1381  1390       L1     9  0.74
      P1  H  1317  1326       L1    17  1.00

> <Gold.Goldscore.Internal.Vdw.Weighted>
-0.4045

> <Gold.Goldscore.Internal.Torsion.Weighted>
-0.4869

> <Gold.Goldscore.External.Vdw.Weighted>
30.0886

> <Gold.Goldscore.Internal.HBond.Weighted>
0.0000

> <Gold.Goldscore.External.HBond.Weighted>
7.4726

> <Gold.Goldscore.Internal.Correction.Weighted>
-0.7585

> <Gold.Rescore>
     Score     S(PLP)   S(hbond)     S(cho)   S(metal)  DE(clash)   DE(tors)     intcor
     31.48     -26.38       2.00       0.00       0.00       0.00       0.45       ----

> <Gold.PLP.Fitness>
31.4805

> <Gold.PLP.PLP>
-26.3774

> <Gold.PLP.part.hbond>
-3.9462

> <Gold.PLP.part.metal>
0.0000

> <Gold.PLP.part.buried>
-2.6313

> <Gold.PLP.part.nonpolar>
-21.5125

> <Gold.PLP.part.repulsive>
0.5588

> <Gold.PLP.ligand.clash>
0.0000

> <Gold.PLP.ligand.torsion>
0.4484

> <Gold.PLP.Chemscore.Hbond>
2.0000

> <Gold.PLP.Chemscore.CHOScore>
0.0000

> <Gold.PLP.Chemscore.Metal>
0.0000

> <Gold.Chemscore.Hbonds>
donor molecule, donor type, donor heavy atom, donor atom, acceptor molecule, acceptor atom, score
      P1  H  1381  1390       L1     9  0.86
      P1  H  1317  1326       L1    17  0.80

> <Gold.PLP.Chemscore.Internal.Correction>
   9.000000E+99

