#       Name:                CT1002167954
#       Creating user name   hitesit
#       Creation time:       Sun Apr 16 22:58:58 2023


#       File generated by GOLD software.
#

@<TRIPOS>MOLECULE
CT1002167954|ligand_prepared|mol2|1|dock9
    29    30     1
SMALL
NO_CHARGES


@<TRIPOS>ATOM
      1 C1         142.7205 141.5634 168.9198 C.3            1 RES1               0.0000
      2 C2         143.7605 140.5481 169.4360 C.ar           1 RES1               0.0000
      3 C3         143.1211 142.9179 169.4969 C.2            1 RES1               0.0000
      4 C4         142.7762 141.4946 167.3977 C.2            1 RES1               0.0000
      5 C5         141.2711 141.2514 169.3594 C.3            1 RES1               0.0000
      6 C6         145.0464 140.9601 169.7728 C.ar           1 RES1               0.0000
      7 C7         143.4485 139.1992 169.5830 C.ar           1 RES1               0.0000
      8 N8         143.6838 143.8249 168.6480 N.am           1 RES1               0.0000
      9 O9         142.9816 143.1720 170.6870 O.2            1 RES1               0.0000
     10 N10        143.2170 142.6014 166.7206 N.am           1 RES1               0.0000
     11 O11        142.4582 140.4862 166.7794 O.2            1 RES1               0.0000
     12 C12        140.3087 142.4129 169.1676 C.3            1 RES1               0.0000
     13 C13        145.9856 140.0569 170.2423 C.ar           1 RES1               0.0000
     14 C14        144.3893 138.2975 170.0526 C.ar           1 RES1               0.0000
     15 C15        143.7024 143.7528 167.2783 C.2            1 RES1               0.0000
     16 C16        145.6576 138.7252 170.3830 C.ar           1 RES1               0.0000
     17 O17        144.1319 144.6841 166.6035 O.2            1 RES1               0.0000
     18 H18        140.9053 140.3912 168.7851 H              1 RES1               0.0000
     19 H19        141.2767 140.9689 170.4194 H              1 RES1               0.0000
     20 H20        145.3236 142.0036 169.6664 H              1 RES1               0.0000
     21 H21        142.4572 138.8399 169.3283 H              1 RES1               0.0000
     22 H22        144.1324 144.6314 169.0708 H              1 RES1               0.0000
     23 H23        143.1797 142.5636 165.7070 H              1 RES1               0.0000
     24 H24        139.3063 142.1408 169.4916 H              1 RES1               0.0000
     25 H25        140.6283 143.2780 169.7450 H              1 RES1               0.0000
     26 H26        140.2591 142.7038 168.1204 H              1 RES1               0.0000
     27 H27        146.9828 140.3983 170.4997 H              1 RES1               0.0000
     28 H28        144.1269 137.2503 170.1611 H              1 RES1               0.0000
     29 H29        146.3934 138.0179 170.7512 H              1 RES1               0.0000
@<TRIPOS>BOND
    1    1    2 1     
    2    1    3 1     
    3    1    4 1     
    4    1    5 1     
    5    2    6 ar    
    6    2    7 ar    
    7    3    8 1     
    8    3    9 2     
    9    4   10 1     
   10    4   11 2     
   11    5   12 1     
   12    5   18 1     
   13    5   19 1     
   14    6   13 ar    
   15    6   20 1     
   16    7   14 ar    
   17    7   21 1     
   18    8   15 1     
   19    8   22 1     
   20   10   15 1     
   21   10   23 1     
   22   12   24 1     
   23   12   25 1     
   24   12   26 1     
   25   13   16 ar    
   26   13   27 1     
   27   14   16 ar    
   28   14   28 1     
   29   15   17 2     
   30   16   29 1     
@<TRIPOS>SUBSTRUCTURE
      1 RES1           1
@<TRIPOS>SET
DONOR_HYDROGENS      STATIC     ATOMS    <user>   **** ""
2 22 23
ATOM$RED        STATIC     ATOMS    COLORGROUP SYSTEM
2 22 23
@<TRIPOS>COMMENT
> <Gold.Version>
2022.3.0

> <Gold.Id.Protein>
unknown|7rmh_cavity_clean|pdb

> <Gold.Protein.RotatedTorsions>
[ 1581 1565 1566 1567 ] final  -98.71 input  115.26 | X-H torsion
[ 5151 5142 5141 5139 ] final  -60.78 input   59.98 | X-H torsion
[ 1669 1661 1660 1658 ] final  169.92 input   59.97 | X-H torsion
[ 5186 5181 5180 5177 ] final -135.43 input   59.99 | X-H torsion
[ 1788 1769 1770 1771 ] final  156.73 input  122.82 | X-H torsion
[ 1883 1867 1866 1863 ] final  -39.72 input   59.99 | X-H torsion
[ 1874 1868 1869 1870 ] final -154.13 input   29.02 | X-H torsion
[ 1878 1873 1872 1869 ] final  112.02 input   60.02 | X-H torsion
[ 6490 6474 6475 6476 ] final -145.05 input  103.68 | X-H torsion
[ 4479 4458 4456 4453 ] final  168.41 input   59.98 | X-H torsion
[ 4466 4459 4460 4461 ] final  138.30 input   43.99 | X-H torsion
[ 4472 4465 4463 4460 ] final  -55.31 input   60.01 | X-H torsion
[ 4502 4497 4496 4493 ] final -173.49 input   59.97 | X-H torsion
[  675  663  664  665 ] final   43.83 input  108.58 | X-H torsion
[  692  687  686  683 ] final  121.84 input   59.99 | X-H torsion
[  713  708  707  706 ] final -118.67 input   60.01 | X-H torsion
[ 2432 2427 2428 2429 ] final   52.39 input   99.19 | X-H torsion
[ 2461 2452 2451 2449 ] final   77.70 input   60.00 | X-H torsion
[ 2484 2473 2474 2475 ] final -159.10 input  111.54 | X-H torsion
[ 1326 1317 1316 1315 ] final  -30.89 input   60.01 | X-H torsion
[ 14725 1568 1567 1566 ] final   91.25 input    0.00 | X-H torsion
[ 14794 1772 1771 1770 ] final   12.30 input    0.00 | X-H torsion
[ 14817 1871 1870 1869 ] final -100.85 input    0.00 | X-H torsion
[ 14840 6477 6476 6475 ] final   42.06 input   -0.00 | X-H torsion
[ 14855 4462 4461 4460 ] final  163.96 input    0.00 | X-H torsion
[ 14878  666  665  664 ] final  -59.77 input   -0.00 | X-H torsion
[ 14895 2430 2429 2428 ] final -174.87 input    0.00 | X-H torsion
[ 14904 2476 2475 2474 ] final  140.02 input    0.00 | X-H torsion

> <Gold.Protein.ActiveResidues>
 LEU46   GLY47   ALA48   ASP49   ASN50   SER51   LYS53   VAL224  GLY225  GLY226 
 GLN227  ARG228  ASP229  GLU230  ARG231  ARG232  LYS233  TRP234  ILE235  GLN236 
 CYS237  PHE246  VAL247  VAL248  ASP249  ASP252  TYR253  ASN264  ARG265  LEU266 
 GLN267  GLU268  ALA269  LEU270  ASN271  LEU272  LYS274  SER275  ASN278  ASN279 
 ARG280  TRP281  ASP310  TYR311  PHE312  GLU344  ARG347  ILE348  ALA351  ILE18  
 TRP63   THR65   ASP66   SER67   ARG68   LEU69   TYR105  ALA106  PRO107  SER108 
 GLY109  ASN110  CYS149  ARG150  PHE151  ASP154  ASN155  GLN156  LEU192  ALA193 
 PRO194  ASP195  THR196  ARG197  LEU198  VAL200  ILE229  ASN230  ALA231  CYS233 
 PHE235 

> <Gold.Protein.RotatedAtoms>
  124.9507  143.6459  126.6472 H   0  0  0  0  0  0  0  0  0  0  0  0  # atno 675  bound_to 663 
  152.4741  116.2944  166.7730 H   0  0  0  0  0  0  0  0  0  0  0  0  # atno 692  bound_to 687 
  154.3069  122.5142  167.9838 H   0  0  0  0  0  0  0  0  0  0  0  0  # atno 713  bound_to 708 
  153.0994  121.6041  167.3064 H   0  0  0  0  0  0  0  0  0  0  0  0  # atno 714  bound_to 708 
  153.4559  121.4415  168.9164 H   0  0  0  0  0  0  0  0  0  0  0  0  # atno 715  bound_to 708 
  139.8628  135.6291  173.6078 H   0  0  0  0  0  0  0  0  0  0  0  0  # atno 1326 bound_to 1317
  140.5929  136.3518  174.9088 H   0  0  0  0  0  0  0  0  0  0  0  0  # atno 1327 bound_to 1317
  139.3366  137.1091  174.1370 H   0  0  0  0  0  0  0  0  0  0  0  0  # atno 1328 bound_to 1317
  134.0674  122.8516  131.3183 H   0  0  0  0  0  0  0  0  0  0  0  0  # atno 1581 bound_to 1565
  146.2302  100.0178  169.0791 H   0  0  0  0  0  0  0  0  0  0  0  0  # atno 1669 bound_to 1661
  136.1313  134.4770   99.3124 H   0  0  0  0  0  0  0  0  0  0  0  0  # atno 1788 bound_to 1769
  138.3878  146.7613  169.6812 H   0  0  0  0  0  0  0  0  0  0  0  0  # atno 1874 bound_to 1868
  140.0800  148.3046  167.5305 H   0  0  0  0  0  0  0  0  0  0  0  0  # atno 1878 bound_to 1873
  139.8884  122.2338  168.3424 H   0  0  0  0  0  0  0  0  0  0  0  0  # atno 1883 bound_to 1867
  127.5695  132.2450  140.3541 H   0  0  0  0  0  0  0  0  0  0  0  0  # atno 2432 bound_to 2427
  144.2985  101.4627  177.6121 H   0  0  0  0  0  0  0  0  0  0  0  0  # atno 2461 bound_to 2452
  127.6484  136.5855  139.3694 H   0  0  0  0  0  0  0  0  0  0  0  0  # atno 2484 bound_to 2473
  137.4403  143.3152  140.1787 H   0  0  0  0  0  0  0  0  0  0  0  0  # atno 4466 bound_to 4459
  138.4120  142.1061  142.3972 H   0  0  0  0  0  0  0  0  0  0  0  0  # atno 4472 bound_to 4465
  153.3452  163.2701  171.8324 H   0  0  0  0  0  0  0  0  0  0  0  0  # atno 4479 bound_to 4458
  145.6561  166.5504  167.3622 H   0  0  0  0  0  0  0  0  0  0  0  0  # atno 4502 bound_to 4497
  157.2197  161.5427  165.8168 H   0  0  0  0  0  0  0  0  0  0  0  0  # atno 5151 bound_to 5142
  160.4070  164.7760  174.0576 H   0  0  0  0  0  0  0  0  0  0  0  0  # atno 5186 bound_to 5181
  146.2252  139.2989  106.6256 H   0  0  0  0  0  0  0  0  0  0  0  0  # atno 6490 bound_to 6474
  133.1172  121.4251  131.6613 LP  0  0  0  0  0  0  0  0  0  0  0  0  # atno 14724 bound_to 1565
  133.9060  120.9915  126.9116 LP  0  0  0  0  0  0  0  0  0  0  0  0  # atno 14725 bound_to 1568
  133.7297  122.6718  127.2933 LP  0  0  0  0  0  0  0  0  0  0  0  0  # atno 14726 bound_to 1568
  155.9151  162.4804  166.0739 LP  0  0  0  0  0  0  0  0  0  0  0  0  # atno 14737 bound_to 5142
  156.0412  161.6116  164.6970 LP  0  0  0  0  0  0  0  0  0  0  0  0  # atno 14738 bound_to 5142
  146.5453  101.1838  167.9889 LP  0  0  0  0  0  0  0  0  0  0  0  0  # atno 14749 bound_to 1661
  145.0966  100.4303  167.9872 LP  0  0  0  0  0  0  0  0  0  0  0  0  # atno 14750 bound_to 1661
  159.6471  163.4139  174.5218 LP  0  0  0  0  0  0  0  0  0  0  0  0  # atno 14757 bound_to 5181
  158.7833  164.6929  173.9882 LP  0  0  0  0  0  0  0  0  0  0  0  0  # atno 14758 bound_to 5181
  137.5081  135.1425   98.4627 LP  0  0  0  0  0  0  0  0  0  0  0  0  # atno 14793 bound_to 1769
  136.8044  133.2318   94.9852 LP  0  0  0  0  0  0  0  0  0  0  0  0  # atno 14794 bound_to 1772
  137.4085  134.6530   94.2007 LP  0  0  0  0  0  0  0  0  0  0  0  0  # atno 14795 bound_to 1772
  140.2194  122.8771  169.8002 LP  0  0  0  0  0  0  0  0  0  0  0  0  # atno 14814 bound_to 1867
  140.3660  123.7858  168.4513 LP  0  0  0  0  0  0  0  0  0  0  0  0  # atno 14815 bound_to 1867
  136.9027  147.6622  169.4828 LP  0  0  0  0  0  0  0  0  0  0  0  0  # atno 14816 bound_to 1868
  136.1358  150.6083  169.6521 LP  0  0  0  0  0  0  0  0  0  0  0  0  # atno 14817 bound_to 1871
  135.7494  149.2210  170.6145 LP  0  0  0  0  0  0  0  0  0  0  0  0  # atno 14818 bound_to 1871
  140.4374  147.8649  169.0559 LP  0  0  0  0  0  0  0  0  0  0  0  0  # atno 14819 bound_to 1873
  141.1812  149.1510  168.3781 LP  0  0  0  0  0  0  0  0  0  0  0  0  # atno 14820 bound_to 1873
  145.0685  138.2525  105.8541 LP  0  0  0  0  0  0  0  0  0  0  0  0  # atno 14839 bound_to 6474
  142.6479  138.4303  109.5809 LP  0  0  0  0  0  0  0  0  0  0  0  0  # atno 14840 bound_to 6477
  143.0728  136.7570  109.4414 LP  0  0  0  0  0  0  0  0  0  0  0  0  # atno 14841 bound_to 6477
  152.5152  162.3973  170.7382 LP  0  0  0  0  0  0  0  0  0  0  0  0  # atno 14852 bound_to 4458
  151.7448  163.0465  172.0233 LP  0  0  0  0  0  0  0  0  0  0  0  0  # atno 14853 bound_to 4458
  138.4736  144.4408  139.3221 LP  0  0  0  0  0  0  0  0  0  0  0  0  # atno 14854 bound_to 4459
  140.4818  143.1687  137.0307 LP  0  0  0  0  0  0  0  0  0  0  0  0  # atno 14855 bound_to 4462
  138.8858  143.0027  137.6828 LP  0  0  0  0  0  0  0  0  0  0  0  0  # atno 14856 bound_to 4462
  137.7540  140.6631  142.0325 LP  0  0  0  0  0  0  0  0  0  0  0  0  # atno 14857 bound_to 4465
  137.2237  142.0168  141.2889 LP  0  0  0  0  0  0  0  0  0  0  0  0  # atno 14858 bound_to 4465
  147.2425  166.3596  167.6714 LP  0  0  0  0  0  0  0  0  0  0  0  0  # atno 14869 bound_to 4497
  146.2988  165.0556  167.3965 LP  0  0  0  0  0  0  0  0  0  0  0  0  # atno 14870 bound_to 4497
  125.4851  141.9954  126.8309 LP  0  0  0  0  0  0  0  0  0  0  0  0  # atno 14877 bound_to 663 
  128.0466  143.9575  129.5181 LP  0  0  0  0  0  0  0  0  0  0  0  0  # atno 14878 bound_to 666 
  128.6869  145.4114  128.8280 LP  0  0  0  0  0  0  0  0  0  0  0  0  # atno 14879 bound_to 666 
  153.1063  115.8296  168.1981 LP  0  0  0  0  0  0  0  0  0  0  0  0  # atno 14882 bound_to 687 
  151.4898  115.9910  168.0323 LP  0  0  0  0  0  0  0  0  0  0  0  0  # atno 14883 bound_to 687 
  126.5638  131.5376  139.1112 LP  0  0  0  0  0  0  0  0  0  0  0  0  # atno 14894 bound_to 2427
  124.5131  135.6500  141.2224 LP  0  0  0  0  0  0  0  0  0  0  0  0  # atno 14895 bound_to 2430
  123.5952  134.1909  141.0533 LP  0  0  0  0  0  0  0  0  0  0  0  0  # atno 14896 bound_to 2430
  145.0819  102.8513  177.2880 LP  0  0  0  0  0  0  0  0  0  0  0  0  # atno 14899 bound_to 2452
  145.1395  101.6111  176.2273 LP  0  0  0  0  0  0  0  0  0  0  0  0  # atno 14900 bound_to 2452
  126.2026  135.6086  139.4272 LP  0  0  0  0  0  0  0  0  0  0  0  0  # atno 14903 bound_to 2473
  123.3356  137.5150  136.4965 LP  0  0  0  0  0  0  0  0  0  0  0  0  # atno 14904 bound_to 2476
  124.3178  138.6924  137.3020 LP  0  0  0  0  0  0  0  0  0  0  0  0  # atno 14905 bound_to 2476

> <Gold.Score>
     Fitness  S(hb_ext) S(vdw_ext)  S(hb_int)    S(int)      intcor
     34.48       0.00      25.79       0.00      -0.98      -0.75

> <Gold.Goldscore.Fitness>
34.4774

> <Gold.Goldscore.Internal.Vdw>
-1.0229

> <Gold.Goldscore.Internal.Torsion>
-0.7132

> <Gold.Goldscore.External.Vdw>
25.7880

> <Gold.Goldscore.Internal.HBond>
0.0000

> <Gold.Goldscore.External.HBond>
0.0000

> <Gold.Goldscore.Internal.Correction>
-0.7550

> <Gold.Goldscore.Internal.Vdw.Weighted>
-1.0229

> <Gold.Goldscore.Internal.Torsion.Weighted>
-0.7132

> <Gold.Goldscore.External.Vdw.Weighted>
35.4585

> <Gold.Goldscore.Internal.HBond.Weighted>
0.0000

> <Gold.Goldscore.External.HBond.Weighted>
0.0000

> <Gold.Goldscore.Internal.Correction.Weighted>
-0.7550

> <Gold.Rescore>
     Score     S(PLP)   S(hbond)     S(cho)   S(metal)  DE(clash)   DE(tors)     intcor
     29.46     -31.71       0.00       0.00       0.00       0.00       1.12       ----

> <Gold.PLP.Fitness>
29.4582

> <Gold.PLP.PLP>
-31.7068

> <Gold.PLP.part.hbond>
-1.8363

> <Gold.PLP.part.metal>
0.0000

> <Gold.PLP.part.buried>
-5.6897

> <Gold.PLP.part.nonpolar>
-28.4290

> <Gold.PLP.part.repulsive>
3.7310

> <Gold.PLP.ligand.clash>
0.0000

> <Gold.PLP.ligand.torsion>
1.1243

> <Gold.PLP.Chemscore.Hbond>
0.0000

> <Gold.PLP.Chemscore.CHOScore>
0.0000

> <Gold.PLP.Chemscore.Metal>
0.0000

> <Gold.PLP.Chemscore.Internal.Correction>
   9.000000E+99

