#       Name:                CT1002167954
#       Creating user name   hitesit
#       Creation time:       Sun Apr 16 22:56:26 2023


#       File generated by GOLD software.
#

@<TRIPOS>MOLECULE
CT1002167954|ligand_prepared|mol2|1|dock1
    29    30     1
SMALL
NO_CHARGES


@<TRIPOS>ATOM
      1 C1         142.9399 141.9763 169.3876 C.3            1 RES1               0.0000
      2 C2         144.3965 141.7091 169.8186 C.ar           1 RES1               0.0000
      3 C3         142.5682 140.8584 168.4178 C.2            1 RES1               0.0000
      4 C4         142.1119 141.9901 170.6678 C.2            1 RES1               0.0000
      5 C5         142.7384 143.3332 168.6736 C.3            1 RES1               0.0000
      6 C6         144.8295 140.4144 170.0883 C.ar           1 RES1               0.0000
      7 C7         145.3177 142.7451 169.9481 C.ar           1 RES1               0.0000
      8 N8         141.7253 139.8855 168.8682 N.am           1 RES1               0.0000
      9 O9         143.0387 140.8099 167.2880 O.2            1 RES1               0.0000
     10 N10        141.1819 140.9988 170.8418 N.am           1 RES1               0.0000
     11 O11        142.2680 142.8409 171.5350 O.2            1 RES1               0.0000
     12 C12        141.3647 143.4957 168.0422 C.3            1 RES1               0.0000
     13 C13        146.1369 140.1638 170.4706 C.ar           1 RES1               0.0000
     14 C14        146.6246 142.4924 170.3308 C.ar           1 RES1               0.0000
     15 C15        140.9725 139.9296 170.0141 C.2            1 RES1               0.0000
     16 C16        147.0354 141.2024 170.5917 C.ar           1 RES1               0.0000
     17 O17        140.1549 139.0491 170.2658 O.2            1 RES1               0.0000
     18 H18        142.8908 144.1406 169.4004 H              1 RES1               0.0000
     19 H19        143.5008 143.4375 167.8918 H              1 RES1               0.0000
     20 H20        144.1361 139.5846 170.0007 H              1 RES1               0.0000
     21 H21        145.0165 143.7679 169.7490 H              1 RES1               0.0000
     22 H22        141.6475 139.0476 168.3006 H              1 RES1               0.0000
     23 H23        140.5909 141.0641 171.6645 H              1 RES1               0.0000
     24 H24        141.2764 144.4645 167.5549 H              1 RES1               0.0000
     25 H25        141.1894 142.7237 167.2958 H              1 RES1               0.0000
     26 H26        140.5829 143.4227 168.7955 H              1 RES1               0.0000
     27 H27        146.4549 139.1470 170.6761 H              1 RES1               0.0000
     28 H28        147.3282 143.3129 170.4255 H              1 RES1               0.0000
     29 H29        148.0597 141.0059 170.8909 H              1 RES1               0.0000
@<TRIPOS>BOND
    1    1    2 1     
    2    1    3 1     
    3    1    4 1     
    4    1    5 1     
    5    2    6 ar    
    6    2    7 ar    
    7    3    8 1     
    8    3    9 2     
    9    4   10 1     
   10    4   11 2     
   11    5   12 1     
   12    5   18 1     
   13    5   19 1     
   14    6   13 ar    
   15    6   20 1     
   16    7   14 ar    
   17    7   21 1     
   18    8   15 1     
   19    8   22 1     
   20   10   15 1     
   21   10   23 1     
   22   12   24 1     
   23   12   25 1     
   24   12   26 1     
   25   13   16 ar    
   26   13   27 1     
   27   14   16 ar    
   28   14   28 1     
   29   15   17 2     
   30   16   29 1     
@<TRIPOS>SUBSTRUCTURE
      1 RES1           1
@<TRIPOS>SET
DONOR_HYDROGENS      STATIC     ATOMS    <user>   **** ""
2 22 23
ATOM$RED        STATIC     ATOMS    COLORGROUP SYSTEM
2 22 23
@<TRIPOS>COMMENT
> <Gold.Version>
2022.3.0

> <Gold.Id.Protein>
unknown|7rmh_cavity_clean|pdb

> <Gold.Protein.RotatedTorsions>
[ 1581 1565 1566 1567 ] final -146.05 input  115.26 | X-H torsion
[ 5151 5142 5141 5139 ] final  -13.10 input   59.98 | X-H torsion
[ 1669 1661 1660 1658 ] final  136.34 input   59.97 | X-H torsion
[ 5186 5181 5180 5177 ] final  -34.00 input   59.99 | X-H torsion
[ 1788 1769 1770 1771 ] final  -80.87 input  122.82 | X-H torsion
[ 1883 1867 1866 1863 ] final   53.04 input   59.99 | X-H torsion
[ 1874 1868 1869 1870 ] final -174.75 input   29.02 | X-H torsion
[ 1878 1873 1872 1869 ] final   16.26 input   60.02 | X-H torsion
[ 6490 6474 6475 6476 ] final  -29.56 input  103.68 | X-H torsion
[ 4479 4458 4456 4453 ] final  -73.64 input   59.98 | X-H torsion
[ 4466 4459 4460 4461 ] final  108.40 input   43.99 | X-H torsion
[ 4472 4465 4463 4460 ] final  -92.19 input   60.01 | X-H torsion
[ 4502 4497 4496 4493 ] final -103.56 input   59.97 | X-H torsion
[  675  663  664  665 ] final -126.76 input  108.58 | X-H torsion
[  692  687  686  683 ] final  118.69 input   59.99 | X-H torsion
[  713  708  707  706 ] final -172.55 input   60.01 | X-H torsion
[ 2432 2427 2428 2429 ] final   47.79 input   99.19 | X-H torsion
[ 2461 2452 2451 2449 ] final   36.66 input   60.00 | X-H torsion
[ 2484 2473 2474 2475 ] final  -62.68 input  111.54 | X-H torsion
[ 1326 1317 1316 1315 ] final   93.03 input   60.01 | X-H torsion
[ 14725 1568 1567 1566 ] final  121.22 input    0.00 | X-H torsion
[ 14794 1772 1771 1770 ] final   71.00 input    0.00 | X-H torsion
[ 14817 1871 1870 1869 ] final  -68.25 input    0.00 | X-H torsion
[ 14840 6477 6476 6475 ] final  -16.34 input   -0.00 | X-H torsion
[ 14855 4462 4461 4460 ] final  -86.86 input    0.00 | X-H torsion
[ 14878  666  665  664 ] final   45.86 input   -0.00 | X-H torsion
[ 14895 2430 2429 2428 ] final   -7.54 input    0.00 | X-H torsion
[ 14904 2476 2475 2474 ] final   85.61 input    0.00 | X-H torsion

> <Gold.Protein.ActiveResidues>
 LEU46   GLY47   ALA48   ASP49   ASN50   SER51   LYS53   VAL224  GLY225  GLY226 
 GLN227  ARG228  ASP229  GLU230  ARG231  ARG232  LYS233  TRP234  ILE235  GLN236 
 CYS237  PHE246  VAL247  VAL248  ASP249  ASP252  TYR253  ASN264  ARG265  LEU266 
 GLN267  GLU268  ALA269  LEU270  ASN271  LEU272  LYS274  SER275  ASN278  ASN279 
 ARG280  TRP281  ASP310  TYR311  PHE312  GLU344  ARG347  ILE348  ALA351  ILE18  
 TRP63   THR65   ASP66   SER67   ARG68   LEU69   TYR105  ALA106  PRO107  SER108 
 GLY109  ASN110  CYS149  ARG150  PHE151  ASP154  ASN155  GLN156  LEU192  ALA193 
 PRO194  ASP195  THR196  ARG197  LEU198  VAL200  ILE229  ASN230  ALA231  CYS233 
 PHE235 

> <Gold.Protein.RotatedAtoms>
  125.4521  142.0009  126.9709 H   0  0  0  0  0  0  0  0  0  0  0  0  # atno 675  bound_to 663 
  152.5249  116.2890  166.7796 H   0  0  0  0  0  0  0  0  0  0  0  0  # atno 692  bound_to 687 
  154.1915  122.1672  168.7695 H   0  0  0  0  0  0  0  0  0  0  0  0  # atno 713  bound_to 708 
  153.7107  122.2068  167.1844 H   0  0  0  0  0  0  0  0  0  0  0  0  # atno 714  bound_to 708 
  152.9605  121.1862  168.2527 H   0  0  0  0  0  0  0  0  0  0  0  0  # atno 715  bound_to 708 
  140.5702  136.4105  174.9281 H   0  0  0  0  0  0  0  0  0  0  0  0  # atno 1326 bound_to 1317
  139.3085  137.0790  174.0863 H   0  0  0  0  0  0  0  0  0  0  0  0  # atno 1327 bound_to 1317
  139.9130  135.6017  173.6394 H   0  0  0  0  0  0  0  0  0  0  0  0  # atno 1328 bound_to 1317
  134.4088  122.3697  131.7136 H   0  0  0  0  0  0  0  0  0  0  0  0  # atno 1581 bound_to 1565
  146.6440  100.3444  168.9587 H   0  0  0  0  0  0  0  0  0  0  0  0  # atno 1669 bound_to 1661
  137.5609  134.3396   98.7149 H   0  0  0  0  0  0  0  0  0  0  0  0  # atno 1788 bound_to 1769
  138.4124  146.8447  169.3765 H   0  0  0  0  0  0  0  0  0  0  0  0  # atno 1874 bound_to 1868
  140.1884  147.7208  168.7857 H   0  0  0  0  0  0  0  0  0  0  0  0  # atno 1878 bound_to 1873
  140.2529  123.5199  168.1161 H   0  0  0  0  0  0  0  0  0  0  0  0  # atno 1883 bound_to 1867
  127.5703  132.3046  140.3154 H   0  0  0  0  0  0  0  0  0  0  0  0  # atno 2432 bound_to 2427
  144.4093  102.0550  177.8714 H   0  0  0  0  0  0  0  0  0  0  0  0  # atno 2461 bound_to 2452
  126.4462  136.6462  139.8937 H   0  0  0  0  0  0  0  0  0  0  0  0  # atno 2484 bound_to 2473
  137.4481  143.1625  139.7448 H   0  0  0  0  0  0  0  0  0  0  0  0  # atno 4466 bound_to 4459
  138.4718  141.5382  142.5548 H   0  0  0  0  0  0  0  0  0  0  0  0  # atno 4472 bound_to 4465
  151.7676  163.0655  172.0407 H   0  0  0  0  0  0  0  0  0  0  0  0  # atno 4479 bound_to 4458
  145.6349  165.4800  167.2883 H   0  0  0  0  0  0  0  0  0  0  0  0  # atno 4502 bound_to 4497
  157.0032  161.2835  165.1398 H   0  0  0  0  0  0  0  0  0  0  0  0  # atno 5151 bound_to 5142
  158.9719  164.9183  173.9133 H   0  0  0  0  0  0  0  0  0  0  0  0  # atno 5186 bound_to 5181
  145.6873  137.9391  106.4721 H   0  0  0  0  0  0  0  0  0  0  0  0  # atno 6490 bound_to 6474
  132.7844  121.8950  131.2759 LP  0  0  0  0  0  0  0  0  0  0  0  0  # atno 14724 bound_to 1565
  133.4847  121.0924  126.7982 LP  0  0  0  0  0  0  0  0  0  0  0  0  # atno 14725 bound_to 1568
  134.1510  122.5709  127.4067 LP  0  0  0  0  0  0  0  0  0  0  0  0  # atno 14726 bound_to 1568
  156.5777  162.2539  166.3746 LP  0  0  0  0  0  0  0  0  0  0  0  0  # atno 14737 bound_to 5142
  155.5967  162.0993  165.0783 LP  0  0  0  0  0  0  0  0  0  0  0  0  # atno 14738 bound_to 5142
  146.0844  101.2101  167.6997 LP  0  0  0  0  0  0  0  0  0  0  0  0  # atno 14749 bound_to 1661
  145.1406  100.0749  168.3977 LP  0  0  0  0  0  0  0  0  0  0  0  0  # atno 14750 bound_to 1661
  160.5297  164.5197  174.1638 LP  0  0  0  0  0  0  0  0  0  0  0  0  # atno 14757 bound_to 5181
  159.3458  163.4438  174.4915 LP  0  0  0  0  0  0  0  0  0  0  0  0  # atno 14758 bound_to 5181
  136.1200  135.2759   99.0430 LP  0  0  0  0  0  0  0  0  0  0  0  0  # atno 14793 bound_to 1769
  136.3035  133.6537   94.4448 LP  0  0  0  0  0  0  0  0  0  0  0  0  # atno 14794 bound_to 1772
  137.9094  134.2311   94.7410 LP  0  0  0  0  0  0  0  0  0  0  0  0  # atno 14795 bound_to 1772
  139.8797  122.0696  168.7533 LP  0  0  0  0  0  0  0  0  0  0  0  0  # atno 14814 bound_to 1867
  140.3388  123.2982  169.7261 LP  0  0  0  0  0  0  0  0  0  0  0  0  # atno 14815 bound_to 1867
  136.8787  147.5808  169.7799 LP  0  0  0  0  0  0  0  0  0  0  0  0  # atno 14816 bound_to 1868
  136.2173  150.2202  169.3709 LP  0  0  0  0  0  0  0  0  0  0  0  0  # atno 14817 bound_to 1871
  135.6679  149.6091  170.8956 LP  0  0  0  0  0  0  0  0  0  0  0  0  # atno 14818 bound_to 1871
  141.2122  148.9845  168.7360 LP  0  0  0  0  0  0  0  0  0  0  0  0  # atno 14819 bound_to 1873
  140.2972  148.6194  167.4335 LP  0  0  0  0  0  0  0  0  0  0  0  0  # atno 14820 bound_to 1873
  145.6072  139.6142  106.0078 LP  0  0  0  0  0  0  0  0  0  0  0  0  # atno 14839 bound_to 6474
  143.4121  138.1762  109.8371 LP  0  0  0  0  0  0  0  0  0  0  0  0  # atno 14840 bound_to 6477
  142.3087  137.0111  109.1852 LP  0  0  0  0  0  0  0  0  0  0  0  0  # atno 14841 bound_to 6477
  153.3668  163.2569  171.8092 LP  0  0  0  0  0  0  0  0  0  0  0  0  # atno 14852 bound_to 4458
  152.4820  162.3930  170.7426 LP  0  0  0  0  0  0  0  0  0  0  0  0  # atno 14853 bound_to 4458
  138.4662  144.5880  139.7403 LP  0  0  0  0  0  0  0  0  0  0  0  0  # atno 14854 bound_to 4459
  139.4235  142.2646  137.2666 LP  0  0  0  0  0  0  0  0  0  0  0  0  # atno 14855 bound_to 4462
  139.9440  143.9068  137.4470 LP  0  0  0  0  0  0  0  0  0  0  0  0  # atno 14856 bound_to 4462
  137.3499  140.8177  141.6217 LP  0  0  0  0  0  0  0  0  0  0  0  0  # atno 14857 bound_to 4465
  137.5675  142.4341  141.5409 LP  0  0  0  0  0  0  0  0  0  0  0  0  # atno 14858 bound_to 4465
  146.3360  166.9294  167.5258 LP  0  0  0  0  0  0  0  0  0  0  0  0  # atno 14869 bound_to 4497
  147.2267  165.5637  167.6165 LP  0  0  0  0  0  0  0  0  0  0  0  0  # atno 14870 bound_to 4497
  124.9901  143.6192  126.5113 LP  0  0  0  0  0  0  0  0  0  0  0  0  # atno 14877 bound_to 663 
  128.9611  144.4276  128.5979 LP  0  0  0  0  0  0  0  0  0  0  0  0  # atno 14878 bound_to 666 
  127.7724  144.9414  129.7481 LP  0  0  0  0  0  0  0  0  0  0  0  0  # atno 14879 bound_to 666 
  153.0739  115.8201  168.2375 LP  0  0  0  0  0  0  0  0  0  0  0  0  # atno 14882 bound_to 687 
  151.4711  116.0060  167.9863 LP  0  0  0  0  0  0  0  0  0  0  0  0  # atno 14883 bound_to 687 
  126.5630  131.4794  139.1489 LP  0  0  0  0  0  0  0  0  0  0  0  0  # atno 14894 bound_to 2427
  123.6017  134.2334  140.8671 LP  0  0  0  0  0  0  0  0  0  0  0  0  # atno 14895 bound_to 2430
  124.5066  135.6075  141.4086 LP  0  0  0  0  0  0  0  0  0  0  0  0  # atno 14896 bound_to 2430
  145.3420  102.6935  176.7011 LP  0  0  0  0  0  0  0  0  0  0  0  0  # atno 14899 bound_to 2452
  144.7678  101.1720  176.5528 LP  0  0  0  0  0  0  0  0  0  0  0  0  # atno 14900 bound_to 2452
  127.3842  135.5489  138.9119 LP  0  0  0  0  0  0  0  0  0  0  0  0  # atno 14903 bound_to 2473
  123.9857  137.7635  136.1189 LP  0  0  0  0  0  0  0  0  0  0  0  0  # atno 14904 bound_to 2476
  123.6677  138.4439  137.6797 LP  0  0  0  0  0  0  0  0  0  0  0  0  # atno 14905 bound_to 2476

> <Gold.Score>
     Fitness  S(hb_ext) S(vdw_ext)  S(hb_int)    S(int)      intcor
     34.66       1.94      23.92       0.00      -0.18      -0.76

> <Gold.Goldscore.Fitness>
34.6567

> <Gold.Goldscore.Internal.Vdw>
-0.4185

> <Gold.Goldscore.Internal.Torsion>
-0.5226

> <Gold.Goldscore.External.Vdw>
23.9238

> <Gold.Goldscore.Internal.HBond>
0.0000

> <Gold.Goldscore.External.HBond>
1.9440

> <Gold.Goldscore.Internal.Correction>
-0.7585

> <Gold.Goldscore.Hbonds>
donor molecule, donor type, donor heavy atom, donor atom, acceptor molecule, acceptor atom, score
      L1  H     8    22       P1  1382  0.97

> <Gold.Goldscore.Internal.Vdw.Weighted>
-0.4185

> <Gold.Goldscore.Internal.Torsion.Weighted>
-0.5226

> <Gold.Goldscore.External.Vdw.Weighted>
32.8952

> <Gold.Goldscore.Internal.HBond.Weighted>
0.0000

> <Gold.Goldscore.External.HBond.Weighted>
1.9440

> <Gold.Goldscore.Internal.Correction.Weighted>
-0.7585

> <Gold.Rescore>
     Score     S(PLP)   S(hbond)     S(cho)   S(metal)  DE(clash)   DE(tors)     intcor
     33.41     -32.27       1.00       0.00       0.00       0.00       0.93       ----

> <Gold.PLP.Fitness>
33.4083

> <Gold.PLP.PLP>
-32.2684

> <Gold.PLP.part.hbond>
-2.1864

> <Gold.PLP.part.metal>
0.0000

> <Gold.PLP.part.buried>
-5.2575

> <Gold.PLP.part.nonpolar>
-26.7194

> <Gold.PLP.part.repulsive>
0.5828

> <Gold.PLP.ligand.clash>
0.0000

> <Gold.PLP.ligand.torsion>
0.9301

> <Gold.PLP.Chemscore.Hbond>
1.0000

> <Gold.PLP.Chemscore.CHOScore>
0.0000

> <Gold.PLP.Chemscore.Metal>
0.0000

> <Gold.Chemscore.Hbonds>
donor molecule, donor type, donor heavy atom, donor atom, acceptor molecule, acceptor atom, score
      L1  H     8    22       P1  1382  0.70

> <Gold.PLP.Chemscore.Internal.Correction>
   9.000000E+99

