#       Name:                CT1002167954
#       Creating user name   hitesit
#       Creation time:       Sun Apr 16 22:58:00 2023


#       File generated by GOLD software.
#

@<TRIPOS>MOLECULE
CT1002167954|ligand_prepared|mol2|1|dock6
    29    30     1
SMALL
NO_CHARGES


@<TRIPOS>ATOM
      1 C1         143.5668 145.3504 170.5955 C.3            1 RES1               0.0000
      2 C2         142.5015 144.2954 170.2338 C.ar           1 RES1               0.0000
      3 C3         144.7417 145.1142 169.6509 C.2            1 RES1               0.0000
      4 C4         142.8961 146.7092 170.4265 C.2            1 RES1               0.0000
      5 C5         144.0786 145.2480 172.0512 C.3            1 RES1               0.0000
      6 C6         141.9239 144.2767 168.9678 C.ar           1 RES1               0.0000
      7 C7         142.0888 143.3345 171.1530 C.ar           1 RES1               0.0000
      8 N8         144.9271 146.0077 168.6375 N.am           1 RES1               0.0000
      9 O9         145.4706 144.1371 169.7697 O.2            1 RES1               0.0000
     10 N10        143.3633 147.5376 169.4399 N.am           1 RES1               0.0000
     11 O11        141.9565 147.0632 171.1279 O.2            1 RES1               0.0000
     12 C12        145.1175 146.2983 172.4112 C.3            1 RES1               0.0000
     13 C13        140.9705 143.3299 168.6318 C.ar           1 RES1               0.0000
     14 C14        141.1350 142.3887 170.8150 C.ar           1 RES1               0.0000
     15 C15        144.3282 147.2360 168.5178 C.2            1 RES1               0.0000
     16 C16        140.5757 142.3851 169.5549 C.ar           1 RES1               0.0000
     17 O17        144.6563 148.0134 167.6261 O.2            1 RES1               0.0000
     18 H18        143.2252 145.3471 172.7333 H              1 RES1               0.0000
     19 H19        144.5152 144.2531 172.2028 H              1 RES1               0.0000
     20 H20        142.2202 145.0139 168.2290 H              1 RES1               0.0000
     21 H21        142.5144 143.3188 172.1506 H              1 RES1               0.0000
     22 H22        145.5706 145.7377 167.9004 H              1 RES1               0.0000
     23 H23        142.9539 148.4650 169.3882 H              1 RES1               0.0000
     24 H24        145.4427 146.1814 173.4428 H              1 RES1               0.0000
     25 H25        145.9914 146.2126 171.7686 H              1 RES1               0.0000
     26 H26        144.7090 147.3002 172.2960 H              1 RES1               0.0000
     27 H27        140.5324 143.3322 167.6392 H              1 RES1               0.0000
     28 H28        140.8269 141.6473 171.5449 H              1 RES1               0.0000
     29 H29        139.8291 141.6433 169.2914 H              1 RES1               0.0000
@<TRIPOS>BOND
    1    1    2 1     
    2    1    3 1     
    3    1    4 1     
    4    1    5 1     
    5    2    6 ar    
    6    2    7 ar    
    7    3    8 1     
    8    3    9 2     
    9    4   10 1     
   10    4   11 2     
   11    5   12 1     
   12    5   18 1     
   13    5   19 1     
   14    6   13 ar    
   15    6   20 1     
   16    7   14 ar    
   17    7   21 1     
   18    8   15 1     
   19    8   22 1     
   20   10   15 1     
   21   10   23 1     
   22   12   24 1     
   23   12   25 1     
   24   12   26 1     
   25   13   16 ar    
   26   13   27 1     
   27   14   16 ar    
   28   14   28 1     
   29   15   17 2     
   30   16   29 1     
@<TRIPOS>SUBSTRUCTURE
      1 RES1           1
@<TRIPOS>SET
DONOR_HYDROGENS      STATIC     ATOMS    <user>   **** ""
2 22 23
ATOM$RED        STATIC     ATOMS    COLORGROUP SYSTEM
2 22 23
@<TRIPOS>COMMENT
> <Gold.Version>
2022.3.0

> <Gold.Id.Protein>
unknown|7rmh_cavity_clean|pdb

> <Gold.Protein.RotatedTorsions>
[ 1581 1565 1566 1567 ] final  139.33 input  115.26 | X-H torsion
[ 5151 5142 5141 5139 ] final  -95.28 input   59.98 | X-H torsion
[ 1669 1661 1660 1658 ] final -124.97 input   59.97 | X-H torsion
[ 5186 5181 5180 5177 ] final -154.96 input   59.99 | X-H torsion
[ 1788 1769 1770 1771 ] final   94.59 input  122.82 | X-H torsion
[ 1883 1867 1866 1863 ] final   14.74 input   59.99 | X-H torsion
[ 1874 1868 1869 1870 ] final  149.36 input   29.02 | X-H torsion
[ 1878 1873 1872 1869 ] final  -33.39 input   60.02 | X-H torsion
[ 6490 6474 6475 6476 ] final  -20.03 input  103.68 | X-H torsion
[ 4479 4458 4456 4453 ] final   41.41 input   59.98 | X-H torsion
[ 4466 4459 4460 4461 ] final   76.17 input   43.99 | X-H torsion
[ 4472 4465 4463 4460 ] final  103.28 input   60.01 | X-H torsion
[ 4502 4497 4496 4493 ] final -137.87 input   59.97 | X-H torsion
[  675  663  664  665 ] final  -91.95 input  108.58 | X-H torsion
[  692  687  686  683 ] final  -99.77 input   59.99 | X-H torsion
[  713  708  707  706 ] final   -1.31 input   60.01 | X-H torsion
[ 2432 2427 2428 2429 ] final  104.21 input   99.19 | X-H torsion
[ 2461 2452 2451 2449 ] final  -73.33 input   60.00 | X-H torsion
[ 2484 2473 2474 2475 ] final  135.57 input  111.54 | X-H torsion
[ 1326 1317 1316 1315 ] final  153.84 input   60.01 | X-H torsion
[ 14725 1568 1567 1566 ] final  -36.46 input    0.00 | X-H torsion
[ 14794 1772 1771 1770 ] final -104.15 input    0.00 | X-H torsion
[ 14817 1871 1870 1869 ] final -125.77 input    0.00 | X-H torsion
[ 14840 6477 6476 6475 ] final   58.11 input   -0.00 | X-H torsion
[ 14855 4462 4461 4460 ] final   83.70 input    0.00 | X-H torsion
[ 14878  666  665  664 ] final -103.55 input   -0.00 | X-H torsion
[ 14895 2430 2429 2428 ] final   52.65 input    0.00 | X-H torsion
[ 14904 2476 2475 2474 ] final  -93.67 input    0.00 | X-H torsion

> <Gold.Protein.ActiveResidues>
 LEU46   GLY47   ALA48   ASP49   ASN50   SER51   LYS53   VAL224  GLY225  GLY226 
 GLN227  ARG228  ASP229  GLU230  ARG231  ARG232  LYS233  TRP234  ILE235  GLN236 
 CYS237  PHE246  VAL247  VAL248  ASP249  ASP252  TYR253  ASN264  ARG265  LEU266 
 GLN267  GLU268  ALA269  LEU270  ASN271  LEU272  LYS274  SER275  ASN278  ASN279 
 ARG280  TRP281  ASP310  TYR311  PHE312  GLU344  ARG347  ILE348  ALA351  ILE18  
 TRP63   THR65   ASP66   SER67   ARG68   LEU69   TYR105  ALA106  PRO107  SER108 
 GLY109  ASN110  CYS149  ARG150  PHE151  ASP154  ASN155  GLN156  LEU192  ALA193 
 PRO194  ASP195  THR196  ARG197  LEU198  VAL200  ILE229  ASN230  ALA231  CYS233 
 PHE235 

> <Gold.Protein.RotatedAtoms>
  125.3071  142.2531  127.4082 H   0  0  0  0  0  0  0  0  0  0  0  0  # atno 675  bound_to 663 
  151.6542  115.9064  168.2689 H   0  0  0  0  0  0  0  0  0  0  0  0  # atno 692  bound_to 687 
  153.1226  121.6331  167.2830 H   0  0  0  0  0  0  0  0  0  0  0  0  # atno 713  bound_to 708 
  153.4239  121.4174  168.8980 H   0  0  0  0  0  0  0  0  0  0  0  0  # atno 714  bound_to 708 
  154.3159  122.5089  168.0270 H   0  0  0  0  0  0  0  0  0  0  0  0  # atno 715  bound_to 708 
  139.9379  137.1311  174.7893 H   0  0  0  0  0  0  0  0  0  0  0  0  # atno 1326 bound_to 1317
  139.2954  136.3046  173.5042 H   0  0  0  0  0  0  0  0  0  0  0  0  # atno 1327 bound_to 1317
  140.5579  135.6553  174.3597 H   0  0  0  0  0  0  0  0  0  0  0  0  # atno 1328 bound_to 1317
  133.9061  121.4574  131.9711 H   0  0  0  0  0  0  0  0  0  0  0  0  # atno 1581 bound_to 1565
  145.3191   99.9305  168.6586 H   0  0  0  0  0  0  0  0  0  0  0  0  # atno 1669 bound_to 1661
  136.1237  135.3387   99.0017 H   0  0  0  0  0  0  0  0  0  0  0  0  # atno 1788 bound_to 1769
  138.2236  147.0952  168.9301 H   0  0  0  0  0  0  0  0  0  0  0  0  # atno 1874 bound_to 1868
  140.7205  148.1341  169.1905 H   0  0  0  0  0  0  0  0  0  0  0  0  # atno 1878 bound_to 1873
  140.0689  122.9637  167.9312 H   0  0  0  0  0  0  0  0  0  0  0  0  # atno 1883 bound_to 1867
  127.3492  131.5131  140.4734 H   0  0  0  0  0  0  0  0  0  0  0  0  # atno 2432 bound_to 2427
  145.2931  102.7659  176.8400 H   0  0  0  0  0  0  0  0  0  0  0  0  # atno 2461 bound_to 2452
  127.5829  135.7405  138.9394 H   0  0  0  0  0  0  0  0  0  0  0  0  # atno 2484 bound_to 2473
  137.6132  143.2120  139.2806 H   0  0  0  0  0  0  0  0  0  0  0  0  # atno 4466 bound_to 4459
  137.1173  141.4051  141.2936 H   0  0  0  0  0  0  0  0  0  0  0  0  # atno 4472 bound_to 4465
  152.4028  162.3911  170.7615 H   0  0  0  0  0  0  0  0  0  0  0  0  # atno 4479 bound_to 4458
  145.4797  166.0101  167.2915 H   0  0  0  0  0  0  0  0  0  0  0  0  # atno 4502 bound_to 4497
  157.0334  161.8835  166.2135 H   0  0  0  0  0  0  0  0  0  0  0  0  # atno 5151 bound_to 5142
  160.5270  164.5032  174.1673 H   0  0  0  0  0  0  0  0  0  0  0  0  # atno 5186 bound_to 5181
  145.5804  137.9201  106.3768 H   0  0  0  0  0  0  0  0  0  0  0  0  # atno 6490 bound_to 6474
  133.2744  122.7844  131.0248 LP  0  0  0  0  0  0  0  0  0  0  0  0  # atno 14724 bound_to 1565
  134.4124  122.3637  127.4392 LP  0  0  0  0  0  0  0  0  0  0  0  0  # atno 14725 bound_to 1568
  133.2232  121.2996  126.7657 LP  0  0  0  0  0  0  0  0  0  0  0  0  # atno 14726 bound_to 1568
  155.6117  162.3972  165.6115 LP  0  0  0  0  0  0  0  0  0  0  0  0  # atno 14737 bound_to 5142
  156.5324  161.3515  164.7597 LP  0  0  0  0  0  0  0  0  0  0  0  0  # atno 14738 bound_to 5142
  146.8005  100.5935  168.7737 LP  0  0  0  0  0  0  0  0  0  0  0  0  # atno 14749 bound_to 1661
  145.7592  101.1084  167.6260 LP  0  0  0  0  0  0  0  0  0  0  0  0  # atno 14750 bound_to 1661
  159.3307  163.4478  174.4891 LP  0  0  0  0  0  0  0  0  0  0  0  0  # atno 14757 bound_to 5181
  158.9788  164.9337  173.9105 LP  0  0  0  0  0  0  0  0  0  0  0  0  # atno 14758 bound_to 5181
  137.5155  134.3058   98.7645 LP  0  0  0  0  0  0  0  0  0  0  0  0  # atno 14793 bound_to 1769
  137.9179  134.1746   94.7869 LP  0  0  0  0  0  0  0  0  0  0  0  0  # atno 14794 bound_to 1772
  136.2950  133.7102   94.3989 LP  0  0  0  0  0  0  0  0  0  0  0  0  # atno 14795 bound_to 1772
  139.9694  122.1816  169.3550 LP  0  0  0  0  0  0  0  0  0  0  0  0  # atno 14814 bound_to 1867
  140.4343  123.7463  169.3105 LP  0  0  0  0  0  0  0  0  0  0  0  0  # atno 14815 bound_to 1867
  137.0628  147.3366  170.2151 LP  0  0  0  0  0  0  0  0  0  0  0  0  # atno 14816 bound_to 1868
  136.0302  150.7618  169.9761 LP  0  0  0  0  0  0  0  0  0  0  0  0  # atno 14817 bound_to 1871
  135.8550  149.0675  170.2904 LP  0  0  0  0  0  0  0  0  0  0  0  0  # atno 14818 bound_to 1871
  141.0326  149.1905  167.9929 LP  0  0  0  0  0  0  0  0  0  0  0  0  # atno 14819 bound_to 1873
  139.9407  147.9971  167.7689 LP  0  0  0  0  0  0  0  0  0  0  0  0  # atno 14820 bound_to 1873
  145.7142  139.6333  106.1032 LP  0  0  0  0  0  0  0  0  0  0  0  0  # atno 14839 bound_to 6474
  142.4410  138.3509  109.4843 LP  0  0  0  0  0  0  0  0  0  0  0  0  # atno 14840 bound_to 6477
  143.2797  136.8364  109.5380 LP  0  0  0  0  0  0  0  0  0  0  0  0  # atno 14841 bound_to 6477
  151.8095  163.1069  172.0969 LP  0  0  0  0  0  0  0  0  0  0  0  0  # atno 14852 bound_to 4458
  153.3995  163.2221  171.7432 LP  0  0  0  0  0  0  0  0  0  0  0  0  # atno 14853 bound_to 4458
  138.3071  144.5403  140.1876 LP  0  0  0  0  0  0  0  0  0  0  0  0  # atno 14854 bound_to 4459
  139.8167  143.9281  137.5075 LP  0  0  0  0  0  0  0  0  0  0  0  0  # atno 14855 bound_to 4462
  139.5509  142.2433  137.2060 LP  0  0  0  0  0  0  0  0  0  0  0  0  # atno 14856 bound_to 4462
  138.0890  142.4853  142.0265 LP  0  0  0  0  0  0  0  0  0  0  0  0  # atno 14857 bound_to 4465
  138.1925  140.9005  142.4062 LP  0  0  0  0  0  0  0  0  0  0  0  0  # atno 14858 bound_to 4465
  146.8666  166.7943  167.6239 LP  0  0  0  0  0  0  0  0  0  0  0  0  # atno 14869 bound_to 4497
  146.8524  165.1650  167.5151 LP  0  0  0  0  0  0  0  0  0  0  0  0  # atno 14870 bound_to 4497
  125.1332  143.3704  126.0796 LP  0  0  0  0  0  0  0  0  0  0  0  0  # atno 14877 bound_to 663 
  127.7706  144.4848  129.7686 LP  0  0  0  0  0  0  0  0  0  0  0  0  # atno 14878 bound_to 666 
  128.9630  144.8841  128.5775 LP  0  0  0  0  0  0  0  0  0  0  0  0  # atno 14879 bound_to 666 
  152.1747  116.3151  166.7828 LP  0  0  0  0  0  0  0  0  0  0  0  0  # atno 14882 bound_to 687 
  153.2475  115.8964  167.9405 LP  0  0  0  0  0  0  0  0  0  0  0  0  # atno 14883 bound_to 687 
  126.7786  132.2511  138.9948 LP  0  0  0  0  0  0  0  0  0  0  0  0  # atno 14894 bound_to 2427
  123.7599  134.3445  141.7138 LP  0  0  0  0  0  0  0  0  0  0  0  0  # atno 14895 bound_to 2430
  124.3484  135.4963  140.5619 LP  0  0  0  0  0  0  0  0  0  0  0  0  # atno 14896 bound_to 2430
  144.8626  101.2482  176.4422 LP  0  0  0  0  0  0  0  0  0  0  0  0  # atno 14899 bound_to 2452
  144.3567  101.9010  177.8510 LP  0  0  0  0  0  0  0  0  0  0  0  0  # atno 14900 bound_to 2452
  126.2671  136.4391  139.8498 LP  0  0  0  0  0  0  0  0  0  0  0  0  # atno 14903 bound_to 2473
  123.6768  138.4499  137.6788 LP  0  0  0  0  0  0  0  0  0  0  0  0  # atno 14904 bound_to 2476
  123.9766  137.7575  136.1198 LP  0  0  0  0  0  0  0  0  0  0  0  0  # atno 14905 bound_to 2476

> <Gold.Score>
     Fitness  S(hb_ext) S(vdw_ext)  S(hb_int)    S(int)      intcor
     31.06       0.94      21.93       0.00      -0.03      -0.76

> <Gold.Goldscore.Fitness>
31.0642

> <Gold.Goldscore.Internal.Vdw>
-0.4177

> <Gold.Goldscore.Internal.Torsion>
-0.3676

> <Gold.Goldscore.External.Vdw>
21.9314

> <Gold.Goldscore.Internal.HBond>
0.0000

> <Gold.Goldscore.External.HBond>
0.9354

> <Gold.Goldscore.Internal.Correction>
-0.7585

> <Gold.Goldscore.Hbonds>
donor molecule, donor type, donor heavy atom, donor atom, acceptor molecule, acceptor atom, score
      P1  H  1873  1878       L1    11  0.47

> <Gold.Goldscore.Internal.Vdw.Weighted>
-0.4177

> <Gold.Goldscore.Internal.Torsion.Weighted>
-0.3676

> <Gold.Goldscore.External.Vdw.Weighted>
30.1557

> <Gold.Goldscore.Internal.HBond.Weighted>
0.0000

> <Gold.Goldscore.External.HBond.Weighted>
0.9354

> <Gold.Goldscore.Internal.Correction.Weighted>
-0.7585

> <Gold.Rescore>
     Score     S(PLP)   S(hbond)     S(cho)   S(metal)  DE(clash)   DE(tors)     intcor
     22.19     -19.52       0.89       0.00       0.00       0.00       0.01       ----

> <Gold.PLP.Fitness>
22.1853

> <Gold.PLP.PLP>
-19.5151

> <Gold.PLP.part.hbond>
-0.8814

> <Gold.PLP.part.metal>
0.0000

> <Gold.PLP.part.buried>
-2.4151

> <Gold.PLP.part.nonpolar>
-22.5213

> <Gold.PLP.part.repulsive>
4.9162

> <Gold.PLP.ligand.clash>
0.0000

> <Gold.PLP.ligand.torsion>
0.0056

> <Gold.PLP.Chemscore.Hbond>
0.8938

> <Gold.PLP.Chemscore.CHOScore>
0.0000

> <Gold.PLP.Chemscore.Metal>
0.0000

> <Gold.PLP.Chemscore.Internal.Correction>
   9.000000E+99

