#       Name:                CT1002167954
#       Creating user name   hitesit
#       Creation time:       Sun Apr 16 22:58:20 2023


#       File generated by GOLD software.
#

@<TRIPOS>MOLECULE
CT1002167954|ligand_prepared|mol2|1|dock7
    29    30     1
SMALL
NO_CHARGES


@<TRIPOS>ATOM
      1 C1         137.1115 132.4802 170.0166 C.3            1 RES1               0.0000
      2 C2         135.8929 133.2199 169.4280 C.ar           1 RES1               0.0000
      3 C3         138.3151 133.3909 169.7922 C.2            1 RES1               0.0000
      4 C4         136.7884 132.2268 171.4850 C.2            1 RES1               0.0000
      5 C5         137.3969 131.1153 169.3478 C.3            1 RES1               0.0000
      6 C6         135.3750 134.3467 170.0596 C.ar           1 RES1               0.0000
      7 C7         135.2787 132.7899 168.2548 C.ar           1 RES1               0.0000
      8 N8         138.8235 134.0446 170.8757 N.am           1 RES1               0.0000
      9 O9         138.7861 133.5636 168.6748 O.2            1 RES1               0.0000
     10 N10        137.5510 132.8627 172.4293 N.am           1 RES1               0.0000
     11 O11        135.8696 131.4952 171.8326 O.2            1 RES1               0.0000
     12 C12        138.5041 130.3213 170.0228 C.3            1 RES1               0.0000
     13 C13        134.2844 135.0209 169.5358 C.ar           1 RES1               0.0000
     14 C14        134.1880 133.4655 167.7328 C.ar           1 RES1               0.0000
     15 C15        138.5342 133.7840 172.1910 C.2            1 RES1               0.0000
     16 C16        133.6905 134.5811 168.3720 C.ar           1 RES1               0.0000
     17 O17        139.1389 134.3540 173.0946 O.2            1 RES1               0.0000
     18 H18        136.4770 130.5178 169.3583 H              1 RES1               0.0000
     19 H19        137.6735 131.2865 168.3001 H              1 RES1               0.0000
     20 H20        135.8276 134.7061 170.9777 H              1 RES1               0.0000
     21 H21        135.6524 131.9139 167.7355 H              1 RES1               0.0000
     22 H22        139.4794 134.7969 170.6909 H              1 RES1               0.0000
     23 H23        137.3691 132.6273 173.3998 H              1 RES1               0.0000
     24 H24        138.6637 129.3728 169.5143 H              1 RES1               0.0000
     25 H25        139.4403 130.8754 170.0080 H              1 RES1               0.0000
     26 H26        138.2508 130.1113 171.0600 H              1 RES1               0.0000
     27 H27        133.8958 135.8976 170.0434 H              1 RES1               0.0000
     28 H28        133.7234 133.1155 166.8169 H              1 RES1               0.0000
     29 H29        132.8364 135.1097 167.9617 H              1 RES1               0.0000
@<TRIPOS>BOND
    1    1    2 1     
    2    1    3 1     
    3    1    4 1     
    4    1    5 1     
    5    2    6 ar    
    6    2    7 ar    
    7    3    8 1     
    8    3    9 2     
    9    4   10 1     
   10    4   11 2     
   11    5   12 1     
   12    5   18 1     
   13    5   19 1     
   14    6   13 ar    
   15    6   20 1     
   16    7   14 ar    
   17    7   21 1     
   18    8   15 1     
   19    8   22 1     
   20   10   15 1     
   21   10   23 1     
   22   12   24 1     
   23   12   25 1     
   24   12   26 1     
   25   13   16 ar    
   26   13   27 1     
   27   14   16 ar    
   28   14   28 1     
   29   15   17 2     
   30   16   29 1     
@<TRIPOS>SUBSTRUCTURE
      1 RES1           1
@<TRIPOS>SET
DONOR_HYDROGENS      STATIC     ATOMS    <user>   **** ""
2 22 23
ATOM$RED        STATIC     ATOMS    COLORGROUP SYSTEM
2 22 23
@<TRIPOS>COMMENT
> <Gold.Version>
2022.3.0

> <Gold.Id.Protein>
unknown|7rmh_cavity_clean|pdb

> <Gold.Protein.RotatedTorsions>
[ 1581 1565 1566 1567 ] final  -93.35 input  115.26 | X-H torsion
[ 5151 5142 5141 5139 ] final  -86.30 input   59.98 | X-H torsion
[ 1669 1661 1660 1658 ] final  -86.27 input   59.97 | X-H torsion
[ 5186 5181 5180 5177 ] final   44.62 input   59.99 | X-H torsion
[ 1788 1769 1770 1771 ] final  172.42 input  122.82 | X-H torsion
[ 1883 1867 1866 1863 ] final   82.62 input   59.99 | X-H torsion
[ 1874 1868 1869 1870 ] final -160.67 input   29.02 | X-H torsion
[ 1878 1873 1872 1869 ] final -145.25 input   60.02 | X-H torsion
[ 6490 6474 6475 6476 ] final   -6.68 input  103.68 | X-H torsion
[ 4479 4458 4456 4453 ] final  -28.78 input   59.98 | X-H torsion
[ 4466 4459 4460 4461 ] final -116.58 input   43.99 | X-H torsion
[ 4472 4465 4463 4460 ] final -120.90 input   60.01 | X-H torsion
[ 4502 4497 4496 4493 ] final -110.29 input   59.97 | X-H torsion
[  675  663  664  665 ] final   97.07 input  108.58 | X-H torsion
[  692  687  686  683 ] final -110.62 input   59.99 | X-H torsion
[  713  708  707  706 ] final  -31.87 input   60.01 | X-H torsion
[ 2432 2427 2428 2429 ] final   95.49 input   99.19 | X-H torsion
[ 2461 2452 2451 2449 ] final  155.68 input   60.00 | X-H torsion
[ 2484 2473 2474 2475 ] final   18.58 input  111.54 | X-H torsion
[ 1326 1317 1316 1315 ] final   77.87 input   60.01 | X-H torsion
[ 14725 1568 1567 1566 ] final  -24.29 input    0.00 | X-H torsion
[ 14794 1772 1771 1770 ] final   53.77 input    0.00 | X-H torsion
[ 14817 1871 1870 1869 ] final -172.92 input    0.00 | X-H torsion
[ 14840 6477 6476 6475 ] final   97.03 input   -0.00 | X-H torsion
[ 14855 4462 4461 4460 ] final   91.76 input    0.00 | X-H torsion
[ 14878  666  665  664 ] final  123.81 input   -0.00 | X-H torsion
[ 14895 2430 2429 2428 ] final  -16.94 input    0.00 | X-H torsion
[ 14904 2476 2475 2474 ] final   29.60 input    0.00 | X-H torsion

> <Gold.Protein.ActiveResidues>
 LEU46   GLY47   ALA48   ASP49   ASN50   SER51   LYS53   VAL224  GLY225  GLY226 
 GLN227  ARG228  ASP229  GLU230  ARG231  ARG232  LYS233  TRP234  ILE235  GLN236 
 CYS237  PHE246  VAL247  VAL248  ASP249  ASP252  TYR253  ASN264  ARG265  LEU266 
 GLN267  GLU268  ALA269  LEU270  ASN271  LEU272  LYS274  SER275  ASN278  ASN279 
 ARG280  TRP281  ASP310  TYR311  PHE312  GLU344  ARG347  ILE348  ALA351  ILE18  
 TRP63   THR65   ASP66   SER67   ARG68   LEU69   TYR105  ALA106  PRO107  SER108 
 GLY109  ASN110  CYS149  ARG150  PHE151  ASP154  ASN155  GLN156  LEU192  ALA193 
 PRO194  ASP195  THR196  ARG197  LEU198  VAL200  ILE229  ASN230  ALA231  CYS233 
 PHE235 

> <Gold.Protein.RotatedAtoms>
  125.1674  143.2704  125.9906 H   0  0  0  0  0  0  0  0  0  0  0  0  # atno 675  bound_to 663 
  151.5510  115.9539  168.1333 H   0  0  0  0  0  0  0  0  0  0  0  0  # atno 692  bound_to 687 
  153.4536  121.9840  167.1365 H   0  0  0  0  0  0  0  0  0  0  0  0  # atno 713  bound_to 708 
  153.1008  121.2207  168.5642 H   0  0  0  0  0  0  0  0  0  0  0  0  # atno 714  bound_to 708 
  154.3078  122.3546  168.5068 H   0  0  0  0  0  0  0  0  0  0  0  0  # atno 715  bound_to 708 
  140.6392  136.1858  174.8360 H   0  0  0  0  0  0  0  0  0  0  0  0  # atno 1326 bound_to 1317
  139.4295  137.1763  174.2854 H   0  0  0  0  0  0  0  0  0  0  0  0  # atno 1327 bound_to 1317
  139.7231  135.7291  173.5324 H   0  0  0  0  0  0  0  0  0  0  0  0  # atno 1328 bound_to 1317
  134.0023  122.8801  131.2757 H   0  0  0  0  0  0  0  0  0  0  0  0  # atno 1581 bound_to 1565
  145.0861  100.2497  168.1805 H   0  0  0  0  0  0  0  0  0  0  0  0  # atno 1669 bound_to 1661
  136.2729  134.2805   99.3199 H   0  0  0  0  0  0  0  0  0  0  0  0  # atno 1788 bound_to 1769
  138.4064  146.7817  169.5841 H   0  0  0  0  0  0  0  0  0  0  0  0  # atno 1874 bound_to 1868
  141.0866  149.1896  168.1150 H   0  0  0  0  0  0  0  0  0  0  0  0  # atno 1878 bound_to 1873
  140.3702  123.7953  168.4888 H   0  0  0  0  0  0  0  0  0  0  0  0  # atno 1883 bound_to 1867
  127.4098  131.6309  140.4968 H   0  0  0  0  0  0  0  0  0  0  0  0  # atno 2432 bound_to 2427
  144.7575  101.1725  176.5672 H   0  0  0  0  0  0  0  0  0  0  0  0  # atno 2461 bound_to 2452
  126.1762  135.6234  139.4512 H   0  0  0  0  0  0  0  0  0  0  0  0  # atno 2484 bound_to 2473
  138.2404  144.4697  140.3612 H   0  0  0  0  0  0  0  0  0  0  0  0  # atno 4466 bound_to 4459
  138.3292  141.1002  142.4973 H   0  0  0  0  0  0  0  0  0  0  0  0  # atno 4472 bound_to 4465
  151.6337  162.6700  171.4611 H   0  0  0  0  0  0  0  0  0  0  0  0  # atno 4479 bound_to 4458
  145.5803  165.5752  167.2835 H   0  0  0  0  0  0  0  0  0  0  0  0  # atno 4502 bound_to 4497
  157.1079  161.7898  166.1289 H   0  0  0  0  0  0  0  0  0  0  0  0  # atno 5151 bound_to 5142
  158.8222  163.8131  174.3176 H   0  0  0  0  0  0  0  0  0  0  0  0  # atno 5186 bound_to 5181
  145.4350  137.9330  106.2371 H   0  0  0  0  0  0  0  0  0  0  0  0  # atno 6490 bound_to 6474
  133.1807  121.3974  131.7028 LP  0  0  0  0  0  0  0  0  0  0  0  0  # atno 14724 bound_to 1565
  134.5195  122.2145  127.4357 LP  0  0  0  0  0  0  0  0  0  0  0  0  # atno 14725 bound_to 1568
  133.1161  121.4488  126.7693 LP  0  0  0  0  0  0  0  0  0  0  0  0  # atno 14726 bound_to 1568
  155.6670  162.4390  165.7419 LP  0  0  0  0  0  0  0  0  0  0  0  0  # atno 14737 bound_to 5142
  156.4020  161.4041  164.7146 LP  0  0  0  0  0  0  0  0  0  0  0  0  # atno 14738 bound_to 5142
  146.4553  100.1549  169.0544 LP  0  0  0  0  0  0  0  0  0  0  0  0  # atno 14749 bound_to 1661
  146.3391  101.2256  167.8269 LP  0  0  0  0  0  0  0  0  0  0  0  0  # atno 14750 bound_to 1661
  159.5806  165.1774  173.8574 LP  0  0  0  0  0  0  0  0  0  0  0  0  # atno 14757 bound_to 5181
  160.4456  163.8991  174.3908 LP  0  0  0  0  0  0  0  0  0  0  0  0  # atno 14758 bound_to 5181
  137.3706  135.3333   98.4555 LP  0  0  0  0  0  0  0  0  0  0  0  0  # atno 14793 bound_to 1769
  136.3795  133.4723   94.6141 LP  0  0  0  0  0  0  0  0  0  0  0  0  # atno 14794 bound_to 1772
  137.8335  134.4125   94.5717 LP  0  0  0  0  0  0  0  0  0  0  0  0  # atno 14795 bound_to 1772
  139.8922  122.2502  168.3072 LP  0  0  0  0  0  0  0  0  0  0  0  0  # atno 14814 bound_to 1867
  140.2081  122.8404  169.7967 LP  0  0  0  0  0  0  0  0  0  0  0  0  # atno 14815 bound_to 1867
  136.8845  147.6422  169.5775 LP  0  0  0  0  0  0  0  0  0  0  0  0  # atno 14816 bound_to 1868
  135.8043  150.6206  170.6155 LP  0  0  0  0  0  0  0  0  0  0  0  0  # atno 14817 bound_to 1871
  136.0808  149.2088  169.6510 LP  0  0  0  0  0  0  0  0  0  0  0  0  # atno 14818 bound_to 1871
  139.9723  148.0881  167.6762 LP  0  0  0  0  0  0  0  0  0  0  0  0  # atno 14819 bound_to 1873
  140.6322  148.0362  169.1690 LP  0  0  0  0  0  0  0  0  0  0  0  0  # atno 14820 bound_to 1873
  145.8598  139.6204  106.2432 LP  0  0  0  0  0  0  0  0  0  0  0  0  # atno 14839 bound_to 6474
  142.1011  137.9354  109.2730 LP  0  0  0  0  0  0  0  0  0  0  0  0  # atno 14840 bound_to 6477
  143.6197  137.2520  109.7493 LP  0  0  0  0  0  0  0  0  0  0  0  0  # atno 14841 bound_to 6477
  152.8322  163.4278  172.2593 LP  0  0  0  0  0  0  0  0  0  0  0  0  # atno 14852 bound_to 4458
  153.1514  162.6203  170.8763 LP  0  0  0  0  0  0  0  0  0  0  0  0  # atno 14853 bound_to 4458
  137.7026  143.3283  139.1463 LP  0  0  0  0  0  0  0  0  0  0  0  0  # atno 14854 bound_to 4459
  139.9257  143.9113  137.4560 LP  0  0  0  0  0  0  0  0  0  0  0  0  # atno 14855 bound_to 4462
  139.4418  142.2601  137.2575 LP  0  0  0  0  0  0  0  0  0  0  0  0  # atno 14856 bound_to 4462
  137.1533  141.1619  141.3740 LP  0  0  0  0  0  0  0  0  0  0  0  0  # atno 14857 bound_to 4465
  137.9078  142.5309  141.8464 LP  0  0  0  0  0  0  0  0  0  0  0  0  # atno 14858 bound_to 4465
  146.4445  166.9288  167.5476 LP  0  0  0  0  0  0  0  0  0  0  0  0  # atno 14869 bound_to 4497
  147.1732  165.4684  167.5995 LP  0  0  0  0  0  0  0  0  0  0  0  0  # atno 14870 bound_to 4497
  125.2711  142.3661  127.4790 LP  0  0  0  0  0  0  0  0  0  0  0  0  # atno 14877 bound_to 663 
  128.6534  145.4394  128.8599 LP  0  0  0  0  0  0  0  0  0  0  0  0  # atno 14878 bound_to 666 
  128.0802  143.9296  129.4861 LP  0  0  0  0  0  0  0  0  0  0  0  0  # atno 14879 bound_to 666 
  152.3517  116.3090  166.7623 LP  0  0  0  0  0  0  0  0  0  0  0  0  # atno 14882 bound_to 687 
  153.1745  115.8547  168.0976 LP  0  0  0  0  0  0  0  0  0  0  0  0  # atno 14883 bound_to 687 
  126.7195  132.1362  138.9721 LP  0  0  0  0  0  0  0  0  0  0  0  0  # atno 14894 bound_to 2427
  123.6209  134.2867  140.7370 LP  0  0  0  0  0  0  0  0  0  0  0  0  # atno 14895 bound_to 2430
  124.4874  135.5542  141.5387 LP  0  0  0  0  0  0  0  0  0  0  0  0  # atno 14896 bound_to 2430
  144.4135  102.0700  177.8799 LP  0  0  0  0  0  0  0  0  0  0  0  0  # atno 14899 bound_to 2452
  145.3454  102.6847  176.6882 LP  0  0  0  0  0  0  0  0  0  0  0  0  # atno 14900 bound_to 2452
  127.6496  136.5542  139.3469 LP  0  0  0  0  0  0  0  0  0  0  0  0  # atno 14903 bound_to 2473
  124.5107  138.3119  136.4106 LP  0  0  0  0  0  0  0  0  0  0  0  0  # atno 14904 bound_to 2476
  123.1427  137.8955  137.3879 LP  0  0  0  0  0  0  0  0  0  0  0  0  # atno 14905 bound_to 2476

> <Gold.Score>
     Fitness  S(hb_ext) S(vdw_ext)  S(hb_int)    S(int)      intcor
     36.99       6.55      22.14       0.00      -0.00      -0.75

> <Gold.Goldscore.Fitness>
36.9867

> <Gold.Goldscore.Internal.Vdw>
-0.3329

> <Gold.Goldscore.Internal.Torsion>
-0.4251

> <Gold.Goldscore.External.Vdw>
22.1381

> <Gold.Goldscore.Internal.HBond>
0.0000

> <Gold.Goldscore.External.HBond>
6.5500

> <Gold.Goldscore.Internal.Correction>
-0.7550

> <Gold.Goldscore.Hbonds>
donor molecule, donor type, donor heavy atom, donor atom, acceptor molecule, acceptor atom, score
      P1  H  1381  1390       L1     9  0.28
      P1  H  1317  1328       L1    17  1.00

> <Gold.Goldscore.Internal.Vdw.Weighted>
-0.3329

> <Gold.Goldscore.Internal.Torsion.Weighted>
-0.4251

> <Gold.Goldscore.External.Vdw.Weighted>
30.4398

> <Gold.Goldscore.Internal.HBond.Weighted>
0.0000

> <Gold.Goldscore.External.HBond.Weighted>
6.5500

> <Gold.Goldscore.Internal.Correction.Weighted>
-0.7550

> <Gold.Rescore>
     Score     S(PLP)   S(hbond)     S(cho)   S(metal)  DE(clash)   DE(tors)     intcor
     32.45     -27.52       2.00       0.00       0.00       0.00       0.54       ----

> <Gold.PLP.Fitness>
32.4519

> <Gold.PLP.PLP>
-27.5241

> <Gold.PLP.part.hbond>
-3.3525

> <Gold.PLP.part.metal>
0.0000

> <Gold.PLP.part.buried>
-2.6015

> <Gold.PLP.part.nonpolar>
-23.3795

> <Gold.PLP.part.repulsive>
0.5532

> <Gold.PLP.ligand.clash>
0.0000

> <Gold.PLP.ligand.torsion>
0.5361

> <Gold.PLP.Chemscore.Hbond>
2.0000

> <Gold.PLP.Chemscore.CHOScore>
0.0000

> <Gold.PLP.Chemscore.Metal>
0.0000

> <Gold.Chemscore.Hbonds>
donor molecule, donor type, donor heavy atom, donor atom, acceptor molecule, acceptor atom, score
      P1  H  1381  1390       L1     9  0.47
      P1  H  1317  1328       L1    17  0.89

> <Gold.PLP.Chemscore.Internal.Correction>
   9.000000E+99

