#       Name:                CT1002167954
#       Creating user name   hitesit
#       Creation time:       Sun Apr 16 22:56:46 2023


#       File generated by GOLD software.
#

@<TRIPOS>MOLECULE
CT1002167954|ligand_prepared|mol2|1|dock2
    29    30     1
SMALL
NO_CHARGES


@<TRIPOS>ATOM
      1 C1         142.5542 142.8066 169.9619 C.3            1 RES1               0.0000
      2 C2         143.9591 142.1972 170.1458 C.ar           1 RES1               0.0000
      3 C3         142.1182 143.3009 171.3381 C.2            1 RES1               0.0000
      4 C4         142.7013 143.9116 168.9218 C.2            1 RES1               0.0000
      5 C5         141.4997 141.8007 169.4445 C.3            1 RES1               0.0000
      6 C6         145.0418 143.0026 170.4862 C.ar           1 RES1               0.0000
      7 C7         144.1871 140.8336 169.9814 C.ar           1 RES1               0.0000
      8 N8         142.1227 144.6471 171.5565 N.am           1 RES1               0.0000
      9 O9         141.8129 142.5195 172.2306 O.2            1 RES1               0.0000
     10 N10        142.4870 145.2041 169.3234 N.am           1 RES1               0.0000
     11 O11        143.0171 143.6762 167.7620 O.2            1 RES1               0.0000
     12 C12        140.1269 142.4139 169.2178 C.3            1 RES1               0.0000
     13 C13        146.3061 142.4639 170.6588 C.ar           1 RES1               0.0000
     14 C14        145.4522 140.2969 170.1543 C.ar           1 RES1               0.0000
     15 C15        142.2344 145.6247 170.6007 C.2            1 RES1               0.0000
     16 C16        146.5120 141.1108 170.4935 C.ar           1 RES1               0.0000
     17 O17        142.1073 146.8101 170.8933 O.2            1 RES1               0.0000
     18 H18        141.8551 141.3714 168.4996 H              1 RES1               0.0000
     19 H19        141.4058 140.9831 170.1699 H              1 RES1               0.0000
     20 H20        144.8994 144.0700 170.6181 H              1 RES1               0.0000
     21 H21        143.3684 140.1743 169.7135 H              1 RES1               0.0000
     22 H22        142.0350 144.9554 172.5196 H              1 RES1               0.0000
     23 H23        142.5185 145.9189 168.6034 H              1 RES1               0.0000
     24 H24        139.4253 141.6656 168.8552 H              1 RES1               0.0000
     25 H25        139.7320 142.8284 170.1430 H              1 RES1               0.0000
     26 H26        140.1786 143.2143 168.4826 H              1 RES1               0.0000
     27 H27        147.1371 143.1090 170.9244 H              1 RES1               0.0000
     28 H28        145.6098 139.2316 170.0225 H              1 RES1               0.0000
     29 H29        147.5024 140.6890 170.6291 H              1 RES1               0.0000
@<TRIPOS>BOND
    1    1    2 1     
    2    1    3 1     
    3    1    4 1     
    4    1    5 1     
    5    2    6 ar    
    6    2    7 ar    
    7    3    8 1     
    8    3    9 2     
    9    4   10 1     
   10    4   11 2     
   11    5   12 1     
   12    5   18 1     
   13    5   19 1     
   14    6   13 ar    
   15    6   20 1     
   16    7   14 ar    
   17    7   21 1     
   18    8   15 1     
   19    8   22 1     
   20   10   15 1     
   21   10   23 1     
   22   12   24 1     
   23   12   25 1     
   24   12   26 1     
   25   13   16 ar    
   26   13   27 1     
   27   14   16 ar    
   28   14   28 1     
   29   15   17 2     
   30   16   29 1     
@<TRIPOS>SUBSTRUCTURE
      1 RES1           1
@<TRIPOS>SET
DONOR_HYDROGENS      STATIC     ATOMS    <user>   **** ""
2 22 23
ATOM$RED        STATIC     ATOMS    COLORGROUP SYSTEM
2 22 23
@<TRIPOS>COMMENT
> <Gold.Version>
2022.3.0

> <Gold.Id.Protein>
unknown|7rmh_cavity_clean|pdb

> <Gold.Protein.RotatedTorsions>
[ 1581 1565 1566 1567 ] final  -88.34 input  115.26 | X-H torsion
[ 5151 5142 5141 5139 ] final  -38.94 input   59.98 | X-H torsion
[ 1669 1661 1660 1658 ] final -162.90 input   59.97 | X-H torsion
[ 5186 5181 5180 5177 ] final   47.44 input   59.99 | X-H torsion
[ 1788 1769 1770 1771 ] final  -91.26 input  122.82 | X-H torsion
[ 1883 1867 1866 1863 ] final  147.15 input   59.99 | X-H torsion
[ 1874 1868 1869 1870 ] final -153.96 input   29.02 | X-H torsion
[ 1878 1873 1872 1869 ] final  -30.11 input   60.02 | X-H torsion
[ 6490 6474 6475 6476 ] final -126.06 input  103.68 | X-H torsion
[ 4479 4458 4456 4453 ] final  -71.67 input   59.98 | X-H torsion
[ 4466 4459 4460 4461 ] final   32.38 input   43.99 | X-H torsion
[ 4472 4465 4463 4460 ] final   60.90 input   60.01 | X-H torsion
[ 4502 4497 4496 4493 ] final    3.45 input   59.97 | X-H torsion
[  675  663  664  665 ] final   51.83 input  108.58 | X-H torsion
[  692  687  686  683 ] final  -16.39 input   59.99 | X-H torsion
[  713  708  707  706 ] final  145.78 input   60.01 | X-H torsion
[ 2432 2427 2428 2429 ] final  166.17 input   99.19 | X-H torsion
[ 2461 2452 2451 2449 ] final  113.10 input   60.00 | X-H torsion
[ 2484 2473 2474 2475 ] final -171.78 input  111.54 | X-H torsion
[ 1326 1317 1316 1315 ] final  -39.96 input   60.01 | X-H torsion
[ 14725 1568 1567 1566 ] final  143.16 input    0.00 | X-H torsion
[ 14794 1772 1771 1770 ] final  -58.29 input    0.00 | X-H torsion
[ 14817 1871 1870 1869 ] final  119.54 input    0.00 | X-H torsion
[ 14840 6477 6476 6475 ] final   28.30 input   -0.00 | X-H torsion
[ 14855 4462 4461 4460 ] final  -36.90 input    0.00 | X-H torsion
[ 14878  666  665  664 ] final -165.01 input   -0.00 | X-H torsion
[ 14895 2430 2429 2428 ] final -109.20 input    0.00 | X-H torsion
[ 14904 2476 2475 2474 ] final  125.77 input    0.00 | X-H torsion

> <Gold.Protein.ActiveResidues>
 LEU46   GLY47   ALA48   ASP49   ASN50   SER51   LYS53   VAL224  GLY225  GLY226 
 GLN227  ARG228  ASP229  GLU230  ARG231  ARG232  LYS233  TRP234  ILE235  GLN236 
 CYS237  PHE246  VAL247  VAL248  ASP249  ASP252  TYR253  ASN264  ARG265  LEU266 
 GLN267  GLU268  ALA269  LEU270  ASN271  LEU272  LYS274  SER275  ASN278  ASN279 
 ARG280  TRP281  ASP310  TYR311  PHE312  GLU344  ARG347  ILE348  ALA351  ILE18  
 TRP63   THR65   ASP66   SER67   ARG68   LEU69   TYR105  ALA106  PRO107  SER108 
 GLY109  ASN110  CYS149  ARG150  PHE151  ASP154  ASN155  GLN156  LEU192  ALA193 
 PRO194  ASP195  THR196  ARG197  LEU198  VAL200  ILE229  ASN230  ALA231  CYS233 
 PHE235 

> <Gold.Protein.RotatedAtoms>
  124.9725  143.6307  126.5276 H   0  0  0  0  0  0  0  0  0  0  0  0  # atno 675  bound_to 663 
  152.8865  115.7838  168.3937 H   0  0  0  0  0  0  0  0  0  0  0  0  # atno 692  bound_to 687 
  153.7593  121.6962  169.0023 H   0  0  0  0  0  0  0  0  0  0  0  0  # atno 713  bound_to 708 
  154.1608  122.4940  167.6067 H   0  0  0  0  0  0  0  0  0  0  0  0  # atno 714  bound_to 708 
  152.9430  121.3703  167.5980 H   0  0  0  0  0  0  0  0  0  0  0  0  # atno 715  bound_to 708 
  139.7493  135.7072  173.5452 H   0  0  0  0  0  0  0  0  0  0  0  0  # atno 1326 bound_to 1317
  140.6326  136.2172  174.8519 H   0  0  0  0  0  0  0  0  0  0  0  0  # atno 1327 bound_to 1317
  139.4104  137.1655  174.2563 H   0  0  0  0  0  0  0  0  0  0  0  0  # atno 1328 bound_to 1317
  133.9382  122.9006  131.2377 H   0  0  0  0  0  0  0  0  0  0  0  0  # atno 1581 bound_to 1565
  145.8208   99.8786  168.9987 H   0  0  0  0  0  0  0  0  0  0  0  0  # atno 1669 bound_to 1661
  137.4843  134.2217   98.7926 H   0  0  0  0  0  0  0  0  0  0  0  0  # atno 1788 bound_to 1769
  138.3872  146.7608  169.6837 H   0  0  0  0  0  0  0  0  0  0  0  0  # atno 1874 bound_to 1868
  140.6844  148.0954  169.1817 H   0  0  0  0  0  0  0  0  0  0  0  0  # atno 1878 bound_to 1873
  140.4116  123.6272  169.4734 H   0  0  0  0  0  0  0  0  0  0  0  0  # atno 1883 bound_to 1867
  126.8217  131.0508  139.8915 H   0  0  0  0  0  0  0  0  0  0  0  0  # atno 2432 bound_to 2427
  144.4172  101.1455  177.1549 H   0  0  0  0  0  0  0  0  0  0  0  0  # atno 2461 bound_to 2452
  127.7173  136.4388  139.2620 H   0  0  0  0  0  0  0  0  0  0  0  0  # atno 2484 bound_to 2473
  138.0014  143.5958  138.9005 H   0  0  0  0  0  0  0  0  0  0  0  0  # atno 4466 bound_to 4459
  137.2555  142.0676  141.3070 H   0  0  0  0  0  0  0  0  0  0  0  0  # atno 4472 bound_to 4465
  151.7506  163.0484  172.0194 H   0  0  0  0  0  0  0  0  0  0  0  0  # atno 4479 bound_to 4458
  147.1092  165.3902  167.5795 H   0  0  0  0  0  0  0  0  0  0  0  0  # atno 4502 bound_to 4497
  157.1873  161.3814  165.5027 H   0  0  0  0  0  0  0  0  0  0  0  0  # atno 5151 bound_to 5142
  158.8476  163.7775  174.3325 H   0  0  0  0  0  0  0  0  0  0  0  0  # atno 5186 bound_to 5181
  146.2930  139.0512  106.7532 H   0  0  0  0  0  0  0  0  0  0  0  0  # atno 6490 bound_to 6474
  133.2432  121.3774  131.7399 LP  0  0  0  0  0  0  0  0  0  0  0  0  # atno 14724 bound_to 1565
  133.2270  121.2953  126.7659 LP  0  0  0  0  0  0  0  0  0  0  0  0  # atno 14725 bound_to 1568
  134.4087  122.3680  127.4391 LP  0  0  0  0  0  0  0  0  0  0  0  0  # atno 14726 bound_to 1568
  156.2041  162.4223  166.2756 LP  0  0  0  0  0  0  0  0  0  0  0  0  # atno 14737 bound_to 5142
  155.7849  161.8323  164.8117 LP  0  0  0  0  0  0  0  0  0  0  0  0  # atno 14738 bound_to 5142
  146.7802  101.0028  168.3181 LP  0  0  0  0  0  0  0  0  0  0  0  0  # atno 14749 bound_to 1661
  145.2741  100.7515  167.7391 LP  0  0  0  0  0  0  0  0  0  0  0  0  # atno 14750 bound_to 1661
  159.5343  165.1738  173.8559 LP  0  0  0  0  0  0  0  0  0  0  0  0  # atno 14757 bound_to 5181
  160.4663  163.9384  174.3774 LP  0  0  0  0  0  0  0  0  0  0  0  0  # atno 14758 bound_to 5181
  136.1944  135.3904   98.9675 LP  0  0  0  0  0  0  0  0  0  0  0  0  # atno 14793 bound_to 1769
  137.7191  133.6175   95.1116 LP  0  0  0  0  0  0  0  0  0  0  0  0  # atno 14794 bound_to 1772
  136.4938  134.2673   94.0742 LP  0  0  0  0  0  0  0  0  0  0  0  0  # atno 14795 bound_to 1772
  140.1300  123.1571  167.9410 LP  0  0  0  0  0  0  0  0  0  0  0  0  # atno 14814 bound_to 1867
  139.9286  122.1027  169.1716 LP  0  0  0  0  0  0  0  0  0  0  0  0  # atno 14815 bound_to 1867
  136.9032  147.6626  169.4804 LP  0  0  0  0  0  0  0  0  0  0  0  0  # atno 14816 bound_to 1868
  135.6608  149.7216  170.9291 LP  0  0  0  0  0  0  0  0  0  0  0  0  # atno 14817 bound_to 1871
  136.2244  150.1077  169.3374 LP  0  0  0  0  0  0  0  0  0  0  0  0  # atno 14818 bound_to 1871
  141.0577  149.1937  168.0406 LP  0  0  0  0  0  0  0  0  0  0  0  0  # atno 14819 bound_to 1873
  139.9520  148.0329  167.7300 LP  0  0  0  0  0  0  0  0  0  0  0  0  # atno 14820 bound_to 1873
  145.0006  138.5006  105.7264 LP  0  0  0  0  0  0  0  0  0  0  0  0  # atno 14839 bound_to 6474
  142.8393  138.4466  109.6598 LP  0  0  0  0  0  0  0  0  0  0  0  0  # atno 14840 bound_to 6477
  142.8815  136.7408  109.3625 LP  0  0  0  0  0  0  0  0  0  0  0  0  # atno 14841 bound_to 6477
  153.3520  163.2700  171.8348 LP  0  0  0  0  0  0  0  0  0  0  0  0  # atno 14852 bound_to 4458
  152.5138  162.3971  170.7384 LP  0  0  0  0  0  0  0  0  0  0  0  0  # atno 14853 bound_to 4458
  137.9330  144.1704  140.5539 LP  0  0  0  0  0  0  0  0  0  0  0  0  # atno 14854 bound_to 4459
  138.9388  142.7089  137.5870 LP  0  0  0  0  0  0  0  0  0  0  0  0  # atno 14855 bound_to 4462
  140.4288  143.4625  137.1265 LP  0  0  0  0  0  0  0  0  0  0  0  0  # atno 14856 bound_to 4462
  138.4337  142.0571  142.4295 LP  0  0  0  0  0  0  0  0  0  0  0  0  # atno 14857 bound_to 4465
  137.7086  140.6616  141.9897 LP  0  0  0  0  0  0  0  0  0  0  0  0  # atno 14858 bound_to 4465
  145.5333  165.6668  167.2820 LP  0  0  0  0  0  0  0  0  0  0  0  0  # atno 14869 bound_to 4497
  146.5449  166.9167  167.5670 LP  0  0  0  0  0  0  0  0  0  0  0  0  # atno 14870 bound_to 4497
  125.4635  142.0105  126.9489 LP  0  0  0  0  0  0  0  0  0  0  0  0  # atno 14877 bound_to 663 
  127.9419  145.3291  129.5654 LP  0  0  0  0  0  0  0  0  0  0  0  0  # atno 14878 bound_to 666 
  128.7917  144.0399  128.7806 LP  0  0  0  0  0  0  0  0  0  0  0  0  # atno 14879 bound_to 666 
  151.4194  116.0783  167.7554 LP  0  0  0  0  0  0  0  0  0  0  0  0  # atno 14882 bound_to 687 
  152.7613  116.2568  166.8422 LP  0  0  0  0  0  0  0  0  0  0  0  0  # atno 14883 bound_to 687 
  127.2929  132.7018  139.5621 LP  0  0  0  0  0  0  0  0  0  0  0  0  # atno 14894 bound_to 2427
  124.2239  135.3238  140.3906 LP  0  0  0  0  0  0  0  0  0  0  0  0  # atno 14895 bound_to 2430
  123.8844  134.5170  141.8851 LP  0  0  0  0  0  0  0  0  0  0  0  0  # atno 14896 bound_to 2430
  144.7551  102.6379  177.7078 LP  0  0  0  0  0  0  0  0  0  0  0  0  # atno 14899 bound_to 2452
  145.3468  102.1439  176.2682 LP  0  0  0  0  0  0  0  0  0  0  0  0  # atno 14900 bound_to 2452
  126.1349  135.7527  139.5327 LP  0  0  0  0  0  0  0  0  0  0  0  0  # atno 14903 bound_to 2473
  123.4853  137.5338  136.3437 LP  0  0  0  0  0  0  0  0  0  0  0  0  # atno 14904 bound_to 2476
  124.1681  138.6736  137.4549 LP  0  0  0  0  0  0  0  0  0  0  0  0  # atno 14905 bound_to 2476

> <Gold.Score>
     Fitness  S(hb_ext) S(vdw_ext)  S(hb_int)    S(int)      intcor
     32.86       2.02      22.48       0.00      -0.06      -0.76

> <Gold.Goldscore.Fitness>
32.8619

> <Gold.Goldscore.Internal.Vdw>
-0.4418

> <Gold.Goldscore.Internal.Torsion>
-0.3731

> <Gold.Goldscore.External.Vdw>
22.4751

> <Gold.Goldscore.Internal.HBond>
0.0000

> <Gold.Goldscore.External.HBond>
2.0151

> <Gold.Goldscore.Internal.Correction>
-0.7585

> <Gold.Goldscore.Hbonds>
donor molecule, donor type, donor heavy atom, donor atom, acceptor molecule, acceptor atom, score
      P1  H  1873  1878       L1    17  0.76
      L1  H     8    22       P1  6894  0.24

> <Gold.Goldscore.Internal.Vdw.Weighted>
-0.4418

> <Gold.Goldscore.Internal.Torsion.Weighted>
-0.3731

> <Gold.Goldscore.External.Vdw.Weighted>
30.9033

> <Gold.Goldscore.Internal.HBond.Weighted>
0.0000

> <Gold.Goldscore.External.HBond.Weighted>
2.0151

> <Gold.Goldscore.Internal.Correction.Weighted>
-0.7585

> <Gold.Rescore>
     Score     S(PLP)   S(hbond)     S(cho)   S(metal)  DE(clash)   DE(tors)     intcor
     29.72     -24.73       1.68       0.00       0.00       0.00       0.02       ----

> <Gold.PLP.Fitness>
29.7244

> <Gold.PLP.PLP>
-24.7315

> <Gold.PLP.part.hbond>
-4.1884

> <Gold.PLP.part.metal>
0.0000

> <Gold.PLP.part.buried>
-0.6681

> <Gold.PLP.part.nonpolar>
-26.2591

> <Gold.PLP.part.repulsive>
5.6139

> <Gold.PLP.ligand.clash>
0.0000

> <Gold.PLP.ligand.torsion>
0.0175

> <Gold.PLP.Chemscore.Hbond>
1.6760

> <Gold.PLP.Chemscore.CHOScore>
0.0000

> <Gold.PLP.Chemscore.Metal>
0.0000

> <Gold.Chemscore.Hbonds>
donor molecule, donor type, donor heavy atom, donor atom, acceptor molecule, acceptor atom, score
      L1  H     8    22       P1  6894  0.93

> <Gold.PLP.Chemscore.Internal.Correction>
   9.000000E+99

