#       Name:                example_1
#       Creating user name   hitesit
#       Creation time:       Mon Nov  6 23:30:33 2023


#       File generated by GOLD software.
#

@<TRIPOS>MOLECULE
example_1|example_1_prep|mol2|1|dock4
    55    58     1
SMALL
NO_CHARGES


@<TRIPOS>ATOM
      1 O1          20.2871 -29.4410  48.5512 O.3            1 RES1               0.0000
      2 C2          20.8164 -29.9273  47.3819 C.ar           1 RES1               0.0000
      3 C3          20.9992 -29.6883  49.7606 C.3            1 RES1               0.0000
      4 C4          19.8945 -30.2567  46.3771 C.ar           1 RES1               0.0000
      5 C5          22.1838 -30.1007  47.1425 C.ar           1 RES1               0.0000
      6 C6          20.0651 -29.3964  50.9212 C.3            1 RES1               0.0000
      7 O7          18.5722 -30.0518  46.6759 O.3            1 RES1               0.0000
      8 C8          20.3660 -30.7617  45.1638 C.ar           1 RES1               0.0000
      9 C9          22.6645 -30.5984  45.9383 C.ar           1 RES1               0.0000
     10 C10         17.6237 -30.1988  45.6293 C.3            1 RES1               0.0000
     11 C11         21.7546 -30.9473  44.9349 C.ar           1 RES1               0.0000
     12 N12         23.9858 -30.7177  45.7903 N.ar           1 RES1               0.0000
     13 C13         22.3213 -31.4571  43.7513 C.ar           1 RES1               0.0000
     14 C14         24.4324 -31.1889  44.6181 C.ar           1 RES1               0.0000
     15 N15         23.6521 -31.5479  43.5895 N.ar           1 RES1               0.0000
     16 N16         21.5014 -31.8404  42.6929 N.pl3          1 RES1               0.0000
     17 C17         25.9135 -31.2793  44.4266 C.3            1 RES1               0.0000
     18 C18         21.8827 -32.9281  41.8028 C.3            1 RES1               0.0000
     19 C19         21.3510 -34.2370  42.3709 C.ar           1 RES1               0.0000
     20 C20         21.3575 -32.6048  40.3993 C.3            1 RES1               0.0000
     21 C21         22.1763 -35.1786  43.0156 C.ar           1 RES1               0.0000
     22 C22         19.9945 -34.5473  42.2020 C.ar           1 RES1               0.0000
     23 C23         21.6698 -36.3932  43.5117 C.ar           1 RES1               0.0000
     24 C24         19.4742 -35.7454  42.6833 C.ar           1 RES1               0.0000
     25 C25         22.5369 -37.3630  44.1846 C.2            1 RES1               0.0000
     26 C26         20.3049 -36.6582  43.3348 C.ar           1 RES1               0.0000
     27 C27         22.2310 -38.4161  44.9461 C.2            1 RES1               0.0000
     28 C28         24.0247 -37.3649  44.1385 C.3            1 RES1               0.0000
     29 N29         23.3293 -39.0929  45.4016 N.2            1 RES1               0.0000
     30 N30         24.3808 -38.5403  44.9763 N.2            1 RES1               0.0000
     31 H1          21.3186 -30.7289  49.7955 H              1 RES1               0.0000
     32 H2          21.8715 -29.0388  49.8155 H              1 RES1               0.0000
     33 H3          22.8936 -29.8372  47.9251 H              1 RES1               0.0000
     34 H4          20.5855 -29.5777  51.8604 H              1 RES1               0.0000
     35 H5          19.1934 -30.0461  50.8578 H              1 RES1               0.0000
     36 H6          19.7464 -28.3560  50.8778 H              1 RES1               0.0000
     37 H7          19.6558 -31.0176  44.3789 H              1 RES1               0.0000
     38 H8          16.6239 -30.0065  46.0158 H              1 RES1               0.0000
     39 H9          17.6718 -31.2130  45.2357 H              1 RES1               0.0000
     40 H10         17.8480 -29.4897  44.8339 H              1 RES1               0.0000
     41 H11         20.6240 -31.3538  42.5395 H              1 RES1               0.0000
     42 H12         26.1278 -31.6762  43.4354 H              1 RES1               0.0000
     43 H13         26.3374 -31.9398  45.1816 H              1 RES1               0.0000
     44 H14         26.3533 -30.2879  44.5235 H              1 RES1               0.0000
     45 H15         22.9697 -32.9814  41.7640 H              1 RES1               0.0000
     46 H16         21.7798 -31.6592  40.0625 H              1 RES1               0.0000
     47 H17         20.2715 -32.5279  40.4269 H              1 RES1               0.0000
     48 H18         21.6479 -33.3975  39.7115 H              1 RES1               0.0000
     49 H19         23.2367 -34.9601  43.1333 H              1 RES1               0.0000
     50 H20         19.3407 -33.8436  41.6889 H              1 RES1               0.0000
     51 H21         18.4170 -35.9709  42.5512 H              1 RES1               0.0000
     52 H22         19.8864 -37.5904  43.7115 H              1 RES1               0.0000
     53 H23         21.2084 -38.7074  45.1814 H              1 RES1               0.0000
     54 H24         24.4310 -36.4463  44.5593 H              1 RES1               0.0000
     55 H25         24.3850 -37.4873  43.1182 H              1 RES1               0.0000
@<TRIPOS>BOND
    1    1    2 1     
    2    1    3 1     
    3    2    4 ar    
    4    2    5 ar    
    5    3    6 1     
    6    4    7 1     
    7    4    8 ar    
    8    5    9 ar    
    9    7   10 1     
   10    8   11 ar    
   11    9   12 ar    
   12   11   13 ar    
   13   12   14 ar    
   14   13   15 ar    
   15   13   16 1     
   16   14   17 1     
   17   16   18 1     
   18   18   19 1     
   19   18   20 1     
   20   19   21 ar    
   21   19   22 ar    
   22   21   23 ar    
   23   22   24 ar    
   24   23   25 1     
   25   23   26 ar    
   26   25   27 2     
   27   25   28 1     
   28   27   29 1     
   29   28   30 1     
   30    9   11 ar    
   31   14   15 ar    
   32   24   26 ar    
   33   29   30 2     
   34    3   31 1     
   35    3   32 1     
   36    5   33 1     
   37    6   34 1     
   38    6   35 1     
   39    6   36 1     
   40    8   37 1     
   41   10   38 1     
   42   10   39 1     
   43   10   40 1     
   44   16   41 1     
   45   17   42 1     
   46   17   43 1     
   47   17   44 1     
   48   18   45 1     
   49   20   46 1     
   50   20   47 1     
   51   20   48 1     
   52   21   49 1     
   53   22   50 1     
   54   24   51 1     
   55   26   52 1     
   56   27   53 1     
   57   28   54 1     
   58   28   55 1     
@<TRIPOS>SUBSTRUCTURE
      1 RES1           1
@<TRIPOS>SET
DONOR_HYDROGENS      STATIC     ATOMS    <user>   **** ""
1 41
ATOM$RED        STATIC     ATOMS    COLORGROUP SYSTEM
1 41
@<TRIPOS>COMMENT
> <Gold.Version>
2022.3.0

> <Gold.Id.Protein>
unknown|5ovf_clean|pdb

> <Gold.Protein.ActiveResidues>
 ILE839  VAL852  ILE856  LEU859  VAL871  LEU872  GLU873  VAL874  VAL875  SER876 
 ALA877  MET878  ASN879  SER880  SER881  PRO882  VAL883  TYR884  ARG885  LEU886 
 ASP887  HIS888  THR889  PHE890  GLU891  GLN892  ILE893  PRO894  SER895  ARG896 
 GLN897  LYS898  LYS899  ILE900  LEU901  GLU902  GLU903  ALA904  HIS905  GLU906 
 LEU907  SER908  GLU909  LYS914  GLU836  ILE839  VAL852  ILE855  ILE856  LEU859 
 GLN863  VAL871  LEU872  VAL874  VAL875  SER876  ALA877  MET878  ASN879  SER880 
 SER881  PRO882  VAL883  TYR884  ARG885  LEU886  ASP887  HIS888  THR889  PHE890 
 GLU891  GLN892  ILE893  PRO894  SER895  ARG896  GLN897  LYS898  LYS899  ILE900 
 LEU901  GLU902  GLU903  ALA904  HIS905  GLU906  LEU907  SER908  GLU909  ASP910 
 LYS914 

> <Gold.Score>
     Fitness  S(hb_ext) S(vdw_ext)  S(hb_int)    S(int)     S(con)      intcor
     77.71       0.71      59.76       0.00      -5.18      -0.00      -8.46

> <Gold.Goldscore.Fitness>
77.7071

> <Gold.Goldscore.Internal.Vdw>
-8.6027

> <Gold.Goldscore.Internal.Torsion>
-5.0369

> <Gold.Goldscore.External.Vdw>
59.7604

> <Gold.Goldscore.Internal.HBond>
0.0000

> <Gold.Goldscore.External.HBond>
0.7147

> <Gold.Goldscore.Internal.Correction>
-8.4614

> <Gold.Goldscore.Constraint.Score>
-0.0000

> <Gold.Goldscore.Reference.RMSD>
0.7896

> <Gold.Goldscore.Hbonds>
donor molecule, donor type, donor heavy atom, donor atom, acceptor molecule, acceptor atom, score
      L1  H    16    41       P1  2553  0.36

> <Gold.Goldscore.Internal.Vdw.Weighted>
-8.6027

> <Gold.Goldscore.Internal.Torsion.Weighted>
-5.0369

> <Gold.Goldscore.External.Vdw.Weighted>
82.1706

> <Gold.Goldscore.Internal.HBond.Weighted>
0.0000

> <Gold.Goldscore.External.HBond.Weighted>
0.7147

> <Gold.Goldscore.Internal.Correction.Weighted>
-8.4614

> <Gold.Rescore>
     Score         DG    S(hbond)    S(metal)    S(lipo)     H(rot)  DE(clash)    DE(int)    DE(con)     intcor
     32.74     -34.98       0.92        0.00     261.65       1.63       0.47       1.76       0.00       ----

> <Gold.Chemscore.Fitness>
32.7423

> <Gold.Chemscore.DG>
-34.9797

> <Gold.Chemscore.ZeroCoef>
-5.4800

> <Gold.Chemscore.Hbond>
0.9154

> <Gold.Chemscore.Metal>
0.0000

> <Gold.Chemscore.Lipo>
261.6548

> <Gold.Chemscore.Internal_Hbond>
0.0000

> <Gold.Chemscore.DEClash>
0.4730

> <Gold.Chemscore.DEInternal>
1.7644

> <Gold.Chemscore.Rot>
1.6294

> <Gold.Chemscore.Internal.Correction>
   9.000000E+99

> <Gold.Chemscore.Constraint>
0.0000

> <Gold.Chemscore.Reference.RMSD>
0.0000

> <Gold.Chemscore.Hbonds>
donor molecule, donor type, donor heavy atom, donor atom, acceptor molecule, acceptor atom, score
      L1  H    16    41       P1  2553  0.76

> <Gold.Chemscore.Hbond.Weighted>
-3.0574

> <Gold.Chemscore.Metal.Weighted>
-0.0000

> <Gold.Chemscore.Lipo.Weighted>
-30.6136

> <Gold.Chemscore.Internal_Hbond.Weighted>
0.0000

> <Gold.Chemscore.DEClash.Weighted>
0.4730

> <Gold.Chemscore.DEInternal.Weighted>
1.7644

> <Gold.Chemscore.Rot.Weighted>
4.1713

> <Gold.Chemscore.Internal.Correction.Weighted>
   9.000000E+99

> <Gold.Reference.RMSD>
0.7896

