#       Name:                example_1
#       Creating user name   hitesit
#       Creation time:       Mon Nov  6 23:30:51 2023


#       File generated by GOLD software.
#

@<TRIPOS>MOLECULE
example_1|example_1_prep|mol2|1|dock7
    55    58     1
SMALL
NO_CHARGES


@<TRIPOS>ATOM
      1 O1          20.1740 -29.4679  48.5803 O.3            1 RES1               0.0000
      2 C2          20.7111 -29.9589  47.4166 C.ar           1 RES1               0.0000
      3 C3          20.9159 -29.6427  49.7844 C.3            1 RES1               0.0000
      4 C4          19.7950 -30.3088  46.4134 C.ar           1 RES1               0.0000
      5 C5          22.0809 -30.1181  47.1811 C.ar           1 RES1               0.0000
      6 C6          19.9766 -29.3986  50.9519 C.3            1 RES1               0.0000
      7 O7          18.4698 -30.1170  46.7080 O.3            1 RES1               0.0000
      8 C8          20.2746 -30.8195  45.2057 C.ar           1 RES1               0.0000
      9 C9          22.5697 -30.6213  45.9824 C.ar           1 RES1               0.0000
     10 C10         17.5234 -30.3024  45.6657 C.3            1 RES1               0.0000
     11 C11         21.6657 -30.9907  44.9809 C.ar           1 RES1               0.0000
     12 N12         23.8926 -30.7261  45.8377 N.ar           1 RES1               0.0000
     13 C13         22.2407 -31.5048  43.8031 C.ar           1 RES1               0.0000
     14 C14         24.3469 -31.2030  44.6707 C.ar           1 RES1               0.0000
     15 N15         23.5727 -31.5811  43.6444 N.ar           1 RES1               0.0000
     16 N16         21.4273 -31.9079  42.7471 N.pl3          1 RES1               0.0000
     17 C17         25.8292 -31.2774  44.4826 C.3            1 RES1               0.0000
     18 C18         21.8482 -32.9615  41.8341 C.3            1 RES1               0.0000
     19 C19         21.3556 -34.2998  42.3681 C.ar           1 RES1               0.0000
     20 C20         21.3208 -32.6222  40.4353 C.3            1 RES1               0.0000
     21 C21         22.1999 -35.2143  43.0273 C.ar           1 RES1               0.0000
     22 C22         20.0200 -34.6654  42.1513 C.ar           1 RES1               0.0000
     23 C23         21.7307 -36.4562  43.4913 C.ar           1 RES1               0.0000
     24 C24         19.5367 -35.8913  42.6002 C.ar           1 RES1               0.0000
     25 C25         22.6169 -37.3975  44.1798 C.2            1 RES1               0.0000
     26 C26         20.3848 -36.7768  43.2668 C.ar           1 RES1               0.0000
     27 C27         22.3319 -38.4512  44.9483 C.2            1 RES1               0.0000
     28 C28         24.1045 -37.3615  44.1454 C.3            1 RES1               0.0000
     29 N29         23.4435 -39.0956  45.4186 N.2            1 RES1               0.0000
     30 N30         24.4839 -38.5199  44.9965 N.2            1 RES1               0.0000
     31 H1          21.3096 -30.6569  49.8322 H              1 RES1               0.0000
     32 H2          21.7398 -28.9315  49.8176 H              1 RES1               0.0000
     33 H3          22.7862 -29.8386  47.9622 H              1 RES1               0.0000
     34 H4          20.5195 -29.5260  51.8872 H              1 RES1               0.0000
     35 H5          19.1532 -30.1101  50.9102 H              1 RES1               0.0000
     36 H6          19.5835 -28.3845  50.8956 H              1 RES1               0.0000
     37 H7          19.5689 -31.0915  44.4222 H              1 RES1               0.0000
     38 H8          16.5210 -30.1163  46.0482 H              1 RES1               0.0000
     39 H9          17.5868 -31.3246  45.2955 H              1 RES1               0.0000
     40 H10         17.7369 -29.6086  44.8539 H              1 RES1               0.0000
     41 H11         20.5265 -31.4602  42.6115 H              1 RES1               0.0000
     42 H12         26.0500 -31.6811  43.4955 H              1 RES1               0.0000
     43 H13         26.2597 -31.9256  45.2444 H              1 RES1               0.0000
     44 H14         26.2569 -30.2799  44.5707 H              1 RES1               0.0000
     45 H15         22.9366 -32.9792  41.8010 H              1 RES1               0.0000
     46 H16         21.7144 -31.6559  40.1234 H              1 RES1               0.0000
     47 H17         20.2328 -32.5807  40.4578 H              1 RES1               0.0000
     48 H18         21.6403 -33.3887  39.7310 H              1 RES1               0.0000
     49 H19         23.2455 -34.9523  43.1822 H              1 RES1               0.0000
     50 H20         19.3531 -33.9832  41.6260 H              1 RES1               0.0000
     51 H21         18.4950 -36.1599  42.4309 H              1 RES1               0.0000
     52 H22         19.9951 -37.7312  43.6178 H              1 RES1               0.0000
     53 H23         21.3152 -38.7667  45.1782 H              1 RES1               0.0000
     54 H24         24.4837 -36.4290  44.5610 H              1 RES1               0.0000
     55 H25         24.4761 -37.4836  43.1290 H              1 RES1               0.0000
@<TRIPOS>BOND
    1    1    2 1     
    2    1    3 1     
    3    2    4 ar    
    4    2    5 ar    
    5    3    6 1     
    6    4    7 1     
    7    4    8 ar    
    8    5    9 ar    
    9    7   10 1     
   10    8   11 ar    
   11    9   12 ar    
   12   11   13 ar    
   13   12   14 ar    
   14   13   15 ar    
   15   13   16 1     
   16   14   17 1     
   17   16   18 1     
   18   18   19 1     
   19   18   20 1     
   20   19   21 ar    
   21   19   22 ar    
   22   21   23 ar    
   23   22   24 ar    
   24   23   25 1     
   25   23   26 ar    
   26   25   27 2     
   27   25   28 1     
   28   27   29 1     
   29   28   30 1     
   30    9   11 ar    
   31   14   15 ar    
   32   24   26 ar    
   33   29   30 2     
   34    3   31 1     
   35    3   32 1     
   36    5   33 1     
   37    6   34 1     
   38    6   35 1     
   39    6   36 1     
   40    8   37 1     
   41   10   38 1     
   42   10   39 1     
   43   10   40 1     
   44   16   41 1     
   45   17   42 1     
   46   17   43 1     
   47   17   44 1     
   48   18   45 1     
   49   20   46 1     
   50   20   47 1     
   51   20   48 1     
   52   21   49 1     
   53   22   50 1     
   54   24   51 1     
   55   26   52 1     
   56   27   53 1     
   57   28   54 1     
   58   28   55 1     
@<TRIPOS>SUBSTRUCTURE
      1 RES1           1
@<TRIPOS>SET
DONOR_HYDROGENS      STATIC     ATOMS    <user>   **** ""
1 41
ATOM$RED        STATIC     ATOMS    COLORGROUP SYSTEM
1 41
@<TRIPOS>COMMENT
> <Gold.Version>
2022.3.0

> <Gold.Id.Protein>
unknown|5ovf_clean|pdb

> <Gold.Protein.ActiveResidues>
 ILE839  VAL852  ILE856  LEU859  VAL871  LEU872  GLU873  VAL874  VAL875  SER876 
 ALA877  MET878  ASN879  SER880  SER881  PRO882  VAL883  TYR884  ARG885  LEU886 
 ASP887  HIS888  THR889  PHE890  GLU891  GLN892  ILE893  PRO894  SER895  ARG896 
 GLN897  LYS898  LYS899  ILE900  LEU901  GLU902  GLU903  ALA904  HIS905  GLU906 
 LEU907  SER908  GLU909  LYS914  GLU836  ILE839  VAL852  ILE855  ILE856  LEU859 
 GLN863  VAL871  LEU872  VAL874  VAL875  SER876  ALA877  MET878  ASN879  SER880 
 SER881  PRO882  VAL883  TYR884  ARG885  LEU886  ASP887  HIS888  THR889  PHE890 
 GLU891  GLN892  ILE893  PRO894  SER895  ARG896  GLN897  LYS898  LYS899  ILE900 
 LEU901  GLU902  GLU903  ALA904  HIS905  GLU906  LEU907  SER908  GLU909  ASP910 
 LYS914 

> <Gold.Score>
     Fitness  S(hb_ext) S(vdw_ext)  S(hb_int)    S(int)     S(con)      intcor
     77.11       1.15      59.64       0.00      -6.03      -0.00      -8.46

> <Gold.Goldscore.Fitness>
77.1118

> <Gold.Goldscore.Internal.Vdw>
-9.6046

> <Gold.Goldscore.Internal.Torsion>
-4.8900

> <Gold.Goldscore.External.Vdw>
59.6353

> <Gold.Goldscore.Internal.HBond>
0.0000

> <Gold.Goldscore.External.HBond>
1.1465

> <Gold.Goldscore.Internal.Correction>
-8.4614

> <Gold.Goldscore.Constraint.Score>
-0.0000

> <Gold.Goldscore.Reference.RMSD>
0.8102

> <Gold.Goldscore.Hbonds>
donor molecule, donor type, donor heavy atom, donor atom, acceptor molecule, acceptor atom, score
      L1  H    16    41       P1  2553  0.57

> <Gold.Goldscore.Internal.Vdw.Weighted>
-9.6046

> <Gold.Goldscore.Internal.Torsion.Weighted>
-4.8900

> <Gold.Goldscore.External.Vdw.Weighted>
81.9985

> <Gold.Goldscore.Internal.HBond.Weighted>
0.0000

> <Gold.Goldscore.External.HBond.Weighted>
1.1465

> <Gold.Goldscore.Internal.Correction.Weighted>
-8.4614

> <Gold.Rescore>
     Score         DG    S(hbond)    S(metal)    S(lipo)     H(rot)  DE(clash)    DE(int)    DE(con)     intcor
     32.85     -35.32       0.98        0.00     262.87       1.63       1.04       1.44       0.00       ----

> <Gold.Chemscore.Fitness>
32.8483

> <Gold.Chemscore.DG>
-35.3248

> <Gold.Chemscore.ZeroCoef>
-5.4800

> <Gold.Chemscore.Hbond>
0.9762

> <Gold.Chemscore.Metal>
0.0000

> <Gold.Chemscore.Lipo>
262.8682

> <Gold.Chemscore.Internal_Hbond>
0.0000

> <Gold.Chemscore.DEClash>
1.0397

> <Gold.Chemscore.DEInternal>
1.4368

> <Gold.Chemscore.Rot>
1.6294

> <Gold.Chemscore.Internal.Correction>
   9.000000E+99

> <Gold.Chemscore.Constraint>
0.0000

> <Gold.Chemscore.Reference.RMSD>
0.0000

> <Gold.Chemscore.Hbonds>
donor molecule, donor type, donor heavy atom, donor atom, acceptor molecule, acceptor atom, score
      L1  H    16    41       P1  2553  0.91

> <Gold.Chemscore.Hbond.Weighted>
-3.2605

> <Gold.Chemscore.Metal.Weighted>
-0.0000

> <Gold.Chemscore.Lipo.Weighted>
-30.7556

> <Gold.Chemscore.Internal_Hbond.Weighted>
0.0000

> <Gold.Chemscore.DEClash.Weighted>
1.0397

> <Gold.Chemscore.DEInternal.Weighted>
1.4368

> <Gold.Chemscore.Rot.Weighted>
4.1713

> <Gold.Chemscore.Internal.Correction.Weighted>
   9.000000E+99

> <Gold.Reference.RMSD>
0.8102

