#       Name:                example_1
#       Creating user name   hitesit
#       Creation time:       Mon Nov  6 23:30:57 2023


#       File generated by GOLD software.
#

@<TRIPOS>MOLECULE
example_1|example_1_prep|mol2|1|dock8
    55    58     1
SMALL
NO_CHARGES


@<TRIPOS>ATOM
      1 O1          20.1429 -29.6381  48.6028 O.3            1 RES1               0.0000
      2 C2          20.6923 -30.0746  47.4232 C.ar           1 RES1               0.0000
      3 C3          20.9227 -29.7620  49.7891 C.3            1 RES1               0.0000
      4 C4          19.7887 -30.3501  46.3861 C.ar           1 RES1               0.0000
      5 C5          22.0630 -30.2478  47.2034 C.ar           1 RES1               0.0000
      6 C6          20.0063 -29.5309  50.9772 C.3            1 RES1               0.0000
      7 O7          18.4621 -30.1484  46.6675 O.3            1 RES1               0.0000
      8 C8          20.2811 -30.8027  45.1605 C.ar           1 RES1               0.0000
      9 C9          22.5646 -30.6936  45.9874 C.ar           1 RES1               0.0000
     10 C10         17.5294 -30.2818  45.6051 C.3            1 RES1               0.0000
     11 C11         21.6727 -30.9889  44.9511 C.ar           1 RES1               0.0000
     12 N12         23.8877 -30.8167  45.8604 N.ar           1 RES1               0.0000
     13 C13         22.2597 -31.4484  43.7568 C.ar           1 RES1               0.0000
     14 C14         24.3547 -31.2372  44.6769 C.ar           1 RES1               0.0000
     15 N15         23.5928 -31.5424  43.6176 N.ar           1 RES1               0.0000
     16 N16         21.4588 -31.7761  42.6658 N.pl3          1 RES1               0.0000
     17 C17         25.8386 -31.3307  44.5111 C.3            1 RES1               0.0000
     18 C18         21.8041 -32.8839  41.7858 C.3            1 RES1               0.0000
     19 C19         21.2297 -34.1694  42.3659 C.ar           1 RES1               0.0000
     20 C20         21.2899 -32.5566  40.3792 C.3            1 RES1               0.0000
     21 C21         22.0268 -35.1415  43.0007 C.ar           1 RES1               0.0000
     22 C22         19.8596 -34.4260  42.2186 C.ar           1 RES1               0.0000
     23 C23         21.4802 -36.3338  43.5081 C.ar           1 RES1               0.0000
     24 C24         19.2995 -35.6013  42.7113 C.ar           1 RES1               0.0000
     25 C25         22.3183 -37.3358  44.1706 C.2            1 RES1               0.0000
     26 C26         20.1033 -36.5448  43.3528 C.ar           1 RES1               0.0000
     27 C27         21.9815 -38.3879  44.9202 C.2            1 RES1               0.0000
     28 C28         23.8055 -37.3801  44.1252 C.3            1 RES1               0.0000
     29 N29         23.0593 -39.1012  45.3687 N.2            1 RES1               0.0000
     30 N30         24.1268 -38.5746  44.9500 N.2            1 RES1               0.0000
     31 H1          21.3558 -30.7596  49.8445 H              1 RES1               0.0000
     32 H2          21.7197 -29.0199  49.7870 H              1 RES1               0.0000
     33 H3          22.7588 -30.0262  48.0112 H              1 RES1               0.0000
     34 H4          20.5783 -29.6200  51.8996 H              1 RES1               0.0000
     35 H5          19.2096 -30.2734  50.9710 H              1 RES1               0.0000
     36 H6          19.5736 -28.5336  50.9134 H              1 RES1               0.0000
     37 H7          19.5852 -31.0167  44.3507 H              1 RES1               0.0000
     38 H8          16.5240 -30.0940  45.9789 H              1 RES1               0.0000
     39 H9          17.5832 -31.2910  45.1994 H              1 RES1               0.0000
     40 H10         17.7658 -29.5628  44.8221 H              1 RES1               0.0000
     41 H11         20.6208 -31.2341  42.4808 H              1 RES1               0.0000
     42 H12         26.0702 -31.6835  43.5072 H              1 RES1               0.0000
     43 H13         26.2424 -32.0286  45.2432 H              1 RES1               0.0000
     44 H14         26.2834 -30.3483  44.6622 H              1 RES1               0.0000
     45 H15         22.8888 -32.9733  41.7479 H              1 RES1               0.0000
     46 H16         21.7431 -31.6285  40.0338 H              1 RES1               0.0000
     47 H17         20.2071 -32.4438  40.4057 H              1 RES1               0.0000
     48 H18         21.5542 -33.3648  39.6989 H              1 RES1               0.0000
     49 H19         23.0967 -34.9650  43.1016 H              1 RES1               0.0000
     50 H20         19.2264 -33.6981  41.7134 H              1 RES1               0.0000
     51 H21         18.2323 -35.7849  42.5960 H              1 RES1               0.0000
     52 H22         19.6539 -37.4588  43.7386 H              1 RES1               0.0000
     53 H23         20.9507 -38.6522  45.1517 H              1 RES1               0.0000
     54 H24         24.2378 -36.4784  44.5564 H              1 RES1               0.0000
     55 H25         24.1629 -37.5016  43.1037 H              1 RES1               0.0000
@<TRIPOS>BOND
    1    1    2 1     
    2    1    3 1     
    3    2    4 ar    
    4    2    5 ar    
    5    3    6 1     
    6    4    7 1     
    7    4    8 ar    
    8    5    9 ar    
    9    7   10 1     
   10    8   11 ar    
   11    9   12 ar    
   12   11   13 ar    
   13   12   14 ar    
   14   13   15 ar    
   15   13   16 1     
   16   14   17 1     
   17   16   18 1     
   18   18   19 1     
   19   18   20 1     
   20   19   21 ar    
   21   19   22 ar    
   22   21   23 ar    
   23   22   24 ar    
   24   23   25 1     
   25   23   26 ar    
   26   25   27 2     
   27   25   28 1     
   28   27   29 1     
   29   28   30 1     
   30    9   11 ar    
   31   14   15 ar    
   32   24   26 ar    
   33   29   30 2     
   34    3   31 1     
   35    3   32 1     
   36    5   33 1     
   37    6   34 1     
   38    6   35 1     
   39    6   36 1     
   40    8   37 1     
   41   10   38 1     
   42   10   39 1     
   43   10   40 1     
   44   16   41 1     
   45   17   42 1     
   46   17   43 1     
   47   17   44 1     
   48   18   45 1     
   49   20   46 1     
   50   20   47 1     
   51   20   48 1     
   52   21   49 1     
   53   22   50 1     
   54   24   51 1     
   55   26   52 1     
   56   27   53 1     
   57   28   54 1     
   58   28   55 1     
@<TRIPOS>SUBSTRUCTURE
      1 RES1           1
@<TRIPOS>SET
DONOR_HYDROGENS      STATIC     ATOMS    <user>   **** ""
1 41
ATOM$RED        STATIC     ATOMS    COLORGROUP SYSTEM
1 41
@<TRIPOS>COMMENT
> <Gold.Version>
2022.3.0

> <Gold.Id.Protein>
unknown|5ovf_clean|pdb

> <Gold.Protein.ActiveResidues>
 ILE839  VAL852  ILE856  LEU859  VAL871  LEU872  GLU873  VAL874  VAL875  SER876 
 ALA877  MET878  ASN879  SER880  SER881  PRO882  VAL883  TYR884  ARG885  LEU886 
 ASP887  HIS888  THR889  PHE890  GLU891  GLN892  ILE893  PRO894  SER895  ARG896 
 GLN897  LYS898  LYS899  ILE900  LEU901  GLU902  GLU903  ALA904  HIS905  GLU906 
 LEU907  SER908  GLU909  LYS914  GLU836  ILE839  VAL852  ILE855  ILE856  LEU859 
 GLN863  VAL871  LEU872  VAL874  VAL875  SER876  ALA877  MET878  ASN879  SER880 
 SER881  PRO882  VAL883  TYR884  ARG885  LEU886  ASP887  HIS888  THR889  PHE890 
 GLU891  GLN892  ILE893  PRO894  SER895  ARG896  GLN897  LYS898  LYS899  ILE900 
 LEU901  GLU902  GLU903  ALA904  HIS905  GLU906  LEU907  SER908  GLU909  ASP910 
 LYS914 

> <Gold.Score>
     Fitness  S(hb_ext) S(vdw_ext)  S(hb_int)    S(int)     S(con)      intcor
     77.92       0.38      59.72       0.00      -4.58      -0.00      -8.46

> <Gold.Goldscore.Fitness>
77.9154

> <Gold.Goldscore.Internal.Vdw>
-8.0757

> <Gold.Goldscore.Internal.Torsion>
-4.9681

> <Gold.Goldscore.External.Vdw>
59.7230

> <Gold.Goldscore.Internal.HBond>
0.0000

> <Gold.Goldscore.External.HBond>
0.3786

> <Gold.Goldscore.Internal.Correction>
-8.4614

> <Gold.Goldscore.Constraint.Score>
-0.0000

> <Gold.Goldscore.Reference.RMSD>
0.8174

> <Gold.Goldscore.Hbonds>
donor molecule, donor type, donor heavy atom, donor atom, acceptor molecule, acceptor atom, score
      L1  H    16    41       P1  2553  0.19

> <Gold.Goldscore.Internal.Vdw.Weighted>
-8.0757

> <Gold.Goldscore.Internal.Torsion.Weighted>
-4.9681

> <Gold.Goldscore.External.Vdw.Weighted>
82.1191

> <Gold.Goldscore.Internal.HBond.Weighted>
0.0000

> <Gold.Goldscore.External.HBond.Weighted>
0.3786

> <Gold.Goldscore.Internal.Correction.Weighted>
-8.4614

> <Gold.Rescore>
     Score         DG    S(hbond)    S(metal)    S(lipo)     H(rot)  DE(clash)    DE(int)    DE(con)     intcor
     32.54     -34.75       0.83        0.00     262.12       1.63       0.82       1.38       0.00       ----

> <Gold.Chemscore.Fitness>
32.5414

> <Gold.Chemscore.DG>
-34.7470

> <Gold.Chemscore.ZeroCoef>
-5.4800

> <Gold.Chemscore.Hbond>
0.8294

> <Gold.Chemscore.Metal>
0.0000

> <Gold.Chemscore.Lipo>
262.1193

> <Gold.Chemscore.Internal_Hbond>
0.0000

> <Gold.Chemscore.DEClash>
0.8221

> <Gold.Chemscore.DEInternal>
1.3834

> <Gold.Chemscore.Rot>
1.6294

> <Gold.Chemscore.Internal.Correction>
   9.000000E+99

> <Gold.Chemscore.Constraint>
0.0000

> <Gold.Chemscore.Reference.RMSD>
0.0000

> <Gold.Chemscore.Hbonds>
donor molecule, donor type, donor heavy atom, donor atom, acceptor molecule, acceptor atom, score
      L1  H    16    41       P1  2553  0.53

> <Gold.Chemscore.Hbond.Weighted>
-2.7703

> <Gold.Chemscore.Metal.Weighted>
-0.0000

> <Gold.Chemscore.Lipo.Weighted>
-30.6680

> <Gold.Chemscore.Internal_Hbond.Weighted>
0.0000

> <Gold.Chemscore.DEClash.Weighted>
0.8221

> <Gold.Chemscore.DEInternal.Weighted>
1.3834

> <Gold.Chemscore.Rot.Weighted>
4.1713

> <Gold.Chemscore.Internal.Correction.Weighted>
   9.000000E+99

> <Gold.Reference.RMSD>
0.8174

