#       Name:                example_1
#       Creating user name   hitesit
#       Creation time:       Mon Nov  6 23:30:46 2023


#       File generated by GOLD software.
#

@<TRIPOS>MOLECULE
example_1|example_1_prep|mol2|1|dock6
    55    58     1
SMALL
NO_CHARGES


@<TRIPOS>ATOM
      1 O1          20.1244 -29.4686  48.5552 O.3            1 RES1               0.0000
      2 C2          20.6759 -29.9508  47.3945 C.ar           1 RES1               0.0000
      3 C3          20.8687 -29.6184  49.7611 C.3            1 RES1               0.0000
      4 C4          19.7733 -30.2770  46.3713 C.ar           1 RES1               0.0000
      5 C5          22.0476 -30.1231  47.1805 C.ar           1 RES1               0.0000
      6 C6          19.9282 -29.3649  50.9256 C.3            1 RES1               0.0000
      7 O7          18.4456 -30.0735  46.6456 O.3            1 RES1               0.0000
      8 C8          20.2679 -30.7778  45.1655 C.ar           1 RES1               0.0000
      9 C9          22.5513 -30.6166  45.9840 C.ar           1 RES1               0.0000
     10 C10         17.5116 -30.2712  45.5943 C.3            1 RES1               0.0000
     11 C11         21.6606 -30.9624  44.9624 C.ar           1 RES1               0.0000
     12 N12         23.8752 -30.7350  45.8607 N.ar           1 RES1               0.0000
     13 C13         22.2499 -31.4681  43.7880 C.ar           1 RES1               0.0000
     14 C14         24.3441 -31.2022  44.6956 C.ar           1 RES1               0.0000
     15 N15         23.5835 -31.5580  43.6512 N.ar           1 RES1               0.0000
     16 N16         21.4503 -31.8479  42.7130 N.pl3          1 RES1               0.0000
     17 C17         25.8285 -31.2916  44.5319 C.3            1 RES1               0.0000
     18 C18         21.8572 -32.9207  41.8161 C.3            1 RES1               0.0000
     19 C19         21.3382 -34.2430  42.3649 C.ar           1 RES1               0.0000
     20 C20         21.3430 -32.5905  40.4102 C.3            1 RES1               0.0000
     21 C21         22.1667 -35.1721  43.0235 C.ar           1 RES1               0.0000
     22 C22         19.9923 -34.5786  42.1630 C.ar           1 RES1               0.0000
     23 C23         21.6727 -36.3991  43.5013 C.ar           1 RES1               0.0000
     24 C24         19.4845 -35.7893  42.6257 C.ar           1 RES1               0.0000
     25 C25         22.5428 -37.3558  44.1890 C.2            1 RES1               0.0000
     26 C26         20.3177 -36.6895  43.2915 C.ar           1 RES1               0.0000
     27 C27         22.2400 -38.4053  44.9566 C.2            1 RES1               0.0000
     28 C28         24.0309 -37.3450  44.1547 C.3            1 RES1               0.0000
     29 N29         23.3405 -39.0687  45.4263 N.2            1 RES1               0.0000
     30 N30         24.3905 -38.5104  45.0048 N.2            1 RES1               0.0000
     31 H1          21.2716 -30.6282  49.8241 H              1 RES1               0.0000
     32 H2          21.6863 -28.8994  49.7828 H              1 RES1               0.0000
     33 H3          22.7425 -29.8620  47.9773 H              1 RES1               0.0000
     34 H4          20.4729 -29.4732  51.8623 H              1 RES1               0.0000
     35 H5          19.1111 -30.0843  50.8955 H              1 RES1               0.0000
     36 H6          19.5259 -28.3555  50.8542 H              1 RES1               0.0000
     37 H7          19.5728 -31.0313  44.3664 H              1 RES1               0.0000
     38 H8          16.5053 -30.0736  45.9608 H              1 RES1               0.0000
     39 H9          17.5741 -31.2997  45.2420 H              1 RES1               0.0000
     40 H10         17.7392 -29.5920  44.7741 H              1 RES1               0.0000
     41 H11         20.5698 -31.3694  42.5519 H              1 RES1               0.0000
     42 H12         26.0617 -31.6851  43.5436 H              1 RES1               0.0000
     43 H13         26.2383 -31.9546  45.2925 H              1 RES1               0.0000
     44 H14         26.2661 -30.3004  44.6404 H              1 RES1               0.0000
     45 H15         22.9452 -32.9581  41.7890 H              1 RES1               0.0000
     46 H16         21.7553 -31.6355  40.0878 H              1 RES1               0.0000
     47 H17         20.2558 -32.5295  40.4263 H              1 RES1               0.0000
     48 H18         21.6524 -33.3718  39.7177 H              1 RES1               0.0000
     49 H19         23.2196 -34.9337  43.1669 H              1 RES1               0.0000
     50 H20         19.3369 -33.8848  41.6385 H              1 RES1               0.0000
     51 H21         18.4352 -36.0344  42.4680 H              1 RES1               0.0000
     52 H22         19.9088 -37.6318  43.6534 H              1 RES1               0.0000
     53 H23         21.2181 -38.7037  45.1862 H              1 RES1               0.0000
     54 H24         24.4257 -36.4194  44.5711 H              1 RES1               0.0000
     55 H25         24.4004 -37.4725  43.1382 H              1 RES1               0.0000
@<TRIPOS>BOND
    1    1    2 1     
    2    1    3 1     
    3    2    4 ar    
    4    2    5 ar    
    5    3    6 1     
    6    4    7 1     
    7    4    8 ar    
    8    5    9 ar    
    9    7   10 1     
   10    8   11 ar    
   11    9   12 ar    
   12   11   13 ar    
   13   12   14 ar    
   14   13   15 ar    
   15   13   16 1     
   16   14   17 1     
   17   16   18 1     
   18   18   19 1     
   19   18   20 1     
   20   19   21 ar    
   21   19   22 ar    
   22   21   23 ar    
   23   22   24 ar    
   24   23   25 1     
   25   23   26 ar    
   26   25   27 2     
   27   25   28 1     
   28   27   29 1     
   29   28   30 1     
   30    9   11 ar    
   31   14   15 ar    
   32   24   26 ar    
   33   29   30 2     
   34    3   31 1     
   35    3   32 1     
   36    5   33 1     
   37    6   34 1     
   38    6   35 1     
   39    6   36 1     
   40    8   37 1     
   41   10   38 1     
   42   10   39 1     
   43   10   40 1     
   44   16   41 1     
   45   17   42 1     
   46   17   43 1     
   47   17   44 1     
   48   18   45 1     
   49   20   46 1     
   50   20   47 1     
   51   20   48 1     
   52   21   49 1     
   53   22   50 1     
   54   24   51 1     
   55   26   52 1     
   56   27   53 1     
   57   28   54 1     
   58   28   55 1     
@<TRIPOS>SUBSTRUCTURE
      1 RES1           1
@<TRIPOS>SET
DONOR_HYDROGENS      STATIC     ATOMS    <user>   **** ""
1 41
ATOM$RED        STATIC     ATOMS    COLORGROUP SYSTEM
1 41
@<TRIPOS>COMMENT
> <Gold.Version>
2022.3.0

> <Gold.Id.Protein>
unknown|5ovf_clean|pdb

> <Gold.Protein.ActiveResidues>
 ILE839  VAL852  ILE856  LEU859  VAL871  LEU872  GLU873  VAL874  VAL875  SER876 
 ALA877  MET878  ASN879  SER880  SER881  PRO882  VAL883  TYR884  ARG885  LEU886 
 ASP887  HIS888  THR889  PHE890  GLU891  GLN892  ILE893  PRO894  SER895  ARG896 
 GLN897  LYS898  LYS899  ILE900  LEU901  GLU902  GLU903  ALA904  HIS905  GLU906 
 LEU907  SER908  GLU909  LYS914  GLU836  ILE839  VAL852  ILE855  ILE856  LEU859 
 GLN863  VAL871  LEU872  VAL874  VAL875  SER876  ALA877  MET878  ASN879  SER880 
 SER881  PRO882  VAL883  TYR884  ARG885  LEU886  ASP887  HIS888  THR889  PHE890 
 GLU891  GLN892  ILE893  PRO894  SER895  ARG896  GLN897  LYS898  LYS899  ILE900 
 LEU901  GLU902  GLU903  ALA904  HIS905  GLU906  LEU907  SER908  GLU909  ASP910 
 LYS914 

> <Gold.Score>
     Fitness  S(hb_ext) S(vdw_ext)  S(hb_int)    S(int)     S(con)      intcor
     77.61       0.80      59.82       0.00      -5.44      -0.00      -8.46

> <Gold.Goldscore.Fitness>
77.6064

> <Gold.Goldscore.Internal.Vdw>
-9.0684

> <Gold.Goldscore.Internal.Torsion>
-4.8344

> <Gold.Goldscore.External.Vdw>
59.8172

> <Gold.Goldscore.Internal.HBond>
0.0000

> <Gold.Goldscore.External.HBond>
0.7991

> <Gold.Goldscore.Internal.Correction>
-8.4614

> <Gold.Goldscore.Constraint.Score>
-0.0000

> <Gold.Goldscore.Reference.RMSD>
0.7891

> <Gold.Goldscore.Hbonds>
donor molecule, donor type, donor heavy atom, donor atom, acceptor molecule, acceptor atom, score
      L1  H    16    41       P1  2553  0.40

> <Gold.Goldscore.Internal.Vdw.Weighted>
-9.0684

> <Gold.Goldscore.Internal.Torsion.Weighted>
-4.8344

> <Gold.Goldscore.External.Vdw.Weighted>
82.2487

> <Gold.Goldscore.Internal.HBond.Weighted>
0.0000

> <Gold.Goldscore.External.HBond.Weighted>
0.7991

> <Gold.Goldscore.Internal.Correction.Weighted>
-8.4614

> <Gold.Rescore>
     Score         DG    S(hbond)    S(metal)    S(lipo)     H(rot)  DE(clash)    DE(int)    DE(con)     intcor
     33.01     -35.19       0.89        0.00     264.19       1.63       0.59       1.58       0.00       ----

> <Gold.Chemscore.Fitness>
33.0124

> <Gold.Chemscore.DG>
-35.1877

> <Gold.Chemscore.ZeroCoef>
-5.4800

> <Gold.Chemscore.Hbond>
0.8887

> <Gold.Chemscore.Metal>
0.0000

> <Gold.Chemscore.Lipo>
264.1940

> <Gold.Chemscore.Internal_Hbond>
0.0000

> <Gold.Chemscore.DEClash>
0.5912

> <Gold.Chemscore.DEInternal>
1.5841

> <Gold.Chemscore.Rot>
1.6294

> <Gold.Chemscore.Internal.Correction>
   9.000000E+99

> <Gold.Chemscore.Constraint>
0.0000

> <Gold.Chemscore.Reference.RMSD>
0.0000

> <Gold.Chemscore.Hbonds>
donor molecule, donor type, donor heavy atom, donor atom, acceptor molecule, acceptor atom, score
      L1  H    16    41       P1  2553  0.80

> <Gold.Chemscore.Hbond.Weighted>
-2.9683

> <Gold.Chemscore.Metal.Weighted>
-0.0000

> <Gold.Chemscore.Lipo.Weighted>
-30.9107

> <Gold.Chemscore.Internal_Hbond.Weighted>
0.0000

> <Gold.Chemscore.DEClash.Weighted>
0.5912

> <Gold.Chemscore.DEInternal.Weighted>
1.5841

> <Gold.Chemscore.Rot.Weighted>
4.1713

> <Gold.Chemscore.Internal.Correction.Weighted>
   9.000000E+99

> <Gold.Reference.RMSD>
0.7891

