#       Name:                example_1
#       Creating user name   hitesit
#       Creation time:       Mon Nov  6 23:30:14 2023


#       File generated by GOLD software.
#

@<TRIPOS>MOLECULE
example_1|example_1_prep|mol2|1|dock1
    55    58     1
SMALL
NO_CHARGES


@<TRIPOS>ATOM
      1 O1          20.0972 -29.5630  48.5708 O.3            1 RES1               0.0000
      2 C2          20.6544 -30.0200  47.4027 C.ar           1 RES1               0.0000
      3 C3          20.8592 -29.6890  49.7685 C.3            1 RES1               0.0000
      4 C4          19.7590 -30.2976  46.3590 C.ar           1 RES1               0.0000
      5 C5          22.0252 -30.2118  47.2002 C.ar           1 RES1               0.0000
      6 C6          19.9262 -29.4554  50.9430 C.3            1 RES1               0.0000
      7 O7          18.4318 -30.0772  46.6234 O.3            1 RES1               0.0000
      8 C8          20.2594 -30.7707  45.1445 C.ar           1 RES1               0.0000
      9 C9          22.5348 -30.6781  45.9952 C.ar           1 RES1               0.0000
     10 C10         17.5038 -30.2600  45.5642 C.3            1 RES1               0.0000
     11 C11         21.6508 -30.9755  44.9527 C.ar           1 RES1               0.0000
     12 N12         23.8577 -30.8179  45.8843 N.ar           1 RES1               0.0000
     13 C13         22.2455 -31.4562  43.7706 C.ar           1 RES1               0.0000
     14 C14         24.3326 -31.2581  44.7112 C.ar           1 RES1               0.0000
     15 N15         23.5788 -31.5673  43.6472 N.ar           1 RES1               0.0000
     16 N16         21.4527 -31.7878  42.6748 N.pl3          1 RES1               0.0000
     17 C17         25.8170 -31.3708  44.5629 C.3            1 RES1               0.0000
     18 C18         21.8219 -32.8780  41.7826 C.3            1 RES1               0.0000
     19 C19         21.2798 -34.1826  42.3507 C.ar           1 RES1               0.0000
     20 C20         21.2963 -32.5485  40.3807 C.3            1 RES1               0.0000
     21 C21         22.0998 -35.1368  42.9838 C.ar           1 RES1               0.0000
     22 C22         19.9182 -34.4759  42.1936 C.ar           1 RES1               0.0000
     23 C23         21.5833 -36.3471  43.4801 C.ar           1 RES1               0.0000
     24 C24         19.3879 -35.6695  42.6751 C.ar           1 RES1               0.0000
     25 C25         22.4449 -37.3300  44.1409 C.2            1 RES1               0.0000
     26 C26         20.2137 -36.5949  43.3152 C.ar           1 RES1               0.0000
     27 C27         22.1329 -38.3963  44.8812 C.2            1 RES1               0.0000
     28 C28         23.9330 -37.3328  44.1044 C.3            1 RES1               0.0000
     29 N29         23.2274 -39.0826  45.3315 N.2            1 RES1               0.0000
     30 N30         24.2824 -38.5237  44.9230 N.2            1 RES1               0.0000
     31 H1          21.2887 -30.6879  49.8302 H              1 RES1               0.0000
     32 H2          21.6582 -28.9492  49.7780 H              1 RES1               0.0000
     33 H3          22.7147 -29.9884  48.0129 H              1 RES1               0.0000
     34 H4          20.4843 -29.5460  51.8737 H              1 RES1               0.0000
     35 H5          19.1276 -30.1956  50.9251 H              1 RES1               0.0000
     36 H6          19.4972 -28.4569  50.8728 H              1 RES1               0.0000
     37 H7          19.5698 -30.9864  44.3296 H              1 RES1               0.0000
     38 H8          16.4973 -30.0501  45.9232 H              1 RES1               0.0000
     39 H9          17.5555 -31.2884  45.2097 H              1 RES1               0.0000
     40 H10         17.7468 -29.5819  44.7475 H              1 RES1               0.0000
     41 H11         20.6038 -31.2613  42.4950 H              1 RES1               0.0000
     42 H12         26.0554 -31.7383  43.5659 H              1 RES1               0.0000
     43 H13         26.2046 -32.0643  45.3077 H              1 RES1               0.0000
     44 H14         26.2716 -30.3919  44.7072 H              1 RES1               0.0000
     45 H15         22.9083 -32.9411  41.7411 H              1 RES1               0.0000
     46 H16         21.7263 -31.6064  40.0438 H              1 RES1               0.0000
     47 H17         20.2111 -32.4619  40.4110 H              1 RES1               0.0000
     48 H18         21.5778 -33.3431  39.6914 H              1 RES1               0.0000
     49 H19         23.1638 -34.9315  43.0923 H              1 RES1               0.0000
     50 H20         19.2681 -33.7623  41.6894 H              1 RES1               0.0000
     51 H21         18.3269 -35.8816  42.5522 H              1 RES1               0.0000
     52 H22         19.7875 -37.5234  43.6922 H              1 RES1               0.0000
     53 H23         21.1085 -38.6906  45.1045 H              1 RES1               0.0000
     54 H24         24.3375 -36.4225  44.5444 H              1 RES1               0.0000
     55 H25         24.2998 -37.4372  43.0844 H              1 RES1               0.0000
@<TRIPOS>BOND
    1    1    2 1     
    2    1    3 1     
    3    2    4 ar    
    4    2    5 ar    
    5    3    6 1     
    6    4    7 1     
    7    4    8 ar    
    8    5    9 ar    
    9    7   10 1     
   10    8   11 ar    
   11    9   12 ar    
   12   11   13 ar    
   13   12   14 ar    
   14   13   15 ar    
   15   13   16 1     
   16   14   17 1     
   17   16   18 1     
   18   18   19 1     
   19   18   20 1     
   20   19   21 ar    
   21   19   22 ar    
   22   21   23 ar    
   23   22   24 ar    
   24   23   25 1     
   25   23   26 ar    
   26   25   27 2     
   27   25   28 1     
   28   27   29 1     
   29   28   30 1     
   30    9   11 ar    
   31   14   15 ar    
   32   24   26 ar    
   33   29   30 2     
   34    3   31 1     
   35    3   32 1     
   36    5   33 1     
   37    6   34 1     
   38    6   35 1     
   39    6   36 1     
   40    8   37 1     
   41   10   38 1     
   42   10   39 1     
   43   10   40 1     
   44   16   41 1     
   45   17   42 1     
   46   17   43 1     
   47   17   44 1     
   48   18   45 1     
   49   20   46 1     
   50   20   47 1     
   51   20   48 1     
   52   21   49 1     
   53   22   50 1     
   54   24   51 1     
   55   26   52 1     
   56   27   53 1     
   57   28   54 1     
   58   28   55 1     
@<TRIPOS>SUBSTRUCTURE
      1 RES1           1
@<TRIPOS>SET
DONOR_HYDROGENS      STATIC     ATOMS    <user>   **** ""
1 41
ATOM$RED        STATIC     ATOMS    COLORGROUP SYSTEM
1 41
@<TRIPOS>COMMENT
> <Gold.Version>
2022.3.0

> <Gold.Id.Protein>
unknown|5ovf_clean|pdb

> <Gold.Protein.ActiveResidues>
 ILE839  VAL852  ILE856  LEU859  VAL871  LEU872  GLU873  VAL874  VAL875  SER876 
 ALA877  MET878  ASN879  SER880  SER881  PRO882  VAL883  TYR884  ARG885  LEU886 
 ASP887  HIS888  THR889  PHE890  GLU891  GLN892  ILE893  PRO894  SER895  ARG896 
 GLN897  LYS898  LYS899  ILE900  LEU901  GLU902  GLU903  ALA904  HIS905  GLU906 
 LEU907  SER908  GLU909  LYS914  GLU836  ILE839  VAL852  ILE855  ILE856  LEU859 
 GLN863  VAL871  LEU872  VAL874  VAL875  SER876  ALA877  MET878  ASN879  SER880 
 SER881  PRO882  VAL883  TYR884  ARG885  LEU886  ASP887  HIS888  THR889  PHE890 
 GLU891  GLN892  ILE893  PRO894  SER895  ARG896  GLN897  LYS898  LYS899  ILE900 
 LEU901  GLU902  GLU903  ALA904  HIS905  GLU906  LEU907  SER908  GLU909  ASP910 
 LYS914 

> <Gold.Score>
     Fitness  S(hb_ext) S(vdw_ext)  S(hb_int)    S(int)     S(con)      intcor
     78.31       0.46      59.76       0.00      -4.33      -0.00      -8.92

> <Gold.Goldscore.Fitness>
78.3056

> <Gold.Goldscore.Internal.Vdw>
-8.4812

> <Gold.Goldscore.Internal.Torsion>
-4.7709

> <Gold.Goldscore.External.Vdw>
59.7601

> <Gold.Goldscore.Internal.HBond>
0.0000

> <Gold.Goldscore.External.HBond>
0.4627

> <Gold.Goldscore.Internal.Correction>
-8.9249

> <Gold.Goldscore.Constraint.Score>
-0.0000

> <Gold.Goldscore.Reference.RMSD>
0.8040

> <Gold.Goldscore.Hbonds>
donor molecule, donor type, donor heavy atom, donor atom, acceptor molecule, acceptor atom, score
      L1  H    16    41       P1  2553  0.23

> <Gold.Goldscore.Internal.Vdw.Weighted>
-8.4812

> <Gold.Goldscore.Internal.Torsion.Weighted>
-4.7709

> <Gold.Goldscore.External.Vdw.Weighted>
82.1701

> <Gold.Goldscore.Internal.HBond.Weighted>
0.0000

> <Gold.Goldscore.External.HBond.Weighted>
0.4627

> <Gold.Goldscore.Internal.Correction.Weighted>
-8.9249

> <Gold.Rescore>
     Score         DG    S(hbond)    S(metal)    S(lipo)     H(rot)  DE(clash)    DE(int)    DE(con)     intcor
     33.00     -35.16       0.88        0.00     264.21       1.63       0.68       1.47       0.00       ----

> <Gold.Chemscore.Fitness>
33.0010

> <Gold.Chemscore.DG>
-35.1570

> <Gold.Chemscore.ZeroCoef>
-5.4800

> <Gold.Chemscore.Hbond>
0.8791

> <Gold.Chemscore.Metal>
0.0000

> <Gold.Chemscore.Lipo>
264.2072

> <Gold.Chemscore.Internal_Hbond>
0.0000

> <Gold.Chemscore.DEClash>
0.6820

> <Gold.Chemscore.DEInternal>
1.4741

> <Gold.Chemscore.Rot>
1.6294

> <Gold.Chemscore.Internal.Correction>
   9.000000E+99

> <Gold.Chemscore.Constraint>
0.0000

> <Gold.Chemscore.Reference.RMSD>
0.0000

> <Gold.Chemscore.Hbonds>
donor molecule, donor type, donor heavy atom, donor atom, acceptor molecule, acceptor atom, score
      L1  H    16    41       P1  2553  0.59

> <Gold.Chemscore.Hbond.Weighted>
-2.9361

> <Gold.Chemscore.Metal.Weighted>
-0.0000

> <Gold.Chemscore.Lipo.Weighted>
-30.9122

> <Gold.Chemscore.Internal_Hbond.Weighted>
0.0000

> <Gold.Chemscore.DEClash.Weighted>
0.6820

> <Gold.Chemscore.DEInternal.Weighted>
1.4741

> <Gold.Chemscore.Rot.Weighted>
4.1713

> <Gold.Chemscore.Internal.Correction.Weighted>
   9.000000E+99

> <Gold.Reference.RMSD>
0.8040

