#       Name:                example_1
#       Creating user name   hitesit
#       Creation time:       Mon Nov  6 23:30:39 2023


#       File generated by GOLD software.
#

@<TRIPOS>MOLECULE
example_1|example_1_prep|mol2|1|dock5
    55    58     1
SMALL
NO_CHARGES


@<TRIPOS>ATOM
      1 O1          20.1396 -29.4907  48.5720 O.3            1 RES1               0.0000
      2 C2          20.6937 -29.9719  47.4122 C.ar           1 RES1               0.0000
      3 C3          20.8619 -29.6796  49.7859 C.3            1 RES1               0.0000
      4 C4          19.7935 -30.2952  46.3859 C.ar           1 RES1               0.0000
      5 C5          22.0657 -30.1457  47.2016 C.ar           1 RES1               0.0000
      6 C6          19.9085 -29.4303  50.9408 C.3            1 RES1               0.0000
      7 O7          18.4652 -30.0903  46.6569 O.3            1 RES1               0.0000
      8 C8          20.2907 -30.7948  45.1807 C.ar           1 RES1               0.0000
      9 C9          22.5720 -30.6380  46.0057 C.ar           1 RES1               0.0000
     10 C10         17.5350 -30.2742  45.5998 C.3            1 RES1               0.0000
     11 C11         21.6837 -30.9809  44.9811 C.ar           1 RES1               0.0000
     12 N12         23.8961 -30.7581  45.8858 N.ar           1 RES1               0.0000
     13 C13         22.2755 -31.4856  43.8075 C.ar           1 RES1               0.0000
     14 C14         24.3676 -31.2240  44.7213 C.ar           1 RES1               0.0000
     15 N15         23.6094 -31.5771  43.6743 N.ar           1 RES1               0.0000
     16 N16         21.4784 -31.8627  42.7298 N.pl3          1 RES1               0.0000
     17 C17         25.8523 -31.3152  44.5616 C.3            1 RES1               0.0000
     18 C18         21.8906 -32.9284  41.8269 C.3            1 RES1               0.0000
     19 C19         21.3764 -34.2560  42.3670 C.ar           1 RES1               0.0000
     20 C20         21.3766 -32.5917  40.4224 C.3            1 RES1               0.0000
     21 C21         22.2082 -35.1864  43.0198 C.ar           1 RES1               0.0000
     22 C22         20.0318 -34.5953  42.1628 C.ar           1 RES1               0.0000
     23 C23         21.7187 -36.4182  43.4896 C.ar           1 RES1               0.0000
     24 C24         19.5283 -35.8108  42.6176 C.ar           1 RES1               0.0000
     25 C25         22.5922 -37.3761  44.1712 C.2            1 RES1               0.0000
     26 C26         20.3647 -36.7122  43.2777 C.ar           1 RES1               0.0000
     27 C27         22.2932 -38.4390  44.9217 C.2            1 RES1               0.0000
     28 C28         24.0803 -37.3507  44.1495 C.3            1 RES1               0.0000
     29 N29         23.3960 -39.0984  45.3914 N.2            1 RES1               0.0000
     30 N30         24.4441 -38.5244  44.9864 N.2            1 RES1               0.0000
     31 H1          21.2435 -30.6984  49.8345 H              1 RES1               0.0000
     32 H2          21.6932 -28.9779  49.8346 H              1 RES1               0.0000
     33 H3          22.7587 -29.8868  48.0007 H              1 RES1               0.0000
     34 H4          20.4362 -29.5682  51.8833 H              1 RES1               0.0000
     35 H5          19.0778 -30.1322  50.8837 H              1 RES1               0.0000
     36 H6          19.5277 -28.4116  50.8837 H              1 RES1               0.0000
     37 H7          19.5974 -31.0461  44.3793 H              1 RES1               0.0000
     38 H8          16.5278 -30.0771  45.9642 H              1 RES1               0.0000
     39 H9          17.5957 -31.2991  45.2371 H              1 RES1               0.0000
     40 H10         17.7681 -29.5873  44.7876 H              1 RES1               0.0000
     41 H11         20.5958 -31.3872  42.5709 H              1 RES1               0.0000
     42 H12         26.0877 -31.7075  43.5733 H              1 RES1               0.0000
     43 H13         26.2590 -31.9799  45.3223 H              1 RES1               0.0000
     44 H14         26.2909 -30.3248  44.6728 H              1 RES1               0.0000
     45 H15         22.9788 -32.9612  41.8008 H              1 RES1               0.0000
     46 H16         21.7854 -31.6331  40.1063 H              1 RES1               0.0000
     47 H17         20.2892 -32.5353  40.4377 H              1 RES1               0.0000
     48 H18         21.6900 -33.3675  39.7255 H              1 RES1               0.0000
     49 H19         23.2602 -34.9450  43.1649 H              1 RES1               0.0000
     50 H20         19.3739 -33.9005  41.6427 H              1 RES1               0.0000
     51 H21         18.4800 -36.0588  42.4581 H              1 RES1               0.0000
     52 H22         19.9593 -37.6583  43.6334 H              1 RES1               0.0000
     53 H23         21.2723 -38.7503  45.1385 H              1 RES1               0.0000
     54 H24         24.4628 -36.4273  44.5821 H              1 RES1               0.0000
     55 H25         24.4594 -37.4605  43.1346 H              1 RES1               0.0000
@<TRIPOS>BOND
    1    1    2 1     
    2    1    3 1     
    3    2    4 ar    
    4    2    5 ar    
    5    3    6 1     
    6    4    7 1     
    7    4    8 ar    
    8    5    9 ar    
    9    7   10 1     
   10    8   11 ar    
   11    9   12 ar    
   12   11   13 ar    
   13   12   14 ar    
   14   13   15 ar    
   15   13   16 1     
   16   14   17 1     
   17   16   18 1     
   18   18   19 1     
   19   18   20 1     
   20   19   21 ar    
   21   19   22 ar    
   22   21   23 ar    
   23   22   24 ar    
   24   23   25 1     
   25   23   26 ar    
   26   25   27 2     
   27   25   28 1     
   28   27   29 1     
   29   28   30 1     
   30    9   11 ar    
   31   14   15 ar    
   32   24   26 ar    
   33   29   30 2     
   34    3   31 1     
   35    3   32 1     
   36    5   33 1     
   37    6   34 1     
   38    6   35 1     
   39    6   36 1     
   40    8   37 1     
   41   10   38 1     
   42   10   39 1     
   43   10   40 1     
   44   16   41 1     
   45   17   42 1     
   46   17   43 1     
   47   17   44 1     
   48   18   45 1     
   49   20   46 1     
   50   20   47 1     
   51   20   48 1     
   52   21   49 1     
   53   22   50 1     
   54   24   51 1     
   55   26   52 1     
   56   27   53 1     
   57   28   54 1     
   58   28   55 1     
@<TRIPOS>SUBSTRUCTURE
      1 RES1           1
@<TRIPOS>SET
DONOR_HYDROGENS      STATIC     ATOMS    <user>   **** ""
1 41
ATOM$RED        STATIC     ATOMS    COLORGROUP SYSTEM
1 41
@<TRIPOS>COMMENT
> <Gold.Version>
2022.3.0

> <Gold.Id.Protein>
unknown|5ovf_clean|pdb

> <Gold.Protein.ActiveResidues>
 ILE839  VAL852  ILE856  LEU859  VAL871  LEU872  GLU873  VAL874  VAL875  SER876 
 ALA877  MET878  ASN879  SER880  SER881  PRO882  VAL883  TYR884  ARG885  LEU886 
 ASP887  HIS888  THR889  PHE890  GLU891  GLN892  ILE893  PRO894  SER895  ARG896 
 GLN897  LYS898  LYS899  ILE900  LEU901  GLU902  GLU903  ALA904  HIS905  GLU906 
 LEU907  SER908  GLU909  LYS914  GLU836  ILE839  VAL852  ILE855  ILE856  LEU859 
 GLN863  VAL871  LEU872  VAL874  VAL875  SER876  ALA877  MET878  ASN879  SER880 
 SER881  PRO882  VAL883  TYR884  ARG885  LEU886  ASP887  HIS888  THR889  PHE890 
 GLU891  GLN892  ILE893  PRO894  SER895  ARG896  GLN897  LYS898  LYS899  ILE900 
 LEU901  GLU902  GLU903  ALA904  HIS905  GLU906  LEU907  SER908  GLU909  ASP910 
 LYS914 

> <Gold.Score>
     Fitness  S(hb_ext) S(vdw_ext)  S(hb_int)    S(int)     S(con)      intcor
     77.59       0.84      59.79       0.00      -5.46      -0.00      -8.46

> <Gold.Goldscore.Fitness>
77.5916

> <Gold.Goldscore.Internal.Vdw>
-9.0726

> <Gold.Goldscore.Internal.Torsion>
-4.8532

> <Gold.Goldscore.External.Vdw>
59.7909

> <Gold.Goldscore.Internal.HBond>
0.0000

> <Gold.Goldscore.External.HBond>
0.8435

> <Gold.Goldscore.Internal.Correction>
-8.4614

> <Gold.Goldscore.Constraint.Score>
-0.0000

> <Gold.Goldscore.Reference.RMSD>
0.8194

> <Gold.Goldscore.Hbonds>
donor molecule, donor type, donor heavy atom, donor atom, acceptor molecule, acceptor atom, score
      L1  H    16    41       P1  2553  0.42

> <Gold.Goldscore.Internal.Vdw.Weighted>
-9.0726

> <Gold.Goldscore.Internal.Torsion.Weighted>
-4.8532

> <Gold.Goldscore.External.Vdw.Weighted>
82.2125

> <Gold.Goldscore.Internal.HBond.Weighted>
0.0000

> <Gold.Goldscore.External.HBond.Weighted>
0.8435

> <Gold.Goldscore.Internal.Correction.Weighted>
-8.4614

> <Gold.Rescore>
     Score         DG    S(hbond)    S(metal)    S(lipo)     H(rot)  DE(clash)    DE(int)    DE(con)     intcor
     32.98     -34.97       0.89        0.00     262.17       1.63       0.32       1.68       0.00       ----

> <Gold.Chemscore.Fitness>
32.9764

> <Gold.Chemscore.DG>
-34.9710

> <Gold.Chemscore.ZeroCoef>
-5.4800

> <Gold.Chemscore.Hbond>
0.8948

> <Gold.Chemscore.Metal>
0.0000

> <Gold.Chemscore.Lipo>
262.1684

> <Gold.Chemscore.Internal_Hbond>
0.0000

> <Gold.Chemscore.DEClash>
0.3179

> <Gold.Chemscore.DEInternal>
1.6766

> <Gold.Chemscore.Rot>
1.6294

> <Gold.Chemscore.Internal.Correction>
   9.000000E+99

> <Gold.Chemscore.Constraint>
0.0000

> <Gold.Chemscore.Reference.RMSD>
0.0000

> <Gold.Chemscore.Hbonds>
donor molecule, donor type, donor heavy atom, donor atom, acceptor molecule, acceptor atom, score
      L1  H    16    41       P1  2553  0.81

> <Gold.Chemscore.Hbond.Weighted>
-2.9886

> <Gold.Chemscore.Metal.Weighted>
-0.0000

> <Gold.Chemscore.Lipo.Weighted>
-30.6737

> <Gold.Chemscore.Internal_Hbond.Weighted>
0.0000

> <Gold.Chemscore.DEClash.Weighted>
0.3179

> <Gold.Chemscore.DEInternal.Weighted>
1.6766

> <Gold.Chemscore.Rot.Weighted>
4.1713

> <Gold.Chemscore.Internal.Correction.Weighted>
   9.000000E+99

> <Gold.Reference.RMSD>
0.8194

