#       Name:                example_1
#       Creating user name   hitesit
#       Creation time:       Mon Nov  6 23:31:03 2023


#       File generated by GOLD software.
#

@<TRIPOS>MOLECULE
example_1|example_1_prep|mol2|1|dock9
    55    58     1
SMALL
NO_CHARGES


@<TRIPOS>ATOM
      1 O1          20.1747 -29.5241  48.6068 O.3            1 RES1               0.0000
      2 C2          20.7208 -29.9855  47.4352 C.ar           1 RES1               0.0000
      3 C3          20.9327 -29.6788  49.8036 C.3            1 RES1               0.0000
      4 C4          19.8137 -30.2897  46.4092 C.ar           1 RES1               0.0000
      5 C5          22.0913 -30.1572  47.2130 C.ar           1 RES1               0.0000
      6 C6          20.0097 -29.4127  50.9793 C.3            1 RES1               0.0000
      7 O7          18.4875 -30.0879  46.6922 O.3            1 RES1               0.0000
      8 C8          20.3026 -30.7686  45.1922 C.ar           1 RES1               0.0000
      9 C9          22.5893 -30.6290  46.0054 C.ar           1 RES1               0.0000
     10 C10         17.5503 -30.2524  45.6380 C.3            1 RES1               0.0000
     11 C11         21.6941 -30.9528  44.9806 C.ar           1 RES1               0.0000
     12 N12         23.9125 -30.7485  45.8750 N.ar           1 RES1               0.0000
     13 C13         22.2778 -31.4375  43.7946 C.ar           1 RES1               0.0000
     14 C14         24.3760 -31.1945  44.6995 C.ar           1 RES1               0.0000
     15 N15         23.6107 -31.5282  43.6513 N.ar           1 RES1               0.0000
     16 N16         21.4734 -31.7946  42.7155 N.pl3          1 RES1               0.0000
     17 C17         25.8596 -31.2846  44.5288 C.3            1 RES1               0.0000
     18 C18         21.8492 -32.8854  41.8267 C.3            1 RES1               0.0000
     19 C19         21.3047 -34.1899  42.3928 C.ar           1 RES1               0.0000
     20 C20         21.3320 -32.5578  40.4213 C.3            1 RES1               0.0000
     21 C21         22.1219 -35.1438  43.0298 C.ar           1 RES1               0.0000
     22 C22         19.9438 -34.4833  42.2297 C.ar           1 RES1               0.0000
     23 C23         21.6033 -36.3540  43.5241 C.ar           1 RES1               0.0000
     24 C24         19.4115 -35.6768  42.7092 C.ar           1 RES1               0.0000
     25 C25         22.4621 -37.3367  44.1890 C.2            1 RES1               0.0000
     26 C26         20.2345 -36.6020  43.3532 C.ar           1 RES1               0.0000
     27 C27         22.1471 -38.3935  44.9415 C.2            1 RES1               0.0000
     28 C28         23.9498 -37.3506  44.1433 C.3            1 RES1               0.0000
     29 N29         23.2396 -39.0833  45.3915 N.2            1 RES1               0.0000
     30 N30         24.2958 -38.5360  44.9711 N.2            1 RES1               0.0000
     31 H1          21.3257 -30.6927  49.8640 H              1 RES1               0.0000
     32 H2          21.7579 -28.9684  49.8132 H              1 RES1               0.0000
     33 H3          22.7897 -29.9132  48.0121 H              1 RES1               0.0000
     34 H4          20.5651 -29.5245  51.9093 H              1 RES1               0.0000
     35 H5          19.1848 -30.1236  50.9614 H              1 RES1               0.0000
     36 H6          19.6172 -28.3993  50.9105 H              1 RES1               0.0000
     37 H7          19.6040 -31.0049  44.3910 H              1 RES1               0.0000
     38 H8          16.5457 -30.0606  46.0121 H              1 RES1               0.0000
     39 H9          17.6074 -31.2711  45.2572 H              1 RES1               0.0000
     40 H10         17.7791 -29.5519  44.8363 H              1 RES1               0.0000
     41 H11         20.6113 -31.2866  42.5455 H              1 RES1               0.0000
     42 H12         26.0882 -31.6597  43.5324 H              1 RES1               0.0000
     43 H13         26.2702 -31.9631  45.2751 H              1 RES1               0.0000
     44 H14         26.3002 -30.2968  44.6547 H              1 RES1               0.0000
     45 H15         22.9359 -32.9476  41.7921 H              1 RES1               0.0000
     46 H16         21.7634 -31.6157  40.0861 H              1 RES1               0.0000
     47 H17         20.2467 -32.4721  40.4447 H              1 RES1               0.0000
     48 H18         21.6186 -33.3529  39.7345 H              1 RES1               0.0000
     49 H19         23.1854 -34.9384  43.1429 H              1 RES1               0.0000
     50 H20         19.2959 -33.7699  41.7225 H              1 RES1               0.0000
     51 H21         18.3510 -35.8891  42.5817 H              1 RES1               0.0000
     52 H22         19.8066 -37.5304  43.7285 H              1 RES1               0.0000
     53 H23         21.1220 -38.6784  45.1740 H              1 RES1               0.0000
     54 H24         24.3636 -36.4390  44.5719 H              1 RES1               0.0000
     55 H25         24.3094 -37.4674  43.1220 H              1 RES1               0.0000
@<TRIPOS>BOND
    1    1    2 1     
    2    1    3 1     
    3    2    4 ar    
    4    2    5 ar    
    5    3    6 1     
    6    4    7 1     
    7    4    8 ar    
    8    5    9 ar    
    9    7   10 1     
   10    8   11 ar    
   11    9   12 ar    
   12   11   13 ar    
   13   12   14 ar    
   14   13   15 ar    
   15   13   16 1     
   16   14   17 1     
   17   16   18 1     
   18   18   19 1     
   19   18   20 1     
   20   19   21 ar    
   21   19   22 ar    
   22   21   23 ar    
   23   22   24 ar    
   24   23   25 1     
   25   23   26 ar    
   26   25   27 2     
   27   25   28 1     
   28   27   29 1     
   29   28   30 1     
   30    9   11 ar    
   31   14   15 ar    
   32   24   26 ar    
   33   29   30 2     
   34    3   31 1     
   35    3   32 1     
   36    5   33 1     
   37    6   34 1     
   38    6   35 1     
   39    6   36 1     
   40    8   37 1     
   41   10   38 1     
   42   10   39 1     
   43   10   40 1     
   44   16   41 1     
   45   17   42 1     
   46   17   43 1     
   47   17   44 1     
   48   18   45 1     
   49   20   46 1     
   50   20   47 1     
   51   20   48 1     
   52   21   49 1     
   53   22   50 1     
   54   24   51 1     
   55   26   52 1     
   56   27   53 1     
   57   28   54 1     
   58   28   55 1     
@<TRIPOS>SUBSTRUCTURE
      1 RES1           1
@<TRIPOS>SET
DONOR_HYDROGENS      STATIC     ATOMS    <user>   **** ""
1 41
ATOM$RED        STATIC     ATOMS    COLORGROUP SYSTEM
1 41
@<TRIPOS>COMMENT
> <Gold.Version>
2022.3.0

> <Gold.Id.Protein>
unknown|5ovf_clean|pdb

> <Gold.Protein.ActiveResidues>
 ILE839  VAL852  ILE856  LEU859  VAL871  LEU872  GLU873  VAL874  VAL875  SER876 
 ALA877  MET878  ASN879  SER880  SER881  PRO882  VAL883  TYR884  ARG885  LEU886 
 ASP887  HIS888  THR889  PHE890  GLU891  GLN892  ILE893  PRO894  SER895  ARG896 
 GLN897  LYS898  LYS899  ILE900  LEU901  GLU902  GLU903  ALA904  HIS905  GLU906 
 LEU907  SER908  GLU909  LYS914  GLU836  ILE839  VAL852  ILE855  ILE856  LEU859 
 GLN863  VAL871  LEU872  VAL874  VAL875  SER876  ALA877  MET878  ASN879  SER880 
 SER881  PRO882  VAL883  TYR884  ARG885  LEU886  ASP887  HIS888  THR889  PHE890 
 GLU891  GLN892  ILE893  PRO894  SER895  ARG896  GLN897  LYS898  LYS899  ILE900 
 LEU901  GLU902  GLU903  ALA904  HIS905  GLU906  LEU907  SER908  GLU909  ASP910 
 LYS914 

> <Gold.Score>
     Fitness  S(hb_ext) S(vdw_ext)  S(hb_int)    S(int)     S(con)      intcor
     77.91       0.57      59.75       0.00      -4.81      -0.00      -8.46

> <Gold.Goldscore.Fitness>
77.9071

> <Gold.Goldscore.Internal.Vdw>
-8.4262

> <Gold.Goldscore.Internal.Torsion>
-4.8457

> <Gold.Goldscore.External.Vdw>
59.7470

> <Gold.Goldscore.Internal.HBond>
0.0000

> <Gold.Goldscore.External.HBond>
0.5655

> <Gold.Goldscore.Internal.Correction>
-8.4614

> <Gold.Goldscore.Constraint.Score>
-0.0000

> <Gold.Goldscore.Reference.RMSD>
0.7881

> <Gold.Goldscore.Hbonds>
donor molecule, donor type, donor heavy atom, donor atom, acceptor molecule, acceptor atom, score
      L1  H    16    41       P1  2553  0.28

> <Gold.Goldscore.Internal.Vdw.Weighted>
-8.4262

> <Gold.Goldscore.Internal.Torsion.Weighted>
-4.8457

> <Gold.Goldscore.External.Vdw.Weighted>
82.1521

> <Gold.Goldscore.Internal.HBond.Weighted>
0.0000

> <Gold.Goldscore.External.HBond.Weighted>
0.5655

> <Gold.Goldscore.Internal.Correction.Weighted>
-8.4614

> <Gold.Rescore>
     Score         DG    S(hbond)    S(metal)    S(lipo)     H(rot)  DE(clash)    DE(int)    DE(con)     intcor
     31.97     -35.57       0.88        0.00     267.67       1.63       2.00       1.60       0.00       ----

> <Gold.Chemscore.Fitness>
31.9729

> <Gold.Chemscore.DG>
-35.5696

> <Gold.Chemscore.ZeroCoef>
-5.4800

> <Gold.Chemscore.Hbond>
0.8812

> <Gold.Chemscore.Metal>
0.0000

> <Gold.Chemscore.Lipo>
267.6719

> <Gold.Chemscore.Internal_Hbond>
0.0000

> <Gold.Chemscore.DEClash>
1.9967

> <Gold.Chemscore.DEInternal>
1.6000

> <Gold.Chemscore.Rot>
1.6294

> <Gold.Chemscore.Internal.Correction>
   9.000000E+99

> <Gold.Chemscore.Constraint>
0.0000

> <Gold.Chemscore.Reference.RMSD>
0.0000

> <Gold.Chemscore.Hbonds>
donor molecule, donor type, donor heavy atom, donor atom, acceptor molecule, acceptor atom, score
      L1  H    16    41       P1  2553  0.67

> <Gold.Chemscore.Hbond.Weighted>
-2.9433

> <Gold.Chemscore.Metal.Weighted>
-0.0000

> <Gold.Chemscore.Lipo.Weighted>
-31.3176

> <Gold.Chemscore.Internal_Hbond.Weighted>
0.0000

> <Gold.Chemscore.DEClash.Weighted>
1.9967

> <Gold.Chemscore.DEInternal.Weighted>
1.6000

> <Gold.Chemscore.Rot.Weighted>
4.1713

> <Gold.Chemscore.Internal.Correction.Weighted>
   9.000000E+99

> <Gold.Reference.RMSD>
0.7881

