#       Name:                example_1
#       Creating user name   hitesit
#       Creation time:       Mon Nov  6 23:31:10 2023


#       File generated by GOLD software.
#

@<TRIPOS>MOLECULE
example_1|example_1_prep|mol2|1|dock10
    55    58     1
SMALL
NO_CHARGES


@<TRIPOS>ATOM
      1 O1          20.1371 -29.3353  48.5907 O.3            1 RES1               0.0000
      2 C2          20.6711 -29.8527  47.4371 C.ar           1 RES1               0.0000
      3 C3          20.8655 -29.5133  49.8026 C.3            1 RES1               0.0000
      4 C4          19.7534 -30.2081  46.4373 C.ar           1 RES1               0.0000
      5 C5          22.0394 -30.0331  47.2083 C.ar           1 RES1               0.0000
      6 C6          19.9320 -29.2033  50.9590 C.3            1 RES1               0.0000
      7 O7          18.4300 -29.9946  46.7248 O.3            1 RES1               0.0000
      8 C8          20.2298 -30.7453  45.2399 C.ar           1 RES1               0.0000
      9 C9          22.5251 -30.5628  46.0199 C.ar           1 RES1               0.0000
     10 C10         17.4793 -30.2367  45.6981 C.3            1 RES1               0.0000
     11 C11         21.6193 -30.9377  45.0221 C.ar           1 RES1               0.0000
     12 N12         23.8469 -30.6867  45.8808 N.ar           1 RES1               0.0000
     13 C13         22.1909 -31.4790  43.8549 C.ar           1 RES1               0.0000
     14 C14         24.2984 -31.1890  44.7235 C.ar           1 RES1               0.0000
     15 N15         23.5223 -31.5748  43.7014 N.ar           1 RES1               0.0000
     16 N16         21.3753 -31.8897  42.8035 N.pl3          1 RES1               0.0000
     17 C17         25.7802 -31.2853  44.5409 C.3            1 RES1               0.0000
     18 C18         21.8162 -32.9134  41.8661 C.3            1 RES1               0.0000
     19 C19         21.3688 -34.2752  42.3799 C.ar           1 RES1               0.0000
     20 C20         21.2632 -32.5635  40.4798 C.3            1 RES1               0.0000
     21 C21         22.2436 -35.1714  43.0242 C.ar           1 RES1               0.0000
     22 C22         20.0455 -34.6813  42.1588 C.ar           1 RES1               0.0000
     23 C23         21.8163 -36.4351  43.4694 C.ar           1 RES1               0.0000
     24 C24         19.6036 -35.9292  42.5892 C.ar           1 RES1               0.0000
     25 C25         22.7340 -37.3571  44.1424 C.2            1 RES1               0.0000
     26 C26         20.4814 -36.7964  43.2413 C.ar           1 RES1               0.0000
     27 C27         22.4849 -38.4239  44.9054 C.2            1 RES1               0.0000
     28 C28         24.2198 -37.2804  44.0948 C.3            1 RES1               0.0000
     29 N29         23.6178 -39.0413  45.3604 N.2            1 RES1               0.0000
     30 N30         24.6383 -38.4345  44.9334 N.2            1 RES1               0.0000
     31 H1          21.2161 -30.5418  49.8757 H              1 RES1               0.0000
     32 H2          21.7184 -28.8367  49.8242 H              1 RES1               0.0000
     33 H3          22.7461 -29.7493  47.9867 H              1 RES1               0.0000
     34 H4          20.4647 -29.3318  51.9000 H              1 RES1               0.0000
     35 H5          19.0796 -29.8805  50.9290 H              1 RES1               0.0000
     36 H6          19.5820 -28.1753  50.8775 H              1 RES1               0.0000
     37 H7          19.5229 -31.0216  44.4590 H              1 RES1               0.0000
     38 H8          16.4788 -30.0250  46.0725 H              1 RES1               0.0000
     39 H9          17.5377 -31.2788  45.3876 H              1 RES1               0.0000
     40 H10         17.6922 -29.5918  44.8468 H              1 RES1               0.0000
     41 H11         20.4589 -31.4689  42.6886 H              1 RES1               0.0000
     42 H12         25.9985 -31.7084  43.5616 H              1 RES1               0.0000
     43 H13         26.2003 -31.9258  45.3150 H              1 RES1               0.0000
     44 H14         26.2202 -30.2918  44.6134 H              1 RES1               0.0000
     45 H15         22.9041 -32.8986  41.8208 H              1 RES1               0.0000
     46 H16         21.6251 -31.5804  40.1821 H              1 RES1               0.0000
     47 H17         20.1748 -32.5542  40.5150 H              1 RES1               0.0000
     48 H18         21.5967 -33.3071  39.7577 H              1 RES1               0.0000
     49 H19         23.2803 -34.8774  43.1821 H              1 RES1               0.0000
     50 H20         19.3558 -34.0134  41.6447 H              1 RES1               0.0000
     51 H21         18.5711 -36.2293  42.4168 H              1 RES1               0.0000
     52 H22         20.1239 -37.7684  43.5779 H              1 RES1               0.0000
     53 H23         21.4793 -38.7686  45.1420 H              1 RES1               0.0000
     54 H24         24.5774 -36.3412  44.5141 H              1 RES1               0.0000
     55 H25         24.5850 -37.3848  43.0742 H              1 RES1               0.0000
@<TRIPOS>BOND
    1    1    2 1     
    2    1    3 1     
    3    2    4 ar    
    4    2    5 ar    
    5    3    6 1     
    6    4    7 1     
    7    4    8 ar    
    8    5    9 ar    
    9    7   10 1     
   10    8   11 ar    
   11    9   12 ar    
   12   11   13 ar    
   13   12   14 ar    
   14   13   15 ar    
   15   13   16 1     
   16   14   17 1     
   17   16   18 1     
   18   18   19 1     
   19   18   20 1     
   20   19   21 ar    
   21   19   22 ar    
   22   21   23 ar    
   23   22   24 ar    
   24   23   25 1     
   25   23   26 ar    
   26   25   27 2     
   27   25   28 1     
   28   27   29 1     
   29   28   30 1     
   30    9   11 ar    
   31   14   15 ar    
   32   24   26 ar    
   33   29   30 2     
   34    3   31 1     
   35    3   32 1     
   36    5   33 1     
   37    6   34 1     
   38    6   35 1     
   39    6   36 1     
   40    8   37 1     
   41   10   38 1     
   42   10   39 1     
   43   10   40 1     
   44   16   41 1     
   45   17   42 1     
   46   17   43 1     
   47   17   44 1     
   48   18   45 1     
   49   20   46 1     
   50   20   47 1     
   51   20   48 1     
   52   21   49 1     
   53   22   50 1     
   54   24   51 1     
   55   26   52 1     
   56   27   53 1     
   57   28   54 1     
   58   28   55 1     
@<TRIPOS>SUBSTRUCTURE
      1 RES1           1
@<TRIPOS>SET
DONOR_HYDROGENS      STATIC     ATOMS    <user>   **** ""
1 41
ATOM$RED        STATIC     ATOMS    COLORGROUP SYSTEM
1 41
@<TRIPOS>COMMENT
> <Gold.Version>
2022.3.0

> <Gold.Id.Protein>
unknown|5ovf_clean|pdb

> <Gold.Protein.ActiveResidues>
 ILE839  VAL852  ILE856  LEU859  VAL871  LEU872  GLU873  VAL874  VAL875  SER876 
 ALA877  MET878  ASN879  SER880  SER881  PRO882  VAL883  TYR884  ARG885  LEU886 
 ASP887  HIS888  THR889  PHE890  GLU891  GLN892  ILE893  PRO894  SER895  ARG896 
 GLN897  LYS898  LYS899  ILE900  LEU901  GLU902  GLU903  ALA904  HIS905  GLU906 
 LEU907  SER908  GLU909  LYS914  GLU836  ILE839  VAL852  ILE855  ILE856  LEU859 
 GLN863  VAL871  LEU872  VAL874  VAL875  SER876  ALA877  MET878  ASN879  SER880 
 SER881  PRO882  VAL883  TYR884  ARG885  LEU886  ASP887  HIS888  THR889  PHE890 
 GLU891  GLN892  ILE893  PRO894  SER895  ARG896  GLN897  LYS898  LYS899  ILE900 
 LEU901  GLU902  GLU903  ALA904  HIS905  GLU906  LEU907  SER908  GLU909  ASP910 
 LYS914 

> <Gold.Score>
     Fitness  S(hb_ext) S(vdw_ext)  S(hb_int)    S(int)     S(con)      intcor
     76.47       1.30      59.36       0.00      -6.46      -0.00      -8.46

> <Gold.Goldscore.Fitness>
76.4655

> <Gold.Goldscore.Internal.Vdw>
-10.3775

> <Gold.Goldscore.Internal.Torsion>
-4.5412

> <Gold.Goldscore.External.Vdw>
59.3598

> <Gold.Goldscore.Internal.HBond>
0.0000

> <Gold.Goldscore.External.HBond>
1.3031

> <Gold.Goldscore.Internal.Correction>
-8.4614

> <Gold.Goldscore.Constraint.Score>
-0.0000

> <Gold.Goldscore.Reference.RMSD>
0.7809

> <Gold.Goldscore.Hbonds>
donor molecule, donor type, donor heavy atom, donor atom, acceptor molecule, acceptor atom, score
      L1  H    16    41       P1  2553  0.65

> <Gold.Goldscore.Internal.Vdw.Weighted>
-10.3775

> <Gold.Goldscore.Internal.Torsion.Weighted>
-4.5412

> <Gold.Goldscore.External.Vdw.Weighted>
81.6198

> <Gold.Goldscore.Internal.HBond.Weighted>
0.0000

> <Gold.Goldscore.External.HBond.Weighted>
1.3031

> <Gold.Goldscore.Internal.Correction.Weighted>
-8.4614

> <Gold.Rescore>
     Score         DG    S(hbond)    S(metal)    S(lipo)     H(rot)  DE(clash)    DE(int)    DE(con)     intcor
     33.50     -35.31       0.96        0.00     263.13       1.63       0.17       1.64       0.00       ----

> <Gold.Chemscore.Fitness>
33.5014

> <Gold.Chemscore.DG>
-35.3147

> <Gold.Chemscore.ZeroCoef>
-5.4800

> <Gold.Chemscore.Hbond>
0.9639

> <Gold.Chemscore.Metal>
0.0000

> <Gold.Chemscore.Lipo>
263.1327

> <Gold.Chemscore.Internal_Hbond>
0.0000

> <Gold.Chemscore.DEClash>
0.1687

> <Gold.Chemscore.DEInternal>
1.6446

> <Gold.Chemscore.Rot>
1.6294

> <Gold.Chemscore.Internal.Correction>
   9.000000E+99

> <Gold.Chemscore.Constraint>
0.0000

> <Gold.Chemscore.Reference.RMSD>
0.0000

> <Gold.Chemscore.Hbonds>
donor molecule, donor type, donor heavy atom, donor atom, acceptor molecule, acceptor atom, score
      L1  H    16    41       P1  2553  0.94

> <Gold.Chemscore.Hbond.Weighted>
-3.2195

> <Gold.Chemscore.Metal.Weighted>
-0.0000

> <Gold.Chemscore.Lipo.Weighted>
-30.7865

> <Gold.Chemscore.Internal_Hbond.Weighted>
0.0000

> <Gold.Chemscore.DEClash.Weighted>
0.1687

> <Gold.Chemscore.DEInternal.Weighted>
1.6446

> <Gold.Chemscore.Rot.Weighted>
4.1713

> <Gold.Chemscore.Internal.Correction.Weighted>
   9.000000E+99

> <Gold.Reference.RMSD>
0.7809

