#       Name:                example_1
#       Creating user name   hitesit
#       Creation time:       Mon Nov  6 23:30:26 2023


#       File generated by GOLD software.
#

@<TRIPOS>MOLECULE
example_1|example_1_prep|mol2|1|dock3
    55    58     1
SMALL
NO_CHARGES


@<TRIPOS>ATOM
      1 O1          20.1986 -29.4926  48.5860 O.3            1 RES1               0.0000
      2 C2          20.7354 -29.9555  47.4107 C.ar           1 RES1               0.0000
      3 C3          20.9551 -29.6685  49.7809 C.3            1 RES1               0.0000
      4 C4          19.8184 -30.2935  46.4042 C.ar           1 RES1               0.0000
      5 C5          22.1055 -30.0977  47.1667 C.ar           1 RES1               0.0000
      6 C6          20.0359 -29.4031  50.9596 C.3            1 RES1               0.0000
      7 O7          18.4927 -30.1195  46.7078 O.3            1 RES1               0.0000
      8 C8          20.2976 -30.7757  45.1848 C.ar           1 RES1               0.0000
      9 C9          22.5939 -30.5725  45.9564 C.ar           1 RES1               0.0000
     10 C10         17.5478 -30.2442  45.6552 C.3            1 RES1               0.0000
     11 C11         21.6892 -30.9299  44.9512 C.ar           1 RES1               0.0000
     12 N12         23.9171 -30.6625  45.8045 N.ar           1 RES1               0.0000
     13 C13         22.2639 -31.4153  43.7611 C.ar           1 RES1               0.0000
     14 C14         24.3709 -31.1120  44.6265 C.ar           1 RES1               0.0000
     15 N15         23.5960 -31.4765  43.5958 N.ar           1 RES1               0.0000
     16 N16         21.4499 -31.8045  42.7004 N.pl3          1 RES1               0.0000
     17 C17         25.8531 -31.1694  44.4311 C.3            1 RES1               0.0000
     18 C18         21.8368 -32.8961  41.8175 C.3            1 RES1               0.0000
     19 C19         21.2870 -34.2004  42.3791 C.ar           1 RES1               0.0000
     20 C20         21.3353 -32.5709  40.4058 C.3            1 RES1               0.0000
     21 C21         22.0984 -35.1540  43.0239 C.ar           1 RES1               0.0000
     22 C22         19.9276 -34.4937  42.2038 C.ar           1 RES1               0.0000
     23 C23         21.5753 -36.3640  43.5140 C.ar           1 RES1               0.0000
     24 C24         19.3909 -35.6870  42.6790 C.ar           1 RES1               0.0000
     25 C25         22.4279 -37.3465  44.1870 C.2            1 RES1               0.0000
     26 C26         20.2080 -36.6119  43.3307 C.ar           1 RES1               0.0000
     27 C27         22.1063 -38.3976  44.9448 C.2            1 RES1               0.0000
     28 C28         23.9157 -37.3671  44.1456 C.3            1 RES1               0.0000
     29 N29         23.1944 -39.0894  45.4019 N.2            1 RES1               0.0000
     30 N30         24.2542 -38.5491  44.9814 N.2            1 RES1               0.0000
     31 H1          21.3358 -30.6876  49.8309 H              1 RES1               0.0000
     32 H2          21.7889 -28.9683  49.7971 H              1 RES1               0.0000
     33 H3          22.8115 -29.8275  47.9506 H              1 RES1               0.0000
     34 H4          20.5901 -29.5309  51.8882 H              1 RES1               0.0000
     35 H5          19.2024 -30.1036  50.9349 H              1 RES1               0.0000
     36 H6          19.6556 -28.3842  50.9011 H              1 RES1               0.0000
     37 H7          19.5912 -31.0383  44.3987 H              1 RES1               0.0000
     38 H8          16.5447 -30.0808  46.0465 H              1 RES1               0.0000
     39 H9          17.6119 -31.2431  45.2263 H              1 RES1               0.0000
     40 H10         17.7621 -29.5042  44.8854 H              1 RES1               0.0000
     41 H11         20.5728 -31.3196  42.5401 H              1 RES1               0.0000
     42 H12         26.0734 -31.5513  43.4354 H              1 RES1               0.0000
     43 H13         26.2924 -31.8288  45.1782 H              1 RES1               0.0000
     44 H14         26.2722 -30.1700  44.5376 H              1 RES1               0.0000
     45 H15         22.9238 -32.9573  41.7954 H              1 RES1               0.0000
     46 H16         21.7696 -31.6288  40.0743 H              1 RES1               0.0000
     47 H17         20.2497 -32.4862  40.4168 H              1 RES1               0.0000
     48 H18         21.6305 -33.3666  39.7235 H              1 RES1               0.0000
     49 H19         23.1608 -34.9487  43.1466 H              1 RES1               0.0000
     50 H20         19.2845 -33.7805  41.6905 H              1 RES1               0.0000
     51 H21         18.3317 -35.8992  42.5419 H              1 RES1               0.0000
     52 H22         19.7767 -37.5402  43.7026 H              1 RES1               0.0000
     53 H23         21.0793 -38.6766  45.1760 H              1 RES1               0.0000
     54 H24         24.3322 -36.4548  44.5701 H              1 RES1               0.0000
     55 H25         24.2777 -37.4914  43.1261 H              1 RES1               0.0000
@<TRIPOS>BOND
    1    1    2 1     
    2    1    3 1     
    3    2    4 ar    
    4    2    5 ar    
    5    3    6 1     
    6    4    7 1     
    7    4    8 ar    
    8    5    9 ar    
    9    7   10 1     
   10    8   11 ar    
   11    9   12 ar    
   12   11   13 ar    
   13   12   14 ar    
   14   13   15 ar    
   15   13   16 1     
   16   14   17 1     
   17   16   18 1     
   18   18   19 1     
   19   18   20 1     
   20   19   21 ar    
   21   19   22 ar    
   22   21   23 ar    
   23   22   24 ar    
   24   23   25 1     
   25   23   26 ar    
   26   25   27 2     
   27   25   28 1     
   28   27   29 1     
   29   28   30 1     
   30    9   11 ar    
   31   14   15 ar    
   32   24   26 ar    
   33   29   30 2     
   34    3   31 1     
   35    3   32 1     
   36    5   33 1     
   37    6   34 1     
   38    6   35 1     
   39    6   36 1     
   40    8   37 1     
   41   10   38 1     
   42   10   39 1     
   43   10   40 1     
   44   16   41 1     
   45   17   42 1     
   46   17   43 1     
   47   17   44 1     
   48   18   45 1     
   49   20   46 1     
   50   20   47 1     
   51   20   48 1     
   52   21   49 1     
   53   22   50 1     
   54   24   51 1     
   55   26   52 1     
   56   27   53 1     
   57   28   54 1     
   58   28   55 1     
@<TRIPOS>SUBSTRUCTURE
      1 RES1           1
@<TRIPOS>SET
DONOR_HYDROGENS      STATIC     ATOMS    <user>   **** ""
1 41
ATOM$RED        STATIC     ATOMS    COLORGROUP SYSTEM
1 41
@<TRIPOS>COMMENT
> <Gold.Version>
2022.3.0

> <Gold.Id.Protein>
unknown|5ovf_clean|pdb

> <Gold.Protein.ActiveResidues>
 ILE839  VAL852  ILE856  LEU859  VAL871  LEU872  GLU873  VAL874  VAL875  SER876 
 ALA877  MET878  ASN879  SER880  SER881  PRO882  VAL883  TYR884  ARG885  LEU886 
 ASP887  HIS888  THR889  PHE890  GLU891  GLN892  ILE893  PRO894  SER895  ARG896 
 GLN897  LYS898  LYS899  ILE900  LEU901  GLU902  GLU903  ALA904  HIS905  GLU906 
 LEU907  SER908  GLU909  LYS914  GLU836  ILE839  VAL852  ILE855  ILE856  LEU859 
 GLN863  VAL871  LEU872  VAL874  VAL875  SER876  ALA877  MET878  ASN879  SER880 
 SER881  PRO882  VAL883  TYR884  ARG885  LEU886  ASP887  HIS888  THR889  PHE890 
 GLU891  GLN892  ILE893  PRO894  SER895  ARG896  GLN897  LYS898  LYS899  ILE900 
 LEU901  GLU902  GLU903  ALA904  HIS905  GLU906  LEU907  SER908  GLU909  ASP910 
 LYS914 

> <Gold.Score>
     Fitness  S(hb_ext) S(vdw_ext)  S(hb_int)    S(int)     S(con)      intcor
     78.54       0.72      59.90       0.00      -4.53      -0.00      -8.92

> <Gold.Goldscore.Fitness>
78.5439

> <Gold.Goldscore.Internal.Vdw>
-8.4351

> <Gold.Goldscore.Internal.Torsion>
-5.0201

> <Gold.Goldscore.External.Vdw>
59.8951

> <Gold.Goldscore.Internal.HBond>
0.0000

> <Gold.Goldscore.External.HBond>
0.7184

> <Gold.Goldscore.Internal.Correction>
-8.9249

> <Gold.Goldscore.Constraint.Score>
-0.0000

> <Gold.Goldscore.Reference.RMSD>
0.7893

> <Gold.Goldscore.Hbonds>
donor molecule, donor type, donor heavy atom, donor atom, acceptor molecule, acceptor atom, score
      L1  H    16    41       P1  2553  0.36

> <Gold.Goldscore.Internal.Vdw.Weighted>
-8.4351

> <Gold.Goldscore.Internal.Torsion.Weighted>
-5.0201

> <Gold.Goldscore.External.Vdw.Weighted>
82.3558

> <Gold.Goldscore.Internal.HBond.Weighted>
0.0000

> <Gold.Goldscore.External.HBond.Weighted>
0.7184

> <Gold.Goldscore.Internal.Correction.Weighted>
-8.9249

> <Gold.Rescore>
     Score         DG    S(hbond)    S(metal)    S(lipo)     H(rot)  DE(clash)    DE(int)    DE(con)     intcor
     32.44     -34.84       0.88        0.00     261.62       1.63       0.88       1.52       0.00       ----

> <Gold.Chemscore.Fitness>
32.4389

> <Gold.Chemscore.DG>
-34.8418

> <Gold.Chemscore.ZeroCoef>
-5.4800

> <Gold.Chemscore.Hbond>
0.8753

> <Gold.Chemscore.Metal>
0.0000

> <Gold.Chemscore.Lipo>
261.6214

> <Gold.Chemscore.Internal_Hbond>
0.0000

> <Gold.Chemscore.DEClash>
0.8802

> <Gold.Chemscore.DEInternal>
1.5227

> <Gold.Chemscore.Rot>
1.6294

> <Gold.Chemscore.Internal.Correction>
   9.000000E+99

> <Gold.Chemscore.Constraint>
0.0000

> <Gold.Chemscore.Reference.RMSD>
0.0000

> <Gold.Chemscore.Hbonds>
donor molecule, donor type, donor heavy atom, donor atom, acceptor molecule, acceptor atom, score
      L1  H    16    41       P1  2553  0.72

> <Gold.Chemscore.Hbond.Weighted>
-2.9234

> <Gold.Chemscore.Metal.Weighted>
-0.0000

> <Gold.Chemscore.Lipo.Weighted>
-30.6097

> <Gold.Chemscore.Internal_Hbond.Weighted>
0.0000

> <Gold.Chemscore.DEClash.Weighted>
0.8802

> <Gold.Chemscore.DEInternal.Weighted>
1.5227

> <Gold.Chemscore.Rot.Weighted>
4.1713

> <Gold.Chemscore.Internal.Correction.Weighted>
   9.000000E+99

> <Gold.Reference.RMSD>
0.7893

