#       Name:                example_1
#       Creating user name   hitesit
#       Creation time:       Mon Nov  6 23:30:20 2023


#       File generated by GOLD software.
#

@<TRIPOS>MOLECULE
example_1|example_1_prep|mol2|1|dock2
    55    58     1
SMALL
NO_CHARGES


@<TRIPOS>ATOM
      1 O1          20.1801 -29.5064  48.6269 O.3            1 RES1               0.0000
      2 C2          20.7175 -29.9769  47.4549 C.ar           1 RES1               0.0000
      3 C3          20.9118 -29.7207  49.8308 C.3            1 RES1               0.0000
      4 C4          19.8052 -30.2612  46.4278 C.ar           1 RES1               0.0000
      5 C5          22.0844 -30.1758  47.2332 C.ar           1 RES1               0.0000
      6 C6          19.9798 -29.4520  50.9986 C.3            1 RES1               0.0000
      7 O7          18.4831 -30.0332  46.7103 O.3            1 RES1               0.0000
      8 C8          20.2851 -30.7479  45.2104 C.ar           1 RES1               0.0000
      9 C9          22.5736 -30.6557  46.0252 C.ar           1 RES1               0.0000
     10 C10         17.5425 -30.1851  45.6573 C.3            1 RES1               0.0000
     11 C11         21.6727 -30.9599  44.9993 C.ar           1 RES1               0.0000
     12 N12         23.8942 -30.8016  45.8954 N.ar           1 RES1               0.0000
     13 C13         22.2473 -31.4543  43.8130 C.ar           1 RES1               0.0000
     14 C14         24.3494 -31.2550  44.7195 C.ar           1 RES1               0.0000
     15 N15         23.5782 -31.5717  43.6703 N.ar           1 RES1               0.0000
     16 N16         21.4366 -31.7936  42.7327 N.pl3          1 RES1               0.0000
     17 C17         25.8310 -31.3748  44.5495 C.3            1 RES1               0.0000
     18 C18         21.8349 -32.8302  41.7907 C.3            1 RES1               0.0000
     19 C19         21.8401 -34.1722  42.5103 C.ar           1 RES1               0.0000
     20 C20         20.8840 -32.7767  40.5894 C.3            1 RES1               0.0000
     21 C21         20.7092 -34.6843  43.1754 C.ar           1 RES1               0.0000
     22 C22         23.0315 -34.9088  42.5614 C.ar           1 RES1               0.0000
     23 C23         20.7419 -35.9149  43.8554 C.ar           1 RES1               0.0000
     24 C24         23.0855 -36.1277  43.2315 C.ar           1 RES1               0.0000
     25 C25         19.5581 -36.4398  44.5398 C.2            1 RES1               0.0000
     26 C26         21.9492 -36.6267  43.8701 C.ar           1 RES1               0.0000
     27 C27         18.2650 -36.3601  44.2176 C.2            1 RES1               0.0000
     28 C28         19.5720 -37.2217  45.8063 C.3            1 RES1               0.0000
     29 N29         17.4431 -36.9844  45.1157 N.2            1 RES1               0.0000
     30 N30         18.1297 -37.4927  46.0443 N.2            1 RES1               0.0000
     31 H1          21.2665 -30.7497  49.8698 H              1 RES1               0.0000
     32 H2          21.7622 -29.0418  49.8725 H              1 RES1               0.0000
     33 H3          22.7870 -29.9471  48.0331 H              1 RES1               0.0000
     34 H4          20.5151 -29.6088  51.9339 H              1 RES1               0.0000
     35 H5          19.1299 -30.1311  50.9485 H              1 RES1               0.0000
     36 H6          19.6257 -28.4232  50.9511 H              1 RES1               0.0000
     37 H7          19.5823 -30.9690  44.4084 H              1 RES1               0.0000
     38 H8          16.5419 -29.9726  46.0308 H              1 RES1               0.0000
     39 H9          17.5803 -31.2064  45.2813 H              1 RES1               0.0000
     40 H10         17.7840 -29.4927  44.8522 H              1 RES1               0.0000
     41 H11         20.5538 -31.3105  42.5998 H              1 RES1               0.0000
     42 H12         26.0526 -31.7528  43.5526 H              1 RES1               0.0000
     43 H13         26.2274 -32.0625  45.2950 H              1 RES1               0.0000
     44 H14         26.2912 -30.3962  44.6772 H              1 RES1               0.0000
     45 H15         22.8451 -32.6168  41.4447 H              1 RES1               0.0000
     46 H16         20.9355 -31.7910  40.1292 H              1 RES1               0.0000
     47 H17         19.8654 -32.9682  40.9239 H              1 RES1               0.0000
     48 H18         21.1753 -33.5327  39.8618 H              1 RES1               0.0000
     49 H19         19.7832 -34.1112  43.1628 H              1 RES1               0.0000
     50 H20         23.9245 -34.5234  42.0715 H              1 RES1               0.0000
     51 H21         24.0159 -36.6929  43.2577 H              1 RES1               0.0000
     52 H22         22.0013 -37.5836  44.3875 H              1 RES1               0.0000
     53 H23         17.9004 -35.8487  43.3279 H              1 RES1               0.0000
     54 H24         20.0012 -36.6404  46.6211 H              1 RES1               0.0000
     55 H25         20.1306 -38.1490  45.6882 H              1 RES1               0.0000
@<TRIPOS>BOND
    1    1    2 1     
    2    1    3 1     
    3    2    4 ar    
    4    2    5 ar    
    5    3    6 1     
    6    4    7 1     
    7    4    8 ar    
    8    5    9 ar    
    9    7   10 1     
   10    8   11 ar    
   11    9   12 ar    
   12   11   13 ar    
   13   12   14 ar    
   14   13   15 ar    
   15   13   16 1     
   16   14   17 1     
   17   16   18 1     
   18   18   19 1     
   19   18   20 1     
   20   19   21 ar    
   21   19   22 ar    
   22   21   23 ar    
   23   22   24 ar    
   24   23   25 1     
   25   23   26 ar    
   26   25   27 2     
   27   25   28 1     
   28   27   29 1     
   29   28   30 1     
   30    9   11 ar    
   31   14   15 ar    
   32   24   26 ar    
   33   29   30 2     
   34    3   31 1     
   35    3   32 1     
   36    5   33 1     
   37    6   34 1     
   38    6   35 1     
   39    6   36 1     
   40    8   37 1     
   41   10   38 1     
   42   10   39 1     
   43   10   40 1     
   44   16   41 1     
   45   17   42 1     
   46   17   43 1     
   47   17   44 1     
   48   18   45 1     
   49   20   46 1     
   50   20   47 1     
   51   20   48 1     
   52   21   49 1     
   53   22   50 1     
   54   24   51 1     
   55   26   52 1     
   56   27   53 1     
   57   28   54 1     
   58   28   55 1     
@<TRIPOS>SUBSTRUCTURE
      1 RES1           1
@<TRIPOS>SET
DONOR_HYDROGENS      STATIC     ATOMS    <user>   **** ""
1 41
ATOM$RED        STATIC     ATOMS    COLORGROUP SYSTEM
1 41
@<TRIPOS>COMMENT
> <Gold.Version>
2022.3.0

> <Gold.Id.Protein>
unknown|5ovf_clean|pdb

> <Gold.Protein.ActiveResidues>
 ILE839  VAL852  ILE856  LEU859  VAL871  LEU872  GLU873  VAL874  VAL875  SER876 
 ALA877  MET878  ASN879  SER880  SER881  PRO882  VAL883  TYR884  ARG885  LEU886 
 ASP887  HIS888  THR889  PHE890  GLU891  GLN892  ILE893  PRO894  SER895  ARG896 
 GLN897  LYS898  LYS899  ILE900  LEU901  GLU902  GLU903  ALA904  HIS905  GLU906 
 LEU907  SER908  GLU909  LYS914  GLU836  ILE839  VAL852  ILE855  ILE856  LEU859 
 GLN863  VAL871  LEU872  VAL874  VAL875  SER876  ALA877  MET878  ASN879  SER880 
 SER881  PRO882  VAL883  TYR884  ARG885  LEU886  ASP887  HIS888  THR889  PHE890 
 GLU891  GLN892  ILE893  PRO894  SER895  ARG896  GLN897  LYS898  LYS899  ILE900 
 LEU901  GLU902  GLU903  ALA904  HIS905  GLU906  LEU907  SER908  GLU909  ASP910 
 LYS914 

> <Gold.Score>
     Fitness  S(hb_ext) S(vdw_ext)  S(hb_int)    S(int)     S(con)      intcor
     76.99       0.75      56.94       0.00      -2.05      -0.00      -8.92

> <Gold.Goldscore.Fitness>
76.9944

> <Gold.Goldscore.Internal.Vdw>
-4.7277

> <Gold.Goldscore.Internal.Torsion>
-6.2453

> <Gold.Goldscore.External.Vdw>
56.9380

> <Gold.Goldscore.Internal.HBond>
0.0000

> <Gold.Goldscore.External.HBond>
0.7527

> <Gold.Goldscore.Internal.Correction>
-8.9249

> <Gold.Goldscore.Constraint.Score>
-0.0000

> <Gold.Goldscore.Reference.RMSD>
2.3293

> <Gold.Goldscore.Hbonds>
donor molecule, donor type, donor heavy atom, donor atom, acceptor molecule, acceptor atom, score
      L1  H    16    41       P1  2553  0.38

> <Gold.Goldscore.Internal.Vdw.Weighted>
-4.7277

> <Gold.Goldscore.Internal.Torsion.Weighted>
-6.2453

> <Gold.Goldscore.External.Vdw.Weighted>
78.2898

> <Gold.Goldscore.Internal.HBond.Weighted>
0.0000

> <Gold.Goldscore.External.HBond.Weighted>
0.7527

> <Gold.Goldscore.Internal.Correction.Weighted>
-8.9249

> <Gold.Rescore>
     Score         DG    S(hbond)    S(metal)    S(lipo)     H(rot)  DE(clash)    DE(int)    DE(con)     intcor
     26.31     -33.80       0.96        0.00     250.22       1.63       6.55       0.94       0.00       ----

> <Gold.Chemscore.Fitness>
26.3132

> <Gold.Chemscore.DG>
-33.8035

> <Gold.Chemscore.ZeroCoef>
-5.4800

> <Gold.Chemscore.Hbond>
0.9640

> <Gold.Chemscore.Metal>
0.0000

> <Gold.Chemscore.Lipo>
250.2152

> <Gold.Chemscore.Internal_Hbond>
0.0000

> <Gold.Chemscore.DEClash>
6.5501

> <Gold.Chemscore.DEInternal>
0.9402

> <Gold.Chemscore.Rot>
1.6294

> <Gold.Chemscore.Internal.Correction>
   9.000000E+99

> <Gold.Chemscore.Constraint>
0.0000

> <Gold.Chemscore.Reference.RMSD>
0.0000

> <Gold.Chemscore.Hbonds>
donor molecule, donor type, donor heavy atom, donor atom, acceptor molecule, acceptor atom, score
      L1  H    16    41       P1  2553  0.74

> <Gold.Chemscore.Hbond.Weighted>
-3.2197

> <Gold.Chemscore.Metal.Weighted>
-0.0000

> <Gold.Chemscore.Lipo.Weighted>
-29.2752

> <Gold.Chemscore.Internal_Hbond.Weighted>
0.0000

> <Gold.Chemscore.DEClash.Weighted>
6.5501

> <Gold.Chemscore.DEInternal.Weighted>
0.9402

> <Gold.Chemscore.Rot.Weighted>
4.1713

> <Gold.Chemscore.Internal.Correction.Weighted>
   9.000000E+99

> <Gold.Reference.RMSD>
2.3293

